data_mof_unit_60456.cif
_audit_creation_date              2012-12-10T18:28:06-0500
_audit_creation_method            fapswitch 2.2
_symmetry_space_group_name_H-M    P1
_symmetry_Int_Tables_number       1
_space_group_crystal_system       triclinic
_cell_length_a                    16.052239
_cell_length_b                    17.269404
_cell_length_c                    23.556425
_cell_angle_alpha                 90.298638
_cell_angle_beta                  93.03148
_cell_angle_gamma                 97.032945
_cell_volume                      6471.48515631

loop_
_atom_site_label
_atom_site_type_symbol
_atom_type_description
_atom_site_fract_x
_atom_site_fract_y
_atom_site_fract_z
_atom_type_partial_charge
C1    C     C_R   0.489007 0.349678 0.501720 0.854231
C2    C     C_R   0.510992 0.650414 0.498712 0.843919
C3    C     C_R   0.436183 0.529514 0.235840 -0.132280
C4    C     C_R   0.564374 0.468561 0.763655 -0.151373
C5    C     C_R   0.434850 0.531025 0.295324 0.081515
C6    C     C_R   0.565306 0.468142 0.704266 0.065685
C7    C     C_R   0.499619 0.500769 0.328313 -0.175601
C8    C     C_R   0.500451 0.498490 0.671624 -0.155101
C9    C     C_R   0.564624 0.470422 0.300705 0.553817
C10   C     C_R   0.435378 0.528125 0.699618 0.545572
C11   C     C_R   0.565035 0.469783 0.241593 -0.156552
C12   C     C_R   0.435309 0.528010 0.758773 -0.154950
C13   C     C_R   0.500991 0.499201 0.209064 0.207257
C14   C     C_R   0.499697 0.498403 0.790905 0.215397
C15   C     C_R   0.482974 0.264925 0.507653 -0.103362
C16   C     C_R   0.517047 0.735491 0.494829 -0.103027
C17   C     C_R   0.545667 0.230327 0.539194 0.045570
C18   C     C_R   0.453087 0.771688 0.465970 0.044819
C19   C     C_R   0.539399 0.149117 0.542828 0.625608
C20   C     C_R   0.459365 0.853050 0.464693 0.626986
C21   C     C_R   0.471615 0.102596 0.514954 -0.059849
C22   C     C_R   0.528153 0.898246 0.492574 -0.061490
C23   C     C_R   0.499869 0.500342 0.391020 0.857303
C24   C     C_R   0.500131 0.499488 0.608962 0.873602
C25   C     C_R   0.407446 0.137135 0.486341 -0.170961
C26   C     C_R   0.593329 0.862300 0.518634 -0.170920
C27   C     C_R   0.413095 0.217922 0.482621 -0.220543
C28   C     C_R   0.587822 0.781339 0.519833 -0.220200
C29   C     C_2   0.468127 0.017642 0.513968 0.548481
C30   C     C_2   0.532394 0.983259 0.495243 0.541548
C31   C     C_R   0.746352 0.464165 0.470271 0.017261
C32   C     C_R   0.253674 0.535922 0.529683 0.015882
C33   C     C_R   0.833310 0.469388 0.467421 -0.219984
C34   C     C_R   0.166720 0.530703 0.532562 -0.220055
C35   C     C_R   0.885224 0.521648 0.503521 0.059190
C36   C     C_R   0.114780 0.478359 0.496536 0.058067
C37   C     C_R   0.848025 0.567928 0.541687 -0.344181
C38   C     C_R   0.151956 0.431979 0.458426 -0.341780
C39   C     C_R   0.760436 0.561156 0.542970 0.812140
C40   C     C_R   0.239542 0.438742 0.457117 0.822457
C41   C     C_2   0.977993 0.531166 0.499040 0.154790
C42   C     C_2   0.022011 0.468855 0.501039 0.154856
C43   C     C_R   0.515162 0.568232 0.880713 0.611659
C44   C     C_R   0.486467 0.429191 0.119297 0.613962
C45   C     C_R   0.484540 0.429444 0.879359 0.607024
C46   C     C_R   0.517204 0.567970 0.120629 0.606097
C47   C     C_R   0.485023 0.427836 0.939049 -0.143847
C48   C     C_R   0.516981 0.569546 0.060954 -0.143214
C49   C     C_R   0.500754 0.498917 0.969930 -0.137792
C50   C     C_R   0.501261 0.498462 0.030079 -0.137821
C51   C     C_R   0.515938 0.570364 0.940702 -0.062948
C52   C     C_R   0.486017 0.427024 0.059312 -0.063631
C53   C     C_R   0.470146 0.357111 0.968361 0.600139
C54   C     C_R   0.532015 0.640261 0.031651 0.599930
C55   C     C_R   0.470565 0.356195 0.027788 0.050086
C56   C     C_R   0.531567 0.641180 0.972229 0.050050
Cu1   Cu    Cu3+1 0.415410 0.495980 0.497100 1.045691
Cu2   Cu    Cu3+1 0.584590 0.504020 0.502900 1.046547
H1    H     H_    0.354358 0.101453 0.465351 0.217359
H2    H     H_    0.647291 0.896932 0.539470 0.216782
H3    H     H_    0.706229 0.424590 0.441938 0.206122
H4    H     H_    0.293817 0.575553 0.557968 0.205698
H5    H     H_    0.886216 0.608980 0.570100 0.170011
H6    H     H_    0.113753 0.390852 0.430075 0.170792
H7    H     H_    0.140360 0.565890 0.563563 0.178481
H8    H     H_    0.859698 0.434269 0.436389 0.178614
H9    H     H_    0.387139 0.552418 0.210048 0.161043
H10   H     H_    0.614019 0.445459 0.788738 0.165500
H11   H     H_    0.615263 0.446270 0.220875 0.182419
H12   H     H_    0.385162 0.551161 0.779832 0.181872
H13   H     H_    0.637956 0.754543 0.541558 0.216678
H14   H     H_    0.363845 0.243630 0.458995 0.215465
N1    N     N_R   0.499580 0.498714 0.851808 -0.471162
N2    N     N_R   0.501846 0.498734 0.148185 -0.470946
N3    N     N_R   0.711660 0.510070 0.507250 -0.237610
N4    N     N_R   0.288340 0.489930 0.492750 -0.239735
O1    O     O_R   0.420280 0.382610 0.497280 -0.561321
O2    O     O_R   0.579720 0.617390 0.502720 -0.561758
O3    O     O_R   0.563150 0.389410 0.502170 -0.566929
O4    O     O_R   0.436850 0.610590 0.497830 -0.570031
O5    O     O_R   0.428550 0.496580 0.415430 -0.518064
O6    O     O_R   0.571450 0.503420 0.584570 -0.515982
O7    O     O_R   0.571420 0.503370 0.420330 -0.558589
O8    O     O_R   0.428580 0.496630 0.579670 -0.561688
O9    O     O_2   0.530498 0.634667 0.851131 -0.475490
O10   O     O_2   0.470944 0.362781 0.148880 -0.473812
O11   O     O_2   0.468673 0.362504 0.848743 -0.432536
O12   O     O_2   0.533062 0.634922 0.151233 -0.434209
F1    F     F_    0.455086 0.287809 0.939757 -0.606954
F2    F     F_    0.547187 0.709557 0.060255 -0.607196
F3    F     F_    0.398996 0.887841 0.435552 -0.632857
F4    F     F_    0.598913 0.115752 0.573961 -0.632405
F5    F     F_    0.275672 0.393084 0.421069 -0.645112
F6    F     F_    0.724283 0.606702 0.579085 -0.653976
N5    N     N_3   0.979526 0.392221 0.510598 -0.587013
H15   H     H_    0.987334 0.356512 0.475838 0.224847
H16   H     H_    0.008572 0.369565 0.546516 0.242271
N6    N     N_3   0.020464 0.607804 0.489481 -0.586449
H17   H     H_    0.991440 0.630437 0.453545 0.242593
H18   H     H_    0.012601 0.643521 0.524226 0.224430
N7    N     N_3   0.455244 0.282546 0.055633 -0.468018
H19   H     H_    0.396291 0.255136 0.040926 0.265825
H20   H     H_    0.500718 0.247769 0.044130 0.265047
N8    N     N_3   0.547015 0.714823 0.944392 -0.468112
H21   H     H_    0.606019 0.742133 0.959083 0.265447
H22   H     H_    0.501633 0.749688 0.955915 0.265221
N9    N     N_3   0.369215 0.564747 0.322186 -0.507744
H23   H     H_    0.396544 0.616768 0.341867 0.221510
H24   H     H_    0.324200 0.579832 0.291870 0.230108
N10   N     N_3   0.631092 0.435189 0.677412 -0.530302
H25   H     H_    0.688542 0.465850 0.691954 0.248719
H26   H     H_    0.630255 0.377359 0.690517 0.227934
F7    F     F_    0.627031 0.439758 0.330738 -0.653840
F8    F     F_    0.372668 0.558850 0.669959 -0.654009
N11   N     N_3   0.614502 0.277464 0.568599 -0.537625
H27   H     H_    0.613433 0.264201 0.611830 0.249988
H28   H     H_    0.670491 0.262219 0.553556 0.268617
N12   N     N_3   0.382742 0.726142 0.436971 -0.552384
H29   H     H_    0.381190 0.742176 0.394226 0.245878
H30   H     H_    0.327825 0.740240 0.454334 0.271068
F9    F     F_    0.603671 0.026655 0.479069 -0.630219
F10   F     F_    0.396914 0.974370 0.530357 -0.627939

loop_
_geom_bond_atom_site_label_1
_geom_bond_atom_site_label_2
_ccdc_geom_bond_type
C16   C28   A    
C43   N1    A    
N7    H19   S    
C1    O1    A    
C41   C42   D    
C31   H3    S    
C36   C42   S    
N5    H15   S    
C40   F5    S    
N12   H30   S    
N8    H22   S    
C47   C49   A    
C48   C54   A    
C23   O7    A    
Cu1   N4    S    
C35   C37   A    
C54   F2    S    
Cu2   O6    S    
C33   C35   A    
N11   H27   S    
C18   C20   A    
C45   N1    A    
C51   C56   A    
C45   C47   A    
C24   O6    A    
N12   H29   S    
C21   C25   A    
C19   F4    S    
C17   C19   A    
N10   H25   S    
C31   N3    A    
N11   H28   S    
Cu2   N3    S    
C50   C52   A    
N9    H23   S    
C31   C33   A    
C1    C15   S    
C39   N3    A    
C2    C16   S    
C18   N12   S    
C46   O12   S    
C3    C13   A    
C52   C55   A    
C47   C53   A    
C44   C52   A    
C48   C50   A    
N7    H20   S    
C6    N10   S    
Cu1   O4    S    
C44   O10   S    
C34   H7    S    
N8    H21   S    
C37   H5    S    
C33   H8    S    
C38   H6    S    
C53   C55   A    
C20   F3    S    
C46   C48   A    
C42   N5    S    
C43   O9    S    
C14   N1    S    
Cu1   O1    S    
C56   N8    S    
C4    C6    A    
C5    C7    A    
C6    C8    A    
C49   C51   A    
C21   C29   S    
C40   N4    A    
C32   C34   A    
C39   F6    S    
C29   C30   D    
C2    O2    A    
C15   C27   A    
C30   F9    S    
C29   F10   S    
C11   H11   S    
Cu1   O8    S    
C44   N2    A    
C9    C11   A    
C10   C12   A    
Cu2   O3    S    
C16   C18   A    
C12   C14   A    
C49   C50   A    
N6    H18   S    
C53   F1    S    
C1    O3    A    
Cu1   O5    S    
C28   H13   S    
C46   N2    A    
C17   N11   S    
C4    H10   S    
C5    N9    S    
C7    C9    A    
C12   H12   S    
C23   O5    A    
C45   O11   S    
C3    H9    S    
C20   C22   A    
C3    C5    A    
C10   F8    S    
C32   N4    A    
N5    H16   S    
C54   C56   A    
C15   C17   A    
C25   C27   A    
C55   N7    S    
C26   C28   A    
C9    F7    S    
C36   C38   A    
C24   O8    A    
C32   H4    S    
C37   C39   A    
C22   C30   S    
Cu2   O7    S    
C38   C40   A    
C11   C13   A    
C43   C51   A    
Cu1   Cu2   S    
N9    H24   S    
C7    C23   S    
C8    C24   S    
C34   C36   A    
C4    C14   A    
C35   C41   S    
N10   H26   S    
C2    O4    A    
Cu2   O2    S    
C13   N2    S    
C8    C10   A    
N6    H17   S    
C22   C26   A    
C41   N6    S    
C25   H1    S    
C26   H2    S    
C27   H14   S    
C19   C21   A    
