data_mof_unit_26931.cif
_audit_creation_date              2012-12-11T15:32:05-0500
_audit_creation_method            fapswitch 2.2
_symmetry_space_group_name_H-M    P1
_symmetry_Int_Tables_number       1
_space_group_crystal_system       triclinic
_cell_length_a                    13.619081
_cell_length_b                    13.616892
_cell_length_c                    27.544526
_cell_angle_alpha                 90.54637
_cell_angle_beta                  90.643099
_cell_angle_gamma                 119.980081
_cell_volume                      4423.69435029

loop_
_atom_site_label
_atom_site_type_symbol
_atom_type_description
_atom_site_fract_x
_atom_site_fract_y
_atom_site_fract_z
_atom_type_partial_charge
C1    C     C_R   0.619403 0.897787 0.431559 0.538871
C2    C     C_R   0.120794 0.892471 0.268096 0.202011
C3    C     C_R   0.109268 0.886240 0.217239 0.305174
C4    C     C_R   0.599813 0.219138 0.431649 0.528257
C5    C     C_R   0.187526 0.759026 0.213466 0.208454
C6    C     C_R   0.199394 0.765593 0.264223 0.295855
C7    C     C_R   0.165207 0.830696 0.291626 -0.076084
C8    C     C_R   0.144641 0.822023 0.189840 -0.059408
C9    C     C_1   0.124393 0.811752 0.138123 -0.011441
C10   C     C_1   0.190607 0.843516 0.342981 -0.029895
C11   C     C_1   0.097702 0.794659 0.095824 0.013200
C12   C     C_R   0.570163 0.281361 0.211261 0.280991
C13   C     C_1   0.633620 0.865682 0.383757 0.010500
C14   C     C_R   0.652644 0.743591 0.270871 0.212935
C15   C     C_R   0.653106 0.728536 0.219850 0.194902
C16   C     C_R   0.277616 0.877752 0.431152 0.535578
C17   C     C_R   0.652244 0.906180 0.207715 0.260113
C18   C     C_R   0.646075 0.918154 0.257948 0.242102
C19   C     C_R   0.646812 0.836740 0.289572 -0.026542
C20   C     C_R   0.656662 0.811599 0.188745 -0.025936
C21   C     C_1   0.672157 0.800940 0.137660 -0.001740
C22   C     C_1   0.641365 0.848606 0.341417 0.011457
C23   C     C_R   0.562812 0.269069 0.261863 0.301030
C24   C     C_1   0.691633 0.789745 0.096125 0.016756
C25   C     C_R   0.645526 0.290551 0.614835 -0.069668
C26   C     C_R   0.744932 0.307398 0.638139 -0.160427
C27   C     C_R   0.765998 0.342719 0.687555 0.290894
C28   C     C_R   0.620829 0.902119 0.569467 0.595419
C29   C     C_R   0.674914 0.335556 0.714422 0.056178
C30   C     C_R   0.591788 0.350059 0.688505 0.267064
C31   C     C_R   0.584214 0.335613 0.637296 0.235936
C32   C     C_R   0.567836 0.286989 0.793879 0.261967
C33   C     C_R   0.574541 0.315869 0.843395 0.237869
C34   C     C_R   0.661737 0.313492 0.291111 0.045423
C35   C     C_R   0.757989 0.328977 0.847826 0.213497
C36   C     C_R   0.750128 0.305976 0.796849 0.235766
C37   C     C_R   0.669257 0.318798 0.768930 0.013700
C38   C     C_R   0.678285 0.353544 0.868461 -0.010681
C39   C     C_R   0.230705 0.865990 0.616633 -0.072358
C40   C     C_R   0.602418 0.223717 0.568930 0.561298
C41   C     C_R   0.170465 0.920597 0.631019 0.249678
C42   C     C_R   0.140049 0.917857 0.679831 0.254985
C43   C     C_R   0.183184 0.872624 0.714959 -0.057866
C44   C     C_R   0.254114 0.830135 0.700194 0.174246
C45   C     C_R   0.678339 0.336065 0.189799 -0.030326
C46   C     C_R   0.260102 0.809879 0.651412 0.267774
C47   C     C_R   0.103113 0.739162 0.780938 -0.139260
C48   C     C_R   0.095038 0.716119 0.829896 0.215048
C49   C     C_R   0.133928 0.908142 0.847732 0.214285
C50   C     C_R   0.163218 0.936402 0.798581 0.211644
C51   C     C_R   0.142981 0.849650 0.765116 -0.044875
C52   C     C_R   0.280068 0.881596 0.568302 0.570910
C53   C     C_R   0.098841 0.796351 0.863363 0.011363
C54   C     C_R   0.634957 0.877585 0.619993 0.018976
C55   C     C_R   0.589014 0.766038 0.636583 0.219281
C56   C     C_1   0.691258 0.360777 0.138745 -0.029255
C57   C     C_R   0.590262 0.747969 0.687300 0.290232
C58   C     C_R   0.615244 0.838253 0.720315 0.043692
C59   C     C_R   0.655007 0.947249 0.702354 -0.159121
C60   C     C_R   0.678957 0.968434 0.653781 0.211166
C61   C     C_R   0.714275 0.912914 0.799510 -0.179794
C62   C     C_R   0.733148 0.901221 0.848174 0.227043
C63   C     C_R   0.569025 0.711518 0.845917 -0.184588
C64   C     C_1   0.631957 0.267570 0.384550 0.025232
C65   C     C_R   0.542023 0.728929 0.798041 0.335109
C66   C     C_R   0.622015 0.826176 0.773533 0.059276
C67   C     C_1   0.650399 0.294775 0.342703 0.065546
C68   C     C_R   0.669115 0.794208 0.869464 0.018363
C69   C     C_R   0.049994 0.761559 0.048018 0.546857
C70   C     C_R   0.714607 0.435895 0.049605 0.558783
C71   C     C_R   0.723613 0.771347 0.049169 0.548503
C72   C     C_R   0.045011 0.756875 0.910763 0.587357
C73   C     C_R   0.705682 0.424687 0.913180 0.586299
C74   C     C_R   0.715185 0.767167 0.912900 0.565301
C75   C     C_R   0.768942 0.367171 0.269901 0.222075
C76   C     C_R   0.776358 0.378219 0.219112 -0.128223
C77   C     C_3   0.449799 0.113365 0.758964 -0.084580
C78   C     C_1   0.701442 0.389055 0.096972 0.017114
C79   C     C_3   0.433373 0.357812 0.854269 -0.067703
C80   C     C_3   0.952780 0.376130 0.688535 -0.096628
C81   C     C_3   0.936987 0.369835 0.872572 -0.085998
C82   C     C_3   0.417203 0.341361 0.698699 -0.004504
C83   C     C_3   0.584355 0.455996 0.580644 -0.083953
C84   C     C_3   0.036077 0.896174 0.575233 -0.091855
C85   C     C_3   0.183205 0.614810 0.842330 -0.125442
C86   C     C_3   0.058217 0.016845 0.871874 -0.056329
C87   C     C_3   0.202429 0.624484 0.641884 -0.093719
C88   C     C_3   0.438398 0.610038 0.602617 -0.103239
C89   C     C_1   0.223526 0.857428 0.384509 0.006242
C90   C     C_3   0.392286 0.544511 0.785321 -0.107817
C91   C     C_3   0.857560 0.099823 0.635059 -0.095212
C92   C     C_3   0.415106 0.101840 0.285513 -0.051467
C93   C     C_3   0.949229 0.885245 0.192595 -0.046574
C94   C     C_3   0.359505 0.765793 0.288190 -0.052458
Cr1   Cr    Cr6+3 0.417720 0.831920 0.499820 1.048529
Cr2   Cr    Cr6+3 0.668190 0.085770 0.500360 1.045703
Cr3   Cr    Cr6+3 0.414060 0.082260 0.499840 1.080063
Cr4   Cr    Cr6+3 0.908000 0.821090 0.979770 1.071370
Cr5   Cr    Cr6+3 0.912420 0.571130 0.979880 1.052171
Cr6   Cr    Cr6+3 0.657970 0.566940 0.980940 1.049124
H1    H     H_    0.804621 0.294464 0.617512 0.152312
H2    H     H_    0.633329 0.011156 0.309860 0.308074
H3    H     H_    0.430684 0.059867 0.791612 0.147539
H4    H     H_    0.523787 0.118178 0.740085 0.102514
H5    H     H_    0.378011 0.071091 0.732784 0.179538
H6    H     H_    0.388466 0.328064 0.818704 0.145997
H7    H     H_    0.500095 0.448823 0.853015 0.105270
H8    H     H_    0.370112 0.350816 0.881074 0.129195
H9    H     H_    0.975754 0.410174 0.651354 0.071827
H10   H     H_    0.921024 0.284016 0.689725 0.164848
H11   H     H_    0.031470 0.417740 0.711171 0.125118
H12   H     H_    0.858852 0.421575 0.202430 0.139051
H13   H     H_    0.830143 0.220704 0.801025 0.332430
H14   H     H_    0.979768 0.321513 0.882520 0.108245
H15   H     H_    0.969285 0.443494 0.897943 0.209564
H16   H     H_    0.961144 0.398817 0.834703 0.173093
H17   H     H_    0.382153 0.252783 0.684677 0.176473
H18   H     H_    0.404785 0.394177 0.671629 0.147808
H19   H     H_    0.366516 0.336688 0.730667 0.120842
H20   H     H_    0.640970 0.440615 0.556891 0.103054
H21   H     H_    0.635798 0.533220 0.603557 0.152692
H22   H     H_    0.529368 0.471635 0.555864 0.163929
H23   H     H_    0.089736 0.672370 0.755328 0.171824
H24   H     H_    0.967437 0.856213 0.602277 0.140645
H25   H     H_    0.044345 0.829934 0.554715 0.092428
H26   H     H_    0.010660 0.940869 0.548879 0.143359
H27   H     H_    0.251402 0.688178 0.863240 0.138739
H28   H     H_    0.208797 0.615840 0.804053 0.173346
H29   H     H_    0.173709 0.536686 0.858868 0.104238
H30   H     H_    0.035962 0.932766 0.723400 0.341864
H31   H     H_    0.244141 0.099155 0.810632 0.374312
H32   H     H_    0.976112 0.941614 0.860295 0.159930
H33   H     H_    0.084870 0.083609 0.844165 0.112293
H34   H     H_    0.775464 0.989472 0.781791 0.099522
H35   H     H_    0.043181 0.051183 0.905899 0.174672
H36   H     H_    0.325679 0.842503 0.763158 0.316778
H37   H     H_    0.127282 0.613791 0.620762 0.097290
H38   H     H_    0.180174 0.602667 0.680529 0.152016
H39   H     H_    0.223716 0.562110 0.626722 0.090978
H40   H     H_    0.404980 0.576327 0.639091 0.144295
H41   H     H_    0.412746 0.536321 0.577934 0.119351
H42   H     H_    0.398390 0.657197 0.587782 0.200283
H43   H     H_    0.485120 0.246939 0.149641 0.335386
H44   H     H_    0.850714 0.060750 0.854543 0.313946
H45   H     H_    0.513921 0.634591 0.864880 0.102428
H46   H     H_    0.575767 0.599227 0.678073 0.361689
H47   H     H_    0.353154 0.524494 0.821668 0.063639
H48   H     H_    0.457332 0.518476 0.781671 0.164789
H49   H     H_    0.323839 0.494044 0.758285 0.129931
H50   H     H_    0.862528 0.036268 0.610993 0.138598
H51   H     H_    0.895325 0.101221 0.671278 0.123286
H52   H     H_    0.909799 0.183521 0.618150 0.113764
H53   H     H_    0.475188 0.081239 0.304352 0.094460
H54   H     H_    0.392931 0.061789 0.248648 0.169296
H55   H     H_    0.336805 0.064727 0.307000 0.160545
H56   H     H_    0.677220 0.018973 0.726423 0.158795
H57   H     H_    0.094954 0.953545 0.328239 0.330515
H58   H     H_    0.913938 0.869676 0.229775 0.162246
H59   H     H_    0.917660 0.803392 0.172427 0.116207
H60   H     H_    0.917011 0.934707 0.173154 0.157158
H61   H     H_    0.212638 0.696360 0.153471 0.331847
H62   H     H_    0.392354 0.848805 0.307534 0.084400
H63   H     H_    0.393547 0.779034 0.250829 0.168255
H64   H     H_    0.391723 0.716902 0.308095 0.161769
H65   H     H_    0.702447 0.637066 0.288075 0.336139
H66   H     H_    0.932776 0.443940 0.278746 0.350973
H67   H     H_    0.610946 0.569460 0.221249 0.351504
H68   H     H_    0.651578 0.969346 0.144044 0.320862
O1    O     O_R   0.302900 0.805360 0.446400 -0.498700
O2    O     O_R   0.638120 0.455970 0.034270 -0.489714
O3    O     O_R   0.667540 0.672320 0.030160 -0.485652
O4    O     O_R   0.522090 0.841370 0.450730 -0.494715
O5    O     O_R   0.814460 0.840990 0.926980 -0.460346
O6    O     O_R   0.001710 0.811400 0.930110 -0.480639
O7    O     O_R   0.023410 0.659800 0.926210 -0.482523
O8    O     O_R   0.806940 0.473170 0.931090 -0.481471
O9    O     O_R   0.633420 0.451310 0.927930 -0.485888
O10   O     O_R   0.663190 0.668000 0.931580 -0.525017
O11   O     O_3   0.826130 0.653050 0.980200 -0.276754
O12   O     O_R   0.657980 0.180990 0.549630 -0.491232
O13   O     O_R   0.693280 0.995650 0.447220 -0.503731
O14   O     O_R   0.657260 0.178740 0.451050 -0.496522
O15   O     O_R   0.502640 0.195380 0.446850 -0.500838
O16   O     O_R   0.319630 0.976590 0.450330 -0.499650
O17   O     O_R   0.303680 0.807790 0.552740 -0.487252
O18   O     O_R   0.522820 0.843620 0.549310 -0.482495
O19   O     O_R   0.694060 0.998080 0.553560 -0.486106
O20   O     O_3   0.864687 0.408330 0.299319 -0.660774
O21   O     O_3   0.650676 0.634321 0.199235 -0.697781
O22   O     O_3   0.653800 0.989506 0.178770 -0.628694
O23   O     O_R   0.503420 0.197810 0.553190 -0.453775
O24   O     O_3   0.640264 0.011697 0.274192 -0.654494
O25   O     O_3   0.462786 0.220081 0.771886 -0.543976
O26   O     O_3   0.478038 0.289262 0.869367 -0.511541
O27   O     O_3   0.874053 0.401847 0.709032 -0.523423
O28   O     O_3   0.803461 0.253214 0.775625 -0.691574
O29   O     O_3   0.819612 0.299468 0.878863 -0.565591
O30   O     O_3   0.532824 0.393750 0.713270 -0.549539
O31   O     O_3   0.515215 0.362134 0.609770 -0.564463
O32   O     O_3   0.139904 0.975996 0.597506 -0.511302
O33   O     O_3   0.078519 0.612587 0.844583 -0.576997
O34   O     O_R   0.320350 0.978840 0.548910 -0.459888
O35   O     O_3   0.068171 0.958750 0.690952 -0.660360
O36   O     O_3   0.210357 0.046256 0.782517 -0.694326
O37   O     O_3   0.144212 0.989771 0.881085 -0.559148
O38   O     O_3   0.311137 0.798248 0.732524 -0.661207
O39   O     O_3   0.296342 0.735353 0.638048 -0.513566
O40   O     O_3   0.557426 0.678391 0.603121 -0.616663
O41   O     O_3   0.469882 0.240199 0.184816 -0.633740
O42   O     O_3   0.816428 0.991984 0.874773 -0.687405
O43   O     O_3   0.573623 0.646410 0.705121 -0.677459
O44   O     O_3   0.437217 0.660176 0.775179 -0.509285
O45   O     O_3   0.499990 0.999990 0.500010 -0.272376
O46   O     O_3   0.745497 0.079332 0.639737 -0.551198
O47   O     O_3   0.457754 0.219640 0.283243 -0.510283
O48   O     O_3   0.089674 0.961378 0.292797 -0.643238
O49   O     O_3   0.068721 0.948741 0.193883 -0.494209
O50   O     O_3   0.218152 0.689449 0.188951 -0.655126
O51   O     O_3   0.239989 0.703076 0.287566 -0.500518
O52   O     O_3   0.660253 0.670707 0.303292 -0.675519
O53   O     O_R   0.819150 0.845650 0.033320 -0.501309
O54   O     O_R   0.006060 0.815720 0.028680 -0.483336
O55   O     O_R   0.028100 0.664460 0.032550 -0.511303
O56   O     O_R   0.811290 0.477490 0.029660 -0.492936

loop_
_geom_bond_atom_site_label_1
_geom_bond_atom_site_label_2
_ccdc_geom_bond_type
C25   C31   A    
C7    C10   S    
C90   O44   S    
C63   C65   A    
C2    O48   S    
C71   O53   A    
C70   C78   S    
C41   C42   A    
C75   O20   S    
Cr2   O13   S    
C75   C76   A    
Cr6   O10   S    
C31   O31   S    
H46   O43   S    
C56   C78   T    
C81   H15   S    
H43   O41   S    
C54   C60   A    
C84   O32   S    
C55   O40   S    
C12   C23   A    
C18   O24   S    
C26   C27   A    
C29   C30   A    
C79   O26   S    
C45   C76   A    
H66   O20   S    
C5    C6    A    
H44   O42   S    
C36   C37   A    
C87   H37   S    
C12   O41   S    
C82   O30   S    
C91   O46   S    
C41   O32   S    
C26   H1    S    
C81   O29   S    
C30   C31   A    
Cr4   O6    S    
C27   C29   A    
C68   C74   S    
Cr4   O53   S    
C17   C20   A    
H68   O22   S    
C81   H16   S    
C92   O47   S    
C93   O49   S    
C69   O54   A    
C72   O7    A    
C93   H59   S    
C77   O25   S    
C88   H40   S    
C65   O44   S    
C90   H48   S    
H65   O52   S    
C85   H29   S    
C40   O12   A    
C47   H23   S    
C16   O1    A    
C58   C66   S    
Cr5   O8    S    
C35   C36   A    
C45   C56   S    
C8    C9    S    
C80   H9    S    
C79   H8    S    
H2    O24   S    
C92   H53   S    
C72   O6    A    
Cr1   O4    S    
Cr3   O34   S    
C85   O33   S    
C34   C75   A    
C73   O9    A    
C39   C52   S    
C15   O21   S    
C59   C60   A    
C83   H22   S    
Cr3   O45   S    
H61   O50   S    
Cr6   O3    S    
Cr2   O19   S    
C14   O52   S    
C42   O35   S    
C48   C53   A    
C82   H19   S    
C88   O40   S    
C90   H49   S    
Cr6   O9    S    
C61   C66   A    
C86   O37   S    
C88   H42   S    
C44   C46   A    
C61   H34   S    
Cr3   O15   S    
C16   C89   S    
C5    O50   S    
C84   H26   S    
C15   C20   A    
H67   O21   S    
Cr5   O55   S    
Cr6   O2    S    
C64   C67   T    
C35   C38   A    
C10   C89   T    
C74   O5    A    
C39   C41   A    
C3    C8    A    
C28   O19   A    
C87   H39   S    
Cr4   O5    S    
C28   C54   S    
C32   O25   S    
C23   O47   S    
C25   C26   A    
Cr5   O56   S    
C48   O33   S    
Cr2   O12   S    
Cr2   O45   S    
C79   H6    S    
C69   O55   A    
C83   H20   S    
C81   H14   S    
C93   H60   S    
C43   C44   A    
C36   O28   S    
Cr5   O11   S    
C90   H47   S    
C28   O18   A    
C5    C8    A    
C9    C11   T    
C86   H33   S    
C70   O56   A    
C47   C48   A    
C74   O10   A    
C76   H12   S    
C23   C34   A    
C19   C22   S    
C16   O16   A    
C50   C51   A    
C62   O42   S    
C79   H7    S    
C32   C37   A    
C83   H21   S    
H31   O36   S    
Cr1   O1    S    
C87   O39   S    
C39   C46   A    
C30   O30   S    
C49   O37   S    
C33   O26   S    
C49   C50   A    
C55   C57   A    
C2    C7    A    
Cr1   O45   S    
H13   O28   S    
C71   O3    A    
C21   C24   T    
C85   H27   S    
C1    C13   S    
C42   C43   A    
C82   H18   S    
C87   H38   S    
C80   H10   S    
C93   H58   S    
C94   H64   S    
C88   H41   S    
C35   O29   S    
Cr3   O16   S    
C92   H54   S    
C84   H25   S    
C80   O27   S    
C94   H62   S    
C54   C55   A    
H57   O48   S    
C1    O13   A    
C57   O43   S    
C14   C19   A    
Cr2   O14   S    
C12   C45   A    
C77   H4    S    
C34   C67   S    
C91   H50   S    
C47   C51   A    
C59   H56   S    
C11   C69   S    
C6    C7    A    
C50   O36   S    
C17   O22   S    
C84   H24   S    
C44   O38   S    
C63   C68   A    
C1    O4    A    
C33   C38   A    
C17   C18   A    
C62   C68   A    
C32   C33   A    
C73   O8    A    
C77   H5    S    
C2    C3    A    
C70   O2    A    
C25   C40   S    
C91   H51   S    
C3    O49   S    
C53   C72   S    
C86   H32   S    
C57   C58   A    
C91   H52   S    
C40   O23   A    
C43   C51   S    
C49   C53   A    
Cr4   O54   S    
C80   H11   S    
C94   O51   S    
C13   C22   T    
C92   H55   S    
C52   O34   A    
C4    O15   A    
C61   C62   A    
Cr1   O17   S    
C58   C59   A    
Cr5   O7    S    
C77   H3    S    
C6    O51   S    
C86   H35   S    
Cr3   O23   S    
C27   O27   S    
C20   C21   S    
C24   C71   S    
C65   C66   A    
C52   O17   A    
C4    C64   S    
C29   C37   S    
C18   C19   A    
C14   C15   A    
C85   H28   S    
C60   O46   S    
C46   O39   S    
H36   O38   S    
C82   H17   S    
C4    O14   A    
Cr4   O11   S    
Cr6   O11   S    
C83   O31   S    
C94   H63   S    
C63   H45   S    
H30   O35   S    
Cr1   O18   S    
C38   C73   S    
