data_mof_unit_53778.cif
_audit_creation_date              2013-03-05T16:11:55-0500
_audit_creation_method            fapswitch 2.2
_symmetry_space_group_name_H-M    P1
_symmetry_Int_Tables_number       1
_space_group_crystal_system       triclinic
_cell_length_a                    15.768492
_cell_length_b                    10.665683
_cell_length_c                    9.850009
_cell_angle_alpha                 89.834471
_cell_angle_beta                  89.944793
_cell_angle_gamma                 90.307949
_cell_volume                      1656.55998896

loop_
_atom_site_label
_atom_site_type_symbol
_atom_site_description
_atom_site_fract_x
_atom_site_fract_y
_atom_site_fract_z
_atom_type_partial_charge
O1    O     O_R   0.499990 0.316750 0.614620 -0.598596
O2    O     O_R   0.500010 0.683250 0.385380 -0.598692
O3    O     O_R   0.500000 0.316780 0.385290 -0.608682
O4    O     O_R   0.500000 0.683220 0.614710 -0.608699
C1    C     C_R   0.499544 0.260333 0.500203 1.012908
C2    C     C_R   0.500463 0.739667 0.499798 1.013304
O5    O     O_R   0.376780 0.499970 0.614640 -0.631104
O6    O     O_R   0.623220 0.500030 0.385360 -0.631092
O7    O     O_R   0.376780 0.500000 0.385310 -0.581856
O8    O     O_R   0.623220 0.500000 0.614690 -0.581853
C3    C     C_R   0.338046 0.500282 0.500041 0.955186
C4    C     C_R   0.661954 0.499704 0.499959 0.954975
Zn1   Zn    Zn3+2 0.500000 0.499980 0.653120 1.058501
Zn2   Zn    Zn3+2 0.500000 0.500020 0.346880 1.058465
C5    C     C_3   0.972344 0.469340 0.622542 0.245248
C6    C     C_3   0.027656 0.530614 0.377461 0.245246
C7    C     C_3   0.027006 0.386462 0.531824 0.238526
C8    C     C_3   0.972993 0.613492 0.468179 0.238523
H1    H     H_    0.946714 0.346405 0.331804 0.240438
H2    H     H_    0.053285 0.653549 0.668199 0.240436
C9    C     C_1   0.249513 0.500237 0.500155 -0.003539
C10   C     C_1   0.750487 0.499734 0.499846 -0.003597
C11   C     C_3   0.029496 0.584701 0.592785 -0.314191
C12   C     C_3   0.970503 0.415253 0.407218 -0.314186
C13   C     C_3   0.083962 0.499822 0.499876 -0.125890
C14   C     C_3   0.916037 0.500133 0.500127 -0.125886
C15   C     C_1   0.174508 0.500047 0.500063 0.188586
C16   C     C_1   0.825491 0.499914 0.499939 0.188605
C17   C     C_R   0.437657 0.064133 0.423988 0.205748
C18   C     C_R   0.562360 0.935869 0.576006 0.205599
C19   C     C_R   0.439046 0.934516 0.422618 0.207374
C20   C     C_R   0.560960 0.065487 0.577383 0.207504
C21   C     C_R   0.501032 0.872111 0.498928 -0.350343
C22   C     C_R   0.498975 0.127890 0.501077 -0.350318
C23   C     C_R   0.552404 0.578729 0.071552 -0.004746
C24   C     C_R   0.447595 0.421272 0.928448 -0.004597
H3    H     H_    0.594313 0.641706 0.125701 0.163577
H4    H     H_    0.405687 0.358295 0.874298 0.163586
C25   C     C_R   0.552412 0.578651 0.927719 0.002637
C26   C     C_R   0.447587 0.421352 0.072280 0.002667
H5    H     H_    0.594380 0.641453 0.872977 0.186560
H6    H     H_    0.405616 0.358555 0.127023 0.186663
N1    N     N_R   0.499980 0.499970 0.857200 -0.107549
N2    N     N_R   0.500020 0.500030 0.142800 -0.107577
N3    N     N_R   0.054912 0.261035 0.569415 0.262721
O9    O     O_R   0.999018 0.173750 0.593797 -0.244869
O10   O     O_R   0.135224 0.235248 0.578079 -0.293055
N4    N     N_R   0.945088 0.738920 0.430588 0.262726
O11   O     O_R   0.000983 0.826204 0.406205 -0.244893
O12   O     O_R   0.864776 0.764709 0.421931 -0.293056
N5    N     N_R   0.943684 0.433252 0.757914 0.264217
O13   O     O_R   0.999059 0.409795 0.852229 -0.264992
O14   O     O_R   0.863211 0.424952 0.785641 -0.301650
N6    N     N_R   0.056315 0.566702 0.242088 0.264214
O15   O     O_R   0.000939 0.590160 0.147775 -0.264995
O16   O     O_R   0.136788 0.575001 0.214361 -0.301664
N7    N     N_R   0.371305 0.130452 0.354652 0.239465
O17   O     O_R   0.357674 0.111798 0.226031 -0.298660
O18   O     O_R   0.323066 0.207749 0.420845 -0.363509
N8    N     N_R   0.628706 0.869557 0.645373 0.239395
O19   O     O_R   0.642536 0.888572 0.773863 -0.298416
O20   O     O_R   0.676861 0.792095 0.579253 -0.363621
N9    N     N_R   0.373879 0.866131 0.352728 0.256587
O21   O     O_R   0.315376 0.807404 0.421509 -0.354637
O22   O     O_R   0.378766 0.850422 0.222022 -0.280680
N10   N     N_R   0.626119 0.133876 0.647280 0.256633
O23   O     O_R   0.684854 0.192097 0.578525 -0.354108
O24   O     O_R   0.620996 0.150158 0.777857 -0.281022

loop_
_geom_bond_atom_site_label_1
_geom_bond_atom_site_label_2
_geom_bond_distance
_ccdc_geom_bond_type
N10   O24   1.300845 A    
O7    Zn2   1.979166 S    
H2    C11   1.110153 S    
C5    N5    1.457528 S    
C13   C15   1.427761 S    
C19   N9    1.434590 S    
Zn2   N2    2.010189 S    
C14   C16   1.427760 S    
C8    C14   1.533962 S    
C2    C21   1.412579 S    
O5    Zn1   1.979977 S    
O6    C4    1.283968 A    
C7    C13   1.533961 S    
C1    C22   1.412573 S    
Zn1   N1    2.010189 S    
N4    O12   1.300199 A    
H1    C12   1.110153 S    
C9    C15   1.182703 T    
O2    Zn2   1.991801 S    
C8    N4    1.457444 S    
C6    C12   1.548378 S    
C10   C16   1.182704 T    
N3    O9    1.300241 A    
N8    O20   1.300853 A    
O5    C3    1.283967 A    
C23   N2    1.366534 A    
O7    C3    1.284092 A    
C12   C14   1.551233 S    
N7    O17   1.300915 A    
O2    C2    1.279137 A    
O3    Zn2   1.989591 S    
O8    C4    1.284092 A    
O1    C1    1.279127 A    
C24   H4    1.081819 S    
N4    O11   1.300241 A    
C23   H3    1.081818 S    
C7    N3    1.457441 S    
N10   O23   1.300851 A    
N6    O16   1.300244 A    
C11   C13   1.551232 S    
C23   C25   1.416758 A    
N9    O22   1.301054 A    
C6    N6    1.457528 S    
N7    O18   1.300875 A    
C7    C12   1.548360 S    
O1    Zn1   1.991801 S    
C19   C21   1.403165 A    
C5    C11   1.548376 S    
O4    Zn1   1.989590 S    
N5    O13   1.300247 A    
C18   C20   1.382856 A    
C4    C10   1.396031 S    
C26   N2    1.366483 A    
C24   C26   1.416755 A    
N5    O14   1.300243 A    
C25   H5    1.081586 S    
C6    C8    1.527766 S    
O4    C2    1.280499 A    
C17   N7    1.438039 S    
N3    O10   1.300198 A    
C6    C13   1.533956 S    
C5    C7    1.527768 S    
C26   H6    1.081576 S    
N6    O15   1.300247 A    
N8    O19   1.300782 A    
C5    C14   1.533956 S    
C25   N1    1.366485 A    
O6    Zn2   1.979974 S    
C18   C21   1.404051 A    
O3    C1    1.280507 A    
C17   C19   1.382854 A    
C17   C22   1.404005 A    
C3    C9    1.396035 S    
C8    C11   1.548356 S    
C20   N10   1.434553 S    
C20   C22   1.403125 A    
N9    O21   1.300951 A    
C24   N1    1.366531 A    
O8    Zn1   1.979164 S    
C18   N8    1.438090 S    
