data_mof_unit_58975.cif
_audit_creation_date              2012-12-11T15:54:38-0500
_audit_creation_method            fapswitch 2.2
_symmetry_space_group_name_H-M    P1
_symmetry_Int_Tables_number       1
_space_group_crystal_system       triclinic
_cell_length_a                    6.931062
_cell_length_b                    14.5298
_cell_length_c                    16.094004
_cell_angle_alpha                 89.967095
_cell_angle_beta                  89.972277
_cell_angle_gamma                 90.012901
_cell_volume                      1620.77747179

loop_
_atom_site_label
_atom_site_type_symbol
_atom_type_description
_atom_site_fract_x
_atom_site_fract_y
_atom_site_fract_z
_atom_type_partial_charge
O1    O     O_R   0.638180 0.333920 0.163320 -0.540893
O2    O     O_R   0.361820 0.666080 0.836680 -0.540893
O3    O     O_R   0.308470 0.344960 0.336080 -0.543120
O4    O     O_R   0.691530 0.655040 0.663920 -0.543120
O5    O     O_R   0.138140 0.166110 0.336680 -0.535026
O6    O     O_R   0.861860 0.833890 0.663320 -0.535026
C1    C     C_R   0.477496 0.367099 0.365126 0.687953
C2    C     C_R   0.522504 0.632901 0.634874 0.687954
O7    O     O_R   0.308460 0.344950 0.163930 -0.543748
O8    O     O_R   0.691540 0.655050 0.836070 -0.543748
O9    O     O_R   0.138140 0.166100 0.163310 -0.542947
O10   O     O_R   0.861860 0.833900 0.836690 -0.542948
C3    C     C_R   0.477546 0.367213 0.134999 0.685220
C4    C     C_R   0.522454 0.632787 0.865001 0.685219
O11   O     O_R   0.638180 0.333930 0.336700 -0.543488
O12   O     O_R   0.361820 0.666070 0.663300 -0.543488
O13   O     O_3   0.471670 0.191340 0.250000 -0.365539
O14   O     O_3   0.528330 0.808660 0.750000 -0.365539
V1    V     V_3+5 0.196830 0.260900 0.250000 1.401348
V2    V     V_3+5 0.803170 0.739100 0.750000 1.401348
O15   O     O_R   0.808420 0.155070 0.163920 -0.543296
O16   O     O_R   0.191580 0.844930 0.836080 -0.543296
C5    C     C_R   0.977507 0.132716 0.135051 0.676636
C6    C     C_R   0.022493 0.867284 0.864949 0.676636
O17   O     O_R   0.808420 0.155080 0.336070 -0.537368
O18   O     O_R   0.191580 0.844920 0.663930 -0.537368
C7    C     C_R   0.977257 0.133052 0.364629 0.698524
C8    C     C_R   0.022743 0.866948 0.635370 0.698524
V3    V     V_3+5 0.696830 0.239130 0.250000 1.408662
V4    V     V_3+5 0.303170 0.760870 0.750000 1.408661
O19   O     O_3   0.971850 0.308690 0.250010 -0.372225
O20   O     O_3   0.028150 0.691310 0.749990 -0.372225
H1    H     H_    0.289077 0.849213 0.267819 0.114792
H2    H     H_    0.710923 0.150787 0.732181 0.114792
C9    C     C_R   0.826326 0.173797 0.528444 -0.141584
C10   C     C_R   0.173674 0.826203 0.471556 -0.141584
C11   C     C_R   0.753722 0.195955 0.606625 -0.123668
C12   C     C_R   0.246278 0.804045 0.393375 -0.123668
C13   C     C_R   0.766159 0.132949 0.671354 -0.120515
C14   C     C_R   0.233841 0.867051 0.328646 -0.120515
C15   C     C_R   0.851246 0.047283 0.658407 -0.131347
C16   C     C_R   0.148753 0.952717 0.341593 -0.131347
C17   C     C_R   0.924265 0.022220 0.579403 0.069629
C18   C     C_R   0.075735 0.977780 0.420597 0.069629
C19   C     C_R   0.911570 0.086875 0.512978 0.069528
C20   C     C_R   0.088429 0.913125 0.487022 0.069528
C21   C     C_R   0.012646 0.935273 0.566488 -0.186945
C22   C     C_R   0.987354 0.064727 0.433512 -0.186945
H3    H     H_    0.816001 0.226019 0.480761 0.108243
H4    H     H_    0.183999 0.773981 0.519239 0.108243
H5    H     H_    0.688796 0.262716 0.617153 0.119584
H6    H     H_    0.311204 0.737284 0.382847 0.119584
H7    H     H_    0.860530 0.001581 0.711314 0.106024
H8    H     H_    0.139470 0.998419 0.288685 0.106024
C23   C     C_R   0.179657 0.973603 0.968431 -0.156079
C24   C     C_R   0.820343 0.026397 0.031568 -0.156079
H9    H     H_    0.320580 0.954234 0.945256 0.116090
H10   H     H_    0.679420 0.045766 0.054744 0.116090
C25   C     C_R   0.168523 0.037032 0.033756 -0.156255
C26   C     C_R   0.831477 0.962968 0.966244 -0.156255
H11   H     H_    0.301426 0.064736 0.058714 0.118531
H12   H     H_    0.698574 0.935264 0.941285 0.118531
C27   C     C_R   0.988705 0.064340 0.066253 -0.045397
C28   C     C_R   0.011295 0.935660 0.933747 -0.045396
C29   C     C_R   0.321356 0.478269 0.464709 -0.157255
C30   C     C_R   0.678644 0.521731 0.535291 -0.157255
H13   H     H_    0.181265 0.462747 0.438458 0.117430
H14   H     H_    0.818735 0.537253 0.561542 0.117430
C31   C     C_R   0.332528 0.542066 0.529731 -0.159869
C32   C     C_R   0.667472 0.457934 0.470269 -0.159869
H15   H     H_    0.200518 0.573907 0.551380 0.116504
H16   H     H_    0.799482 0.426093 0.448620 0.116504
C33   C     C_R   0.511309 0.564626 0.566007 -0.046962
C34   C     C_R   0.488690 0.435374 0.433993 -0.046962
C35   C     C_R   0.320499 0.474740 0.032538 -0.157633
C36   C     C_R   0.679501 0.525259 0.967462 -0.157633
H17   H     H_    0.179712 0.456312 0.056524 0.116746
H18   H     H_    0.820288 0.543688 0.943476 0.116746
C37   C     C_R   0.331603 0.538315 0.967300 -0.152454
C38   C     C_R   0.668397 0.461684 0.032700 -0.152454
H19   H     H_    0.198823 0.567076 0.943200 0.118750
H20   H     H_    0.801177 0.432924 0.056800 0.118750
C39   C     C_R   0.511258 0.564446 0.933827 -0.046580
C40   C     C_R   0.488742 0.435553 0.066173 -0.046579

loop_
_geom_bond_atom_site_label_1
_geom_bond_atom_site_label_2
_ccdc_geom_bond_type
C7    C22   S    
C30   H14   S    
C8    C21   S    
C23   C25   A    
O13   V3    S    
O4    C2    A    
V1    O19   S    
C13   C15   A    
C3    C40   S    
O9    V1    S    
C9    C11   A    
C36   H18   S    
O3    C1    A    
C11   H5    S    
C35   C40   A    
C12   H6    S    
O12   V4    S    
C26   H12   S    
O9    C5    A    
C31   H15   S    
O7    C3    A    
O5    C7    A    
O7    V1    S    
O6    C8    A    
O8    V2    S    
C37   C39   A    
C9    H3    S    
C31   C33   A    
O14   V4    S    
V4    O20   S    
C38   C40   A    
C14   C16   A    
C2    O12   A    
C15   C17   A    
C16   C18   A    
C4    C39   S    
C36   C39   A    
C18   C20   A    
O11   V3    S    
C1    C34   S    
O17   V3    S    
C11   C13   A    
C25   H11   S    
H1    C14   S    
H2    C13   S    
C38   H20   S    
O8    C4    A    
C37   H19   S    
C1    O11   A    
C29   H13   S    
C30   C33   A    
O15   V3    S    
C29   C34   A    
C24   C26   A    
C32   C34   A    
C35   H17   S    
C23   C28   A    
O10   V2    S    
O1    V3    S    
C24   C27   A    
O3    V1    S    
C17   C19   A    
C15   H7    S    
O18   V4    S    
C23   H9    S    
O16   C6    A    
O1    C3    A    
C10   C12   A    
C9    C19   A    
C10   H4    S    
V2    O20   S    
C19   C22   A    
C20   C21   A    
O16   V4    S    
C25   C27   A    
C36   C38   A    
O5    V1    S    
O17   C7    A    
O6    V2    S    
O10   C6    A    
O18   C8    A    
O2    V4    S    
C26   C28   A    
O15   C5    A    
V3    O19   S    
C16   H8    S    
C12   C14   A    
C10   C20   A    
C30   C32   A    
C17   C21   A    
C29   C31   A    
C5    C27   S    
C2    C33   S    
O13   V1    S    
C24   H10   S    
O14   V2    S    
O2    C4    A    
O4    V2    S    
C6    C28   S    
C32   H16   S    
C35   C37   A    
C18   C22   A    
