data_mof_unit_41592.cif
_audit_creation_date              2012-12-11T15:25:36-0500
_audit_creation_method            fapswitch 2.2
_symmetry_space_group_name_H-M    P1
_symmetry_Int_Tables_number       1
_space_group_crystal_system       triclinic
_cell_length_a                    24.452197
_cell_length_b                    17.159107
_cell_length_c                    15.669601
_cell_angle_alpha                 90.074401
_cell_angle_beta                  50.549987
_cell_angle_gamma                 90.080198
_cell_volume                      5076.77755794

loop_
_atom_site_label
_atom_site_type_symbol
_atom_type_description
_atom_site_fract_x
_atom_site_fract_y
_atom_site_fract_z
_atom_type_partial_charge
C1    C     C_R   0.351250 0.143176 0.759698 0.489248
C2    C     C_R   0.670118 0.905552 0.192968 0.450002
C3    C     C_R   0.648854 0.143206 0.240092 0.491070
C4    C     C_R   0.329744 0.906013 0.807136 0.447882
C5    C     C_R   0.851556 0.643490 0.758947 0.488106
C6    C     C_R   0.170214 0.405926 0.192906 0.448242
C7    C     C_R   0.148854 0.643189 0.240393 0.488830
C8    C     C_R   0.829765 0.406141 0.807248 0.451292
C9    C     C_2   0.635608 0.257786 0.151607 -0.122743
C10   C     C_2   0.297332 0.866322 0.990495 -0.088289
C11   C     C_2   0.364213 0.257626 0.849029 -0.126578
C12   C     C_2   0.702535 0.865374 0.009982 -0.081838
C13   C     C_2   0.136082 0.757584 0.151060 -0.116203
C14   C     C_2   0.797389 0.365997 0.990324 -0.090378
C15   C     C_2   0.864599 0.757784 0.848514 -0.129432
C16   C     C_2   0.202653 0.365719 0.009700 -0.087068
C17   C     C_2   0.683759 0.304791 0.140033 -0.097114
C18   C     C_2   0.230178 0.848039 0.037245 -0.071811
C19   C     C_2   0.316438 0.304804 0.860029 -0.095206
C20   C     C_2   0.769223 0.846069 0.964526 -0.063626
C21   C     C_2   0.183815 0.804947 0.140134 -0.096850
C22   C     C_2   0.730319 0.347484 0.036785 -0.070483
C23   C     C_2   0.816677 0.804988 0.860067 -0.094886
C24   C     C_2   0.269748 0.347495 0.963256 -0.071358
C25   C     C_R   0.614174 0.094262 0.595383 0.434539
C26   C     C_R   0.408233 0.854531 0.411967 0.480223
C27   C     C_R   0.386471 0.095092 0.404002 0.432379
C28   C     C_R   0.591757 0.854299 0.587480 0.482573
C29   C     C_R   0.113520 0.595162 0.596054 0.432556
C30   C     C_R   0.908342 0.354680 0.411635 0.475347
C31   C     C_R   0.886251 0.596102 0.404679 0.436581
C32   C     C_R   0.091847 0.354689 0.587991 0.479190
C33   C     C_R   0.690010 0.098055 0.413939 0.461579
C34   C     C_R   0.330534 0.861621 0.595640 0.404593
C35   C     C_R   0.310150 0.098226 0.585527 0.468554
C36   C     C_R   0.669590 0.861927 0.403843 0.389945
C37   C     C_R   0.189871 0.598221 0.414534 0.469458
C38   C     C_R   0.831042 0.361049 0.595377 0.404131
C39   C     C_R   0.810012 0.598202 0.586363 0.474885
C40   C     C_R   0.169509 0.361715 0.404314 0.404196
C41   C     C_R   0.554433 0.142957 0.248934 -0.139348
C42   C     C_R   0.419539 0.899449 0.807320 -0.031376
C43   C     C_R   0.445403 0.142824 0.751651 -0.141564
C44   C     C_R   0.580264 0.898916 0.192924 -0.028298
C45   C     C_R   0.054784 0.642833 0.248334 -0.133017
C46   C     C_R   0.919631 0.399230 0.807193 -0.034654
C47   C     C_R   0.945460 0.642892 0.751476 -0.142859
C48   C     C_R   0.080358 0.398997 0.192833 -0.033554
C49   C     C_R   0.388182 0.186619 0.783188 -0.066995
C50   C     C_R   0.652123 0.884819 0.128820 -0.096056
C51   C     C_R   0.611622 0.186812 0.217481 -0.069093
C52   C     C_R   0.347564 0.885802 0.871629 -0.094708
C53   C     C_R   0.888453 0.686866 0.782574 -0.066692
C54   C     C_R   0.152337 0.385356 0.128537 -0.093505
C55   C     C_R   0.112049 0.686607 0.216858 -0.070367
C56   C     C_R   0.847661 0.385599 0.871518 -0.095856
C57   C     C_R   0.682977 0.112815 0.508633 -0.116626
C58   C     C_R   0.356780 0.811388 0.507464 -0.116137
C59   C     C_R   0.317992 0.113987 0.490417 -0.116865
C60   C     C_R   0.643468 0.811491 0.491581 -0.106309
C61   C     C_R   0.182038 0.613989 0.509673 -0.117137
C62   C     C_R   0.857264 0.311037 0.506888 -0.114173
C63   C     C_R   0.817784 0.614741 0.491784 -0.114408
C64   C     C_R   0.143377 0.311575 0.492472 -0.116235
C65   C     C_R   0.191456 0.124824 0.558483 0.477573
C66   C     C_R   0.738475 0.712231 0.379416 0.448932
C67   C     C_R   0.810664 0.123875 0.438546 0.464553
C68   C     C_R   0.264236 0.709364 0.620476 0.444528
C69   C     C_R   0.691614 0.625118 0.557641 0.476186
C70   C     C_R   0.236162 0.209785 0.379604 0.446474
C71   C     C_R   0.308611 0.624487 0.441555 0.476743
C72   C     C_R   0.766162 0.207080 0.619056 0.440072
C73   C     C_R   0.644612 0.678800 0.566450 0.430410
C74   C     C_R   0.287784 0.182773 0.383029 0.433460
C75   C     C_R   0.355655 0.679041 0.431294 0.430465
C76   C     C_R   0.714357 0.179456 0.616177 0.436071
C77   C     C_R   0.144552 0.179391 0.568648 0.431206
C78   C     C_R   0.788827 0.687356 0.386647 0.441154
C79   C     C_R   0.857045 0.179024 0.429219 0.431435
C80   C     C_R   0.212485 0.682505 0.617136 0.435350
C81   C     C_R   0.672767 0.732581 0.479907 -0.356283
C82   C     C_R   0.265593 0.139656 0.477603 -0.357489
C83   C     C_R   0.328087 0.732038 0.518562 -0.360892
C84   C     C_R   0.736198 0.137084 0.521011 -0.347550
C85   C     C_R   0.172255 0.232418 0.481452 -0.361279
C86   C     C_R   0.765634 0.641743 0.479582 -0.355476
C87   C     C_R   0.829272 0.231232 0.517265 -0.360500
C88   C     C_R   0.234515 0.639435 0.522518 -0.357494
H1    H     H_    0.516039 0.158151 0.238765 0.208403
H2    H     H_    0.446313 0.907670 0.840898 0.215556
H3    H     H_    0.483790 0.157967 0.761952 0.207352
H4    H     H_    0.553554 0.907035 0.159264 0.215123
H5    H     H_    0.016558 0.658124 0.237880 0.212521
H6    H     H_    0.946438 0.407270 0.840732 0.216207
H7    H     H_    0.983720 0.658020 0.762028 0.208661
H8    H     H_    0.053530 0.406761 0.159316 0.215261
H9    H     H_    0.212386 0.850040 0.989565 0.191948
H10   H     H_    0.697184 0.300195 0.193912 0.174921
H11   H     H_    0.785829 0.846302 0.013938 0.186985
H12   H     H_    0.303461 0.300540 0.805556 0.175950
H13   H     H_    0.712746 0.349224 0.988741 0.191700
H14   H     H_    0.196938 0.800713 0.194408 0.176291
H15   H     H_    0.287295 0.349390 0.011296 0.190932
H16   H     H_    0.804073 0.801578 0.805068 0.174956
H17   H     H_    0.317071 0.857674 0.035338 0.179565
H18   H     H_    0.620926 0.264978 0.099496 0.180033
H19   H     H_    0.683485 0.858343 0.963896 0.178089
H20   H     H_    0.378521 0.264674 0.901671 0.178992
H21   H     H_    0.816998 0.357611 0.035395 0.179206
H22   H     H_    0.121663 0.764604 0.098582 0.179771
H23   H     H_    0.183088 0.357134 0.964570 0.179536
H24   H     H_    0.878718 0.764327 0.901465 0.177482
N1    N     N_R   0.388930 0.078160 0.705470 -0.079986
N2    N     N_R   0.611070 0.921840 0.294530 -0.113138
N3    N     N_R   0.611070 0.078160 0.294530 -0.080022
N4    N     N_R   0.388930 0.921840 0.705470 -0.113110
N5    N     N_R   0.888930 0.578160 0.705470 -0.079312
N6    N     N_R   0.111070 0.421840 0.294530 -0.112820
N7    N     N_R   0.111070 0.578160 0.294530 -0.079894
N8    N     N_R   0.888930 0.421840 0.705470 -0.113074
N9    N     N_R   0.580500 0.077840 0.556650 -0.140772
N10   N     N_R   0.419500 0.922160 0.443350 -0.122821
N11   N     N_R   0.419500 0.077840 0.443350 -0.141015
N12   N     N_R   0.580500 0.922160 0.556650 -0.121691
N13   N     N_R   0.080500 0.577840 0.556650 -0.140509
N14   N     N_R   0.919500 0.422160 0.443350 -0.124356
N15   N     N_R   0.919500 0.577840 0.443350 -0.139462
N16   N     N_R   0.080500 0.422160 0.556650 -0.122630
N17   N     N_R   0.626210 0.077590 0.443410 -0.140480
N18   N     N_R   0.373790 0.922410 0.556590 -0.125435
N19   N     N_R   0.373790 0.077590 0.556590 -0.140419
N20   N     N_R   0.626210 0.922410 0.443410 -0.124534
N21   N     N_R   0.126210 0.577590 0.443410 -0.140066
N22   N     N_R   0.873790 0.422410 0.556590 -0.125442
N23   N     N_R   0.873790 0.577590 0.556590 -0.140684
N24   N     N_R   0.126210 0.422410 0.443410 -0.125444
N25   N     N_R   0.554800 0.077270 0.294580 -0.070152
N26   N     N_R   0.445200 0.922730 0.705420 -0.089422
N27   N     N_R   0.445200 0.077270 0.705420 -0.070252
N28   N     N_R   0.554800 0.922730 0.294580 -0.089735
N29   N     N_R   0.054800 0.577270 0.294580 -0.071358
N30   N     N_R   0.945200 0.422730 0.705420 -0.089556
N31   N     N_R   0.945200 0.577270 0.705420 -0.069763
N32   N     N_R   0.054800 0.422730 0.294580 -0.090002
Ni1   Ni    Ni4+2 0.382710 0.000000 0.629850 0.322114
Ni2   Ni    Ni4+2 0.617290 0.000000 0.370150 0.321710
Ni3   Ni    Ni4+2 0.882710 0.500000 0.629850 0.321650
Ni4   Ni    Ni4+2 0.117290 0.500000 0.370150 0.322186
Ni5   Ni    Ni4+2 0.513020 0.000000 0.629850 0.267232
Ni6   Ni    Ni4+2 0.486980 0.000000 0.370150 0.267477
Ni7   Ni    Ni4+2 0.013020 0.500000 0.629850 0.266575
Ni8   Ni    Ni4+2 0.986980 0.500000 0.370150 0.266266
Cl1   Cl    Cl    0.259658 0.153463 0.837170 -0.534796
Cl2   Cl    Cl    0.746433 0.961581 0.137400 -0.468701
Cl3   Cl    Cl    0.740971 0.152150 0.157883 -0.530713
Cl4   Cl    Cl    0.253700 0.962016 0.861475 -0.471261
Cl5   Cl    Cl    0.760382 0.655167 0.833564 -0.539038
Cl6   Cl    Cl    0.246241 0.462237 0.138322 -0.473308
Cl7   Cl    Cl    0.240408 0.653655 0.163263 -0.535990
Cl8   Cl    Cl    0.753915 0.462796 0.862232 -0.477217
Cl9   Cl    Cl    0.588310 0.046658 0.715831 -0.548025
Cl10  Cl    Cl    0.428456 0.840913 0.283617 -0.518630
Cl11  Cl    Cl    0.412258 0.048141 0.283109 -0.549429
Cl12  Cl    Cl    0.570432 0.839395 0.716374 -0.521508
Cl13  Cl    Cl    0.087606 0.548284 0.716960 -0.550919
Cl14  Cl    Cl    0.927422 0.342525 0.283898 -0.520222
Cl15  Cl    Cl    0.912338 0.553066 0.281434 -0.555991
Cl16  Cl    Cl    0.071480 0.341261 0.716438 -0.519166
Cl17  Cl    Cl    0.770084 0.069137 0.288906 -0.361983
Cl18  Cl    Cl    0.239607 0.875640 0.704497 -0.460908
Cl19  Cl    Cl    0.229403 0.067380 0.708496 -0.358025
Cl20  Cl    Cl    0.760314 0.876811 0.294669 -0.460473
Cl21  Cl    Cl    0.270589 0.567339 0.291566 -0.358938
Cl22  Cl    Cl    0.740290 0.373218 0.706483 -0.461839
Cl23  Cl    Cl    0.729624 0.565117 0.708147 -0.360477
Cl24  Cl    Cl    0.260356 0.375745 0.294954 -0.462385
O1    O     O_3   0.164124 0.054898 0.615399 -0.542759
C89   C     C_3   0.195931 0.991638 0.539895 0.272860
H25   H     H_    0.246246 0.975211 0.522217 0.153225
H26   H     H_    0.207357 0.005858 0.460321 0.057523
C90   C     C_3   0.145949 0.921638 0.590402 -0.193849
H27   H     H_    0.134142 0.904876 0.669070 0.289485
H28   H     H_    0.095381 0.937758 0.608841 0.206301
C91   C     C_3   0.178561 0.852210 0.511288 -0.921128
H29   H     H_    0.191680 0.868117 0.431427 0.262483
H30   H     H_    0.140205 0.803189 0.547836 0.281517
H31   H     H_    0.227496 0.832749 0.495829 0.286353
O2    O     O_3   0.755949 0.719022 0.276365 -0.549536
C92   C     C_3   0.701774 0.686821 0.278544 0.253449
H32   H     H_    0.655792 0.727209 0.321311 0.096712
H33   H     H_    0.683889 0.629088 0.321057 0.071499
C93   C     C_3   0.730324 0.675009 0.160002 -0.336917
H34   H     H_    0.752910 0.730609 0.114152 0.220913
H35   H     H_    0.773272 0.630741 0.118502 0.232911
C94   C     C_3   0.672160 0.648383 0.156634 -0.781631
H36   H     H_    0.648474 0.592759 0.202473 0.264049
H37   H     H_    0.695010 0.638988 0.069572 0.316851
H38   H     H_    0.630140 0.693487 0.193659 0.273025
O3    O     O_3   0.839977 0.058231 0.371714 -0.535737
C95   C     C_3   0.812395 0.988692 0.435026 0.358213
H39   H     H_    0.830897 0.939669 0.376148 0.208966
H40   H     H_    0.753572 0.986386 0.491698 0.106473
C96   C     C_3   0.840006 0.974986 0.498563 -0.451771
H41   H     H_    0.898837 0.977176 0.440159 0.255958
H42   H     H_    0.819980 0.021329 0.561692 0.188685
C97   C     C_3   0.815755 0.895985 0.556614 -0.842548
H43   H     H_    0.756978 0.892956 0.616182 0.292954
H44   H     H_    0.835938 0.887778 0.602544 0.258901
H45   H     H_    0.836502 0.848154 0.495248 0.275743
O4    O     O_3   0.249025 0.718330 0.721658 -0.548014
C98   C     C_3   0.304484 0.687061 0.716692 0.247771
H46   H     H_    0.352229 0.724931 0.665658 0.095005
H47   H     H_    0.318511 0.626961 0.681391 0.076531
C99   C     C_3   0.280358 0.683169 0.833475 -0.340998
H48   H     H_    0.261007 0.741338 0.872541 0.219623
H49   H     H_    0.235957 0.640951 0.883530 0.234882
C100  C     C_3   0.340694 0.658777 0.832575 -0.768804
H50   H     H_    0.360966 0.600394 0.794002 0.267801
H51   H     H_    0.321167 0.656046 0.918641 0.315945
H52   H     H_    0.384549 0.701900 0.786036 0.270905
O5    O     O_3   0.664750 0.555025 0.614110 -0.543352
C101  C     C_3   0.697420 0.492071 0.538170 0.269988
H53   H     H_    0.748042 0.476727 0.520118 0.150620
H54   H     H_    0.708444 0.506056 0.458842 0.058424
C102  C     C_3   0.648510 0.421162 0.588502 -0.193850
H55   H     H_    0.636761 0.405069 0.667331 0.288815
H56   H     H_    0.597800 0.435926 0.606624 0.206391
C103  C     C_3   0.682302 0.351698 0.509527 -0.919467
H57   H     H_    0.695583 0.366986 0.429376 0.263016
H58   H     H_    0.644605 0.302053 0.545874 0.280780
H59   H     H_    0.731286 0.333419 0.494704 0.287067
O6    O     O_3   0.251378 0.218332 0.278396 -0.547793
C104  C     C_3   0.196019 0.186464 0.283391 0.245938
H60   H     H_    0.148036 0.223891 0.334793 0.094326
H61   H     H_    0.182443 0.126270 0.318261 0.076197
C105  C     C_3   0.219989 0.182637 0.166695 -0.338694
H62   H     H_    0.238703 0.241022 0.128189 0.219248
H63   H     H_    0.264785 0.141002 0.116130 0.235094
C106  C     C_3   0.159763 0.157277 0.167676 -0.770899
H64   H     H_    0.140134 0.098650 0.205666 0.266656
H65   H     H_    0.179161 0.154674 0.081674 0.317083
H66   H     H_    0.115488 0.199804 0.214790 0.270715
O7    O     O_3   0.335741 0.554448 0.384810 -0.543307
C107  C     C_3   0.303656 0.491328 0.460456 0.273232
H67   H     H_    0.253421 0.474857 0.477804 0.153229
H68   H     H_    0.292013 0.505730 0.540184 0.058088
C108  C     C_3   0.353503 0.421290 0.410387 -0.195180
H69   H     H_    0.365359 0.404193 0.331743 0.289100
H70   H     H_    0.404060 0.437525 0.392012 0.206818
C109  C     C_3   0.320688 0.352125 0.489862 -0.921811
H71   H     H_    0.307564 0.368364 0.569671 0.262857
H72   H     H_    0.358920 0.303060 0.453619 0.281344
H73   H     H_    0.271725 0.332584 0.505358 0.286101
O8    O     O_3   0.751321 0.215867 0.719988 -0.546976
C110  C     C_3   0.807706 0.186113 0.713715 0.245937
H74   H     H_    0.855016 0.224494 0.661701 0.093790
H75   H     H_    0.822127 0.125927 0.678826 0.072151
C111  C     C_3   0.784734 0.183286 0.829822 -0.336560
H76   H     H_    0.764831 0.241443 0.868712 0.219387
H77   H     H_    0.741000 0.140447 0.880794 0.235546
C112  C     C_3   0.846133 0.160823 0.827198 -0.764875
H78   H     H_    0.866935 0.102467 0.788870 0.268048
H79   H     H_    0.827539 0.158930 0.912753 0.317358
H80   H     H_    0.889369 0.204565 0.779573 0.268735
Cl25  Cl    Cl    0.552469 0.664530 0.666055 -0.521495
Cl26  Cl    Cl    0.374358 0.217570 0.277198 -0.504181
Cl27  Cl    Cl    0.447767 0.665972 0.329260 -0.510184
Cl28  Cl    Cl    0.628052 0.214695 0.722374 -0.500296
Cl29  Cl    Cl    0.052427 0.166248 0.670475 -0.520266
Cl30  Cl    Cl    0.874334 0.727924 0.289628 -0.500942
Cl31  Cl    Cl    0.949276 0.168206 0.325289 -0.515784
Cl32  Cl    Cl    0.126042 0.717554 0.722948 -0.502694

loop_
_geom_bond_atom_site_label_1
_geom_bond_atom_site_label_2
_ccdc_geom_bond_type
C68   C80   A    
C14   H21   S    
C14   C56   S    
C96   H41   S    
C30   N14   A    
C74   Cl26  S    
C78   Cl30  S    
C66   O2    S    
C42   N26   A    
C18   C21   S    
C35   Cl19  S    
C41   H1    S    
C106  H64   S    
C9    C51   S    
C59   C82   S    
C31   N15   A    
C72   C76   A    
C33   Cl17  S    
C76   C84   A    
C103  H58   S    
C89   H25   S    
N27   Ni5   S    
C46   N30   A    
C39   N23   A    
C90   H27   S    
C91   H29   S    
C100  H52   S    
C48   C54   A    
N22   Ni3   S    
C40   N24   A    
N3    Ni2   S    
C11   C19   D    
O5    C101  S    
C22   H13   S    
C25   C57   A    
N29   Ni8   S    
C4    C52   A    
N6    Ni4   S    
N10   Ni6   S    
C5    C53   A    
N5    N31   A    
N15   N23   A    
N6    N32   A    
N16   N24   A    
N4    Ni1   S    
C97   H44   S    
C89   H26   S    
C108  C109  S    
C104  C105  S    
C7    Cl7   S    
C33   N17   A    
O7    C107  S    
C15   C53   S    
C103  H59   S    
C47   N31   A    
C102  C103  S    
C107  H67   S    
C48   N32   A    
C35   C59   A    
C29   Cl13  S    
C92   H33   S    
C44   C50   A    
N13   Ni7   S    
C27   Cl11  S    
N14   Ni8   S    
C26   C58   A    
N3    N25   A    
C105  H63   S    
C95   H39   S    
C1    C49   A    
C70   C74   A    
C33   C57   A    
N1    N27   A    
C69   C73   A    
C18   H9    S    
N2    N28   A    
C106  H66   S    
C2    C50   A    
C17   H10   S    
C41   N25   A    
C44   H4    S    
C47   C53   A    
C94   H38   S    
C110  H75   S    
C78   C86   A    
C109  H73   S    
C15   C23   D    
N21   Ni4   S    
N11   Ni6   S    
C68   O4    S    
O3    C95   S    
C16   C24   D    
N18   Ni1   S    
C45   N29   A    
C8    C56   A    
C92   H32   S    
C1    N1    A    
C6    C54   A    
N14   N22   A    
C79   C87   A    
C103  H57   S    
C6    Cl6   S    
N12   N20   A    
N4    N26   A    
C108  H70   S    
N26   Ni5   S    
C37   Cl21  S    
C66   C78   A    
C96   C97   S    
C29   C61   A    
C36   Cl20  S    
C65   C77   A    
C8    N8    A    
C93   C94   S    
C7    N7    A    
C67   C79   A    
C32   C64   A    
C39   Cl23  S    
C105  H62   S    
N2    Ni2   S    
C25   Cl9   S    
C40   Cl24  S    
C3    C51   A    
C99   H48   S    
C43   C49   A    
C34   N18   A    
C75   Cl27  S    
C94   H36   S    
C101  C102  S    
N7    Ni4   S    
C38   C62   A    
N10   N18   A    
C26   Cl10  S    
C43   H3    S    
C1    Cl1   S    
C5    N5    A    
O2    C92   S    
C80   Cl32  S    
C93   H35   S    
N30   Ni7   S    
C92   C93   S    
C111  H77   S    
O8    C110  S    
C11   C49   S    
C61   C88   S    
C31   C63   A    
N15   Ni8   S    
C12   H19   S    
N12   Ni5   S    
C96   H42   S    
C60   C81   S    
N16   Ni7   S    
C37   C61   A    
C98   H46   S    
C46   H6    S    
C20   C23   S    
C19   H12   S    
N19   Ni1   S    
C12   C20   D    
C3    Cl3   S    
C102  H55   S    
C57   C84   S    
C13   C21   D    
C106  H65   S    
N8    N30   A    
C43   N27   A    
C104  H61   S    
C13   H22   S    
C30   Cl14  S    
N17   Ni2   S    
N24   Ni4   S    
C28   C60   A    
C73   Cl25  S    
C73   C81   A    
C7    C55   A    
C9    C17   D    
C4    Cl4   S    
C31   Cl15  S    
C45   H5    S    
O1    C89   S    
C5    Cl5   S    
C30   C62   A    
C63   C86   S    
N7    N29   A    
C77   Cl29  S    
N25   Ni6   S    
C111  C112  S    
C13   C55   S    
C21   H14   S    
C72   O8    S    
C110  H74   S    
C8    Cl8   S    
N28   Ni6   S    
C64   C85   S    
C75   C83   A    
C72   C87   A    
C28   Cl12  S    
C112  H79   S    
C29   N13   A    
C104  H60   S    
C90   C91   S    
N13   N21   A    
C98   H47   S    
C107  H68   S    
C9    H18   S    
C101  H54   S    
C27   N11   A    
C48   H8    S    
C36   N20   A    
N11   N19   A    
C97   H43   S    
C68   C83   A    
C19   C24   S    
C15   H24   S    
C4    N4    A    
N9    N17   A    
C36   C60   A    
C99   C100  S    
C34   Cl18  S    
C10   C52   S    
C112  H80   S    
C12   C50   S    
C108  H69   S    
C28   N12   A    
C41   C51   A    
C65   O1    S    
C100  H51   S    
C39   C63   A    
C62   C87   S    
N23   Ni3   S    
C17   C22   S    
C91   H30   S    
C91   H31   S    
N5    Ni3   S    
C24   H15   S    
N20   Ni2   S    
C93   H34   S    
C32   N16   A    
C16   C54   S    
C76   Cl28  S    
C111  H76   S    
C109  H71   S    
C35   N19   A    
C71   O7    S    
C80   C88   A    
C107  C108  S    
C3    N3    A    
C58   C83   S    
C66   C81   A    
C71   C75   A    
C2    N2    A    
C97   H45   S    
C14   C22   D    
C65   C82   A    
C112  H78   S    
C20   H11   S    
C25   N9    A    
C10   C18   D    
C95   C96   S    
C40   C64   A    
C100  H50   S    
N31   Ni7   S    
O6    C104  S    
C102  H56   S    
N9    Ni5   S    
C44   N28   A    
C67   O3    S    
C99   H49   S    
C38   N22   A    
C23   H16   S    
N1    Ni1   S    
C101  H53   S    
C37   N21   A    
C79   Cl31  S    
C110  C111  S    
C89   C90   S    
C38   Cl22  S    
C77   C85   A    
C71   C88   A    
C67   C84   A    
C98   C99   S    
C45   C55   A    
N8    Ni3   S    
C95   H40   S    
O4    C98   S    
C2    Cl2   S    
C46   C56   A    
C11   H20   S    
C34   C58   A    
C32   Cl16  S    
C47   H7    S    
C90   H28   S    
C10   H17   S    
C27   C59   A    
C26   N10   A    
C69   O5    S    
C42   H2    S    
C70   C85   A    
C109  H72   S    
C6    N6    A    
C105  C106  S    
C74   C82   A    
C69   C86   A    
N32   Ni8   S    
C16   H23   S    
C42   C52   A    
C94   H37   S    
C70   O6    S    
