data_mof_unit_50902.cif
_audit_creation_date              2012-12-10T19:13:23-0500
_audit_creation_method            fapswitch 2.2
_symmetry_space_group_name_H-M    P1
_symmetry_Int_Tables_number       1
_space_group_crystal_system       triclinic
_cell_length_a                    9.696303
_cell_length_b                    10.641525
_cell_length_c                    16.602489
_cell_angle_alpha                 89.380012
_cell_angle_beta                  85.661947
_cell_angle_gamma                 89.662496
_cell_volume                      1708.07216296

loop_
_atom_site_label
_atom_site_type_symbol
_atom_type_description
_atom_site_fract_x
_atom_site_fract_y
_atom_site_fract_z
_atom_type_partial_charge
C1    C     C_R   0.499192 0.742717 0.501184 0.951337
C2    C     C_R   0.344182 0.491414 0.786184 -0.241962
C3    C     C_R   0.430446 0.304163 0.168441 0.504832
C4    C     C_R   0.421511 0.361816 0.243683 -0.275066
C5    C     C_R   0.647150 0.456432 0.213988 -0.283644
C6    C     C_R   0.654081 0.404102 0.137389 0.612791
C7    C     C_R   0.542912 0.333236 0.113465 -0.121761
C8    C     C_2   0.443829 0.402001 0.992802 0.454196
C9    C     C_2   0.528438 0.320501 0.027456 0.556380
C10   C     C_R   0.527856 0.440406 0.265758 -0.192351
C11   C     C_3   0.442490 0.931119 0.423625 0.429358
C12   C     C_R   0.481612 0.499593 0.653858 0.902178
C13   C     C_3   0.433509 0.074637 0.426842 -0.472096
C14   C     C_3   0.401265 0.927402 0.578983 0.993702
C15   C     C_3   0.647091 0.928461 0.508668 -0.570394
C16   C     C_3   0.496323 0.879807 0.503744 -0.045610
C17   C     C_3   0.500998 0.121920 0.502423 0.034048
C18   C     C_3   0.419201 0.074536 0.580665 -0.543619
C19   C     C_3   0.650813 0.070589 0.501937 -0.444404
C20   C     C_3   0.920426 0.622675 0.470299 0.488674
C21   C     C_3   0.083257 0.625811 0.474817 -0.421125
C22   C     C_3   0.908524 0.479703 0.584058 0.338075
C23   C     C_R   0.500542 0.257756 0.500822 0.889591
C24   C     C_3   0.926727 0.399281 0.450293 -0.365627
C25   C     C_3   0.072353 0.474136 0.583295 0.426776
C26   C     C_3   0.089247 0.407606 0.444962 -0.270057
C27   C     C_R   0.518471 0.491237 0.346860 0.933588
C28   C     C_R   0.472429 0.485388 0.741418 -0.033988
C29   C     C_R   0.592278 0.456835 0.780280 -0.171110
C30   C     C_R   0.583298 0.429266 0.862090 -0.130500
C31   C     C_R   0.453897 0.426865 0.905891 0.078143
C32   C     C_R   0.334890 0.461716 0.868184 -0.098769
H1    H     H_    0.693024 0.453612 0.747451 0.197559
H2    H     H_    0.515911 0.903489 0.371917 0.078623
H3    H     H_    0.486798 0.115484 0.370853 0.127965
H4    H     H_    0.323371 0.105300 0.428713 0.209038
H5    H     H_    0.322374 0.128965 0.591500 0.183892
H6    H     H_    0.689201 0.897542 0.566254 0.253167
H7    H     H_    0.716199 0.890195 0.458462 0.194164
H8    H     H_    0.711307 0.099218 0.445008 0.192407
H9    H     H_    0.330841 0.345736 0.284592 0.168105
H10   H     H_    0.704537 0.108497 0.553410 0.203513
H11   H     H_    0.479513 0.099465 0.632654 0.177387
H12   H     H_    0.874008 0.699065 0.509160 0.126231
H13   H     H_    0.136795 0.652560 0.415615 0.243689
H14   H     H_    0.109277 0.699815 0.517666 0.197846
H15   H     H_    0.107504 0.546743 0.625114 0.119868
H16   H     H_    0.894116 0.305546 0.475007 0.148445
H17   H     H_    0.731936 0.513335 0.231604 0.211152
H18   H     H_    0.889570 0.404636 0.388638 0.226596
H19   H     H_    0.127891 0.430901 0.381794 0.180289
H20   H     H_    0.133312 0.313718 0.458249 0.195828
H21   H     H_    0.862273 0.390939 0.609212 0.118995
H22   H     H_    0.234948 0.465081 0.902028 0.193455
H23   H     H_    0.251412 0.517645 0.757713 0.159990
H24   H     H_    0.678028 0.411622 0.890941 0.209295
N1    N     N_3   0.861190 0.500250 0.501720 -0.111990
N2    N     N_3   0.138550 0.503270 0.501080 -0.111047
O1    O     O_R   0.383960 0.685090 0.500020 -0.544755
O2    O     O_R   0.616040 0.685320 0.499960 -0.618154
O3    O     O_R   0.370240 0.499890 0.615830 -0.603717
O4    O     O_R   0.602330 0.500120 0.615770 -0.575711
O5    O     O_R   0.383960 0.314680 0.500040 -0.607387
O6    O     O_R   0.616040 0.314910 0.499980 -0.655225
O7    O     O_R   0.397670 0.499880 0.384230 -0.625298
O8    O     O_R   0.629760 0.500110 0.384170 -0.584836
Zn1   Zn    Zn3+2 0.345040 0.499850 0.500040 0.983065
Zn2   Zn    Zn3+2 0.654960 0.500150 0.499960 0.987672
F1    F     F_    0.763442 0.431319 0.084222 -0.622697
F2    F     F_    0.314088 0.882625 0.409527 -0.661708
O9    O     O_3   0.264455 0.879922 0.569926 -0.593416
C33   C     C_3   0.152095 0.963284 0.585576 -0.323381
H25   H     H_    0.148225 0.034352 0.536321 0.193007
H26   H     H_    0.152565 0.007292 0.645828 0.149629
H27   H     H_    0.055021 0.908596 0.585967 0.186958
O10   O     O_3   0.455494 0.872162 0.648747 -0.658258
C34   C     C_3   0.364905 0.883913 0.718948 -0.257316
H28   H     H_    0.272546 0.823388 0.715696 0.198235
H29   H     H_    0.334528 0.983200 0.730806 0.144715
H30   H     H_    0.419724 0.850198 0.771386 0.205983
O11   O     O_3   0.883654 0.642136 0.389843 -0.583761
C35   C     C_3   0.915720 0.764889 0.360748 -0.323199
H31   H     H_    0.003176 0.759465 0.313754 0.213265
H32   H     H_    0.943822 0.832248 0.407696 0.140345
H33   H     H_    0.825004 0.803573 0.331731 0.183735
F3    F     F_    0.859526 0.575213 0.634910 -0.705566
O12   O     O_3   0.118386 0.353754 0.608208 -0.612055
C36   C     C_3   0.080728 0.328488 0.690785 -0.386048
H34   H     H_    0.043912 0.411816 0.726491 0.170302
H35   H     H_    0.171732 0.288334 0.718799 0.204555
H36   H     H_    0.998049 0.256524 0.695511 0.179822
F4    F     F_    0.616021 0.242672 0.983470 -0.663910
O13   O     O_3   0.321692 0.234008 0.143710 -0.569802
C37   C     C_3   0.307850 0.123277 0.191159 -0.236045
H37   H     H_    0.262895 0.143740 0.253256 0.148885
H38   H     H_    0.408217 0.072164 0.193463 0.154610
H39   H     H_    0.235331 0.059598 0.163206 0.211086
F5    F     F_    0.354582 0.474824 0.039775 -0.649673

loop_
_geom_bond_atom_site_label_1
_geom_bond_atom_site_label_2
_ccdc_geom_bond_type
C10   C27   S    
C6    F1    S    
O8    Zn2   S    
O12   C36   S    
O13   C37   S    
C14   O9    S    
C14   C18   S    
C22   N1    S    
O11   C35   S    
C11   F2    S    
C34   H28   S    
C15   C19   S    
C17   C23   S    
C12   C28   S    
O6    Zn2   S    
C28   C29   A    
C18   H5    S    
C24   C26   S    
C13   H3    S    
C3    C7    A    
C2    H23   S    
C1    O1    A    
C30   C31   A    
C4    H9    S    
C15   C16   S    
C29   H1    S    
C25   O12   S    
C2    C32   A    
C8    F5    S    
O1    Zn1   S    
C8    C9    D    
O7    Zn1   S    
C22   C25   S    
C25   H15   S    
C19   H10   S    
C23   O5    A    
C20   O11   S    
C5    H17   S    
C33   H27   S    
C9    F4    S    
C32   H22   S    
C20   H12   S    
C22   H21   S    
C21   H13   S    
C34   H29   S    
C24   H18   S    
O5    Zn1   S    
C24   H16   S    
O10   C34   S    
C13   H4    S    
C33   H26   S    
C1    O2    A    
C24   N1    S    
C37   H39   S    
C30   H24   S    
C14   O10   S    
C15   H6    S    
C29   C30   A    
C27   O7    A    
C26   H20   S    
C12   O4    A    
C11   C16   S    
O3    Zn1   S    
C31   C32   A    
C36   H36   S    
C17   C18   S    
C3    O13   S    
C1    C16   S    
C36   H34   S    
C37   H38   S    
C26   N2    S    
C15   H7    S    
C23   O6    A    
C36   H35   S    
C35   H32   S    
C14   C16   S    
C25   N2    S    
N1    Zn2   S    
C4    C10   A    
C3    C4    A    
C21   H14   S    
C34   H30   S    
C7    C9    S    
C8    C31   S    
C11   H2    S    
C33   H25   S    
C6    C7    A    
O4    Zn2   S    
C35   H33   S    
C13   C17   S    
C5    C10   A    
C27   O8    A    
C18   H11   S    
C12   O3    A    
C11   C13   S    
C5    C6    A    
C17   C19   S    
C22   F3    S    
C37   H37   S    
C19   H8    S    
N2    Zn1   S    
C21   N2    S    
O9    C33   S    
C20   C21   S    
O2    Zn2   S    
C35   H31   S    
C2    C28   A    
C20   N1    S    
C26   H19   S    
