data_mof_unit_50135.cif
_audit_creation_date              2012-12-10T17:52:25-0500
_audit_creation_method            fapswitch 2.2
_symmetry_space_group_name_H-M    P1
_symmetry_Int_Tables_number       1
_space_group_crystal_system       triclinic
_cell_length_a                    19.037433
_cell_length_b                    10.758844
_cell_length_c                    9.85503
_cell_angle_alpha                 88.949805
_cell_angle_beta                  89.243807
_cell_angle_gamma                 91.948636
_cell_volume                      2016.81575856

loop_
_atom_site_label
_atom_site_type_symbol
_atom_type_description
_atom_site_fract_x
_atom_site_fract_y
_atom_site_fract_z
_atom_type_partial_charge
C1    C     C_R   0.504814 0.260071 0.501891 0.891933
C2    C     C_R   0.850590 0.406730 0.492128 -0.167589
C3    C     C_R   0.515925 0.104111 0.759509 -0.171938
C4    C     C_R   0.364669 0.499508 0.501392 0.852047
C5    C     C_R   0.491058 0.040428 0.876034 -0.254826
C6    C     C_R   0.450138 0.931693 0.864038 -0.172960
C7    C     C_R   0.440212 0.879904 0.736287 0.584204
C8    C     C_R   0.475544 0.934558 0.620618 -0.103522
C9    C     C_R   0.501756 0.056791 0.629027 0.023859
C10   C     C_R   0.508987 0.126635 0.506006 -0.170959
C11   C     C_R   0.507005 0.067708 0.381097 -0.325273
C12   C     C_R   0.287456 0.483619 0.502974 -0.157238
C13   C     C_R   0.500337 0.940220 0.375330 0.524003
C14   C     C_R   0.485214 0.872507 0.496604 -0.232786
C15   C     C_R   0.407414 0.336711 0.145580 -0.288109
C16   C     C_R   0.493496 0.739455 0.498818 0.956047
C17   C     C_R   0.362038 0.255936 0.078170 -0.244641
C18   C     C_R   0.361044 0.253381 0.937522 0.632193
C19   C     C_R   0.407732 0.335937 0.864514 -0.320966
C20   C     C_R   0.454283 0.419295 0.930295 0.105097
C21   C     C_R   0.454185 0.419647 0.074970 0.184983
C22   C     C_R   0.544768 0.574940 0.069045 -0.099999
C23   C     C_R   0.926513 0.389350 0.485090 0.364891
C24   C     C_R   0.544371 0.575744 0.925547 -0.104113
C25   C     C_R   0.634770 0.496759 0.498999 0.910968
C26   C     C_R   0.245853 0.476408 0.624590 -0.051864
C27   C     C_R   0.174784 0.440419 0.615721 -0.110783
C28   C     C_R   0.144025 0.417020 0.490310 0.031100
C29   C     C_R   0.184275 0.429189 0.371343 -0.144084
C30   C     C_R   0.255085 0.461657 0.377608 -0.178533
C31   C     C_2   0.272929 0.506815 0.761692 0.360093
C32   C     C_3   0.328305 0.828530 0.679717 -0.364302
C33   C     C_3   0.567156 0.896424 0.188732 -0.324845
C34   C     C_R   0.068322 0.393520 0.483477 0.267080
C35   C     C_3   0.315173 0.164730 0.738194 -0.304063
C36   C     C_3   0.835450 0.361874 0.828336 -0.250557
C37   C     C_3   0.824326 0.238413 0.231444 -0.333439
C38   C     C_R   0.818314 0.440561 0.615576 0.493751
C39   C     C_R   0.748207 0.474987 0.615692 -0.299794
C40   C     C_R   0.709603 0.472172 0.496139 -0.178424
C41   C     C_R   0.741140 0.434833 0.375141 -0.290547
C42   C     C_R   0.810761 0.399822 0.372695 0.500364
H1    H     H_    0.547077 0.188493 0.773741 0.180380
H2    H     H_    0.161062 0.413009 0.273172 0.174321
H3    H     H_    0.284721 0.467096 0.283009 0.187783
H4    H     H_    0.724295 0.505479 0.709153 0.178131
H5    H     H_    0.711674 0.430628 0.281919 0.183955
H6    H     H_    0.510409 0.120264 0.286262 0.184995
H7    H     H_    0.318958 0.566506 0.774776 0.161028
H8    H     H_    0.334891 0.889463 0.587464 0.158325
H9    H     H_    0.302487 0.879196 0.762964 0.200321
H10   H     H_    0.292566 0.750166 0.651625 0.184378
H11   H     H_    0.565542 0.851114 0.088671 0.185795
H12   H     H_    0.500558 0.078869 0.975132 0.173854
H13   H     H_    0.607032 0.849733 0.251551 0.160877
H14   H     H_    0.583464 0.995258 0.168649 0.143671
H15   H     H_    0.367018 0.134591 0.701155 0.160557
H16   H     H_    0.301443 0.254914 0.691569 0.175401
H17   H     H_    0.275038 0.095216 0.704816 0.188688
H18   H     H_    0.836814 0.266975 0.785178 0.142459
H19   H     H_    0.782168 0.379559 0.869601 0.150913
H20   H     H_    0.872279 0.364659 0.914608 0.223008
H21   H     H_    0.766706 0.221195 0.220581 0.152140
H22   H     H_    0.844692 0.179696 0.315438 0.165679
H23   H     H_    0.425745 0.887993 0.953444 0.191304
H24   H     H_    0.850094 0.209717 0.135947 0.193926
H25   H     H_    0.581874 0.634525 0.121345 0.139362
H26   H     H_    0.403974 0.330658 0.253186 0.228726
H27   H     H_    0.326858 0.193877 0.136854 0.178188
H28   H     H_    0.407233 0.334469 0.757492 0.209220
H29   H     H_    0.142328 0.435587 0.706975 0.197618
H30   H     H_    0.580523 0.637551 0.869136 0.138132
N1    N     N_R   0.033185 0.428159 0.371120 -0.160643
N2    N     N_R   0.963477 0.426329 0.372093 -0.100847
N3    N     N_R   0.961682 0.349711 0.595491 -0.124865
N4    N     N_R   0.031426 0.352115 0.594881 -0.166606
N5    N     N_R   0.499340 0.498800 0.142780 -0.106321
N6    N     N_R   0.499320 0.498720 0.857170 -0.101142
O1    O     O_R   0.500000 0.316780 0.614690 -0.653739
O2    O     O_3   0.392510 0.781150 0.724030 -0.606285
O3    O     O_3   0.499719 0.883690 0.249936 -0.581838
O4    O     O_3   0.312721 0.168963 0.881027 -0.589978
O5    O     O_3   0.857484 0.454326 0.732079 -0.581842
O6    O     O_3   0.840755 0.365500 0.251054 -0.586531
O7    O     O_R   0.499990 0.316750 0.385360 -0.645096
O8    O     O_R   0.398140 0.500000 0.614700 -0.635051
O9    O     O_R   0.398130 0.499970 0.385370 -0.623855
O10   O     O_R   0.500010 0.683250 0.614640 -0.586437
O11   O     O_R   0.500000 0.683220 0.385310 -0.565784
O12   O     O_R   0.601870 0.500030 0.614630 -0.628225
O13   O     O_R   0.601860 0.500000 0.385300 -0.628264
O14   O     O_2   0.242532 0.466792 0.864199 -0.558966
Zn1   Zn    Zn3+2 0.500000 0.500020 0.653130 0.946745
Zn2   Zn    Zn3+2 0.500000 0.499980 0.346870 0.955974

loop_
_geom_bond_atom_site_label_1
_geom_bond_atom_site_label_2
_ccdc_geom_bond_type
C33   H13   S    
C17   H27   S    
C38   O5    S    
C41   C42   A    
C30   H3    S    
C19   C20   A    
C7    C8    A    
C4    O9    A    
C3    H1    S    
C25   O12   A    
C35   H16   S    
C28   C29   A    
O1    Zn1   S    
C25   C40   S    
C5    C6    A    
C4    O8    A    
C36   O5    S    
O9    Zn2   S    
C13   O3    S    
N5    Zn2   S    
C35   H17   S    
C18   C19   A    
N1    N2    A    
O11   Zn2   S    
C32   H10   S    
C6    H23   S    
C8    C9    A    
C37   O6    S    
C4    C12   S    
C9    C10   A    
C33   H14   S    
C28   C34   S    
C16   O11   A    
C13   C14   A    
C33   H11   S    
C11   H6    S    
C31   H7    S    
C36   H20   S    
C37   H21   S    
C35   O4    S    
C1    O7    A    
C25   O13   A    
C5    H12   S    
C42   O6    S    
C39   C40   A    
C3    C5    A    
C12   C26   A    
N3    N4    A    
C32   H9    S    
C29   C30   A    
C3    C9    A    
O8    Zn1   S    
C32   O2    S    
O7    Zn2   S    
C2    C38   A    
C15   C21   A    
C37   H24   S    
C17   C18   A    
C41   H5    S    
C32   H8    S    
C39   H4    S    
C24   N6    A    
C40   C41   A    
C29   H2    S    
C26   C27   A    
C1    O1    A    
C14   C16   S    
C23   N2    A    
C36   H19   S    
C2    C23   S    
C37   H22   S    
C27   H29   S    
C24   H30   S    
O12   Zn1   S    
C15   C17   A    
O10   Zn1   S    
C8    C14   A    
C12   C30   A    
C1    C10   S    
C22   N5    A    
C23   N3    A    
C36   H18   S    
C6    C7    A    
C20   N6    A    
C35   H15   S    
O13   Zn2   S    
C11   C13   A    
C38   C39   A    
C2    C42   A    
C15   H26   S    
C18   O4    S    
C22   C24   A    
C22   H25   S    
C10   C11   A    
C34   N1    A    
C26   C31   S    
C20   C21   A    
C31   O14   D    
C21   N5    A    
C27   C28   A    
C16   O10   A    
C19   H28   S    
N6    Zn1   S    
C33   O3    S    
C34   N4    A    
C7    O2    S    
