data_mof_unit_35701.cif
_audit_creation_date              2012-12-10T17:23:44-0500
_audit_creation_method            fapswitch 2.2
_symmetry_space_group_name_H-M    P1
_symmetry_Int_Tables_number       1
_space_group_crystal_system       triclinic
_cell_length_a                    9.597003
_cell_length_b                    10.796885
_cell_length_c                    17.347866
_cell_angle_alpha                 92.812494
_cell_angle_beta                  86.602972
_cell_angle_gamma                 89.710488
_cell_volume                      1792.1696322

loop_
_atom_site_label
_atom_site_type_symbol
_atom_type_description
_atom_site_fract_x
_atom_site_fract_y
_atom_site_fract_z
_atom_type_partial_charge
C1    C     C_R   0.499096 0.737577 0.504652 0.794864
C2    C     C_R   0.373730 0.428457 0.772513 -0.267141
C3    C     C_R   0.403206 0.486027 0.146583 0.440926
C4    C     C_R   0.403668 0.474359 0.226478 -0.292711
C5    C     C_R   0.643990 0.543730 0.225674 -0.200531
C6    C     C_R   0.644115 0.556523 0.146307 -0.228428
C7    C     C_R   0.524884 0.527006 0.106730 0.104935
C8    C     C_2   0.493444 0.448238 0.975248 -0.090166
C9    C     C_2   0.528722 0.541736 0.023533 -0.139957
C10   C     C_R   0.523251 0.503819 0.266203 -0.068471
C11   C     C_R   0.299190 0.881742 0.610424 -0.276119
C12   C     C_R   0.482803 0.499594 0.649525 0.825812
C13   C     C_R   0.195151 0.950126 0.653208 -0.180982
C14   C     C_R   0.188612 0.078616 0.649883 0.518341
C15   C     C_R   0.295695 0.138899 0.607773 -0.303987
C16   C     C_R   0.396393 0.071049 0.559556 0.052230
C17   C     C_R   0.396790 0.940108 0.560078 0.102440
C18   C     C_R   0.498089 0.872106 0.512063 -0.088017
C19   C     C_R   0.601584 0.933266 0.468950 -0.200426
C20   C     C_R   0.602281 0.060789 0.469129 -0.214789
C21   C     C_R   0.498880 0.130034 0.511969 -0.068214
C22   C     C_R   0.867993 0.334280 0.397360 -0.149656
C23   C     C_R   0.499650 0.263121 0.504129 0.775756
C24   C     C_R   0.946099 0.253312 0.347155 -0.213245
C25   C     C_R   0.089725 0.253678 0.346941 -0.213304
C26   C     C_R   0.156103 0.334844 0.397037 -0.154118
C27   C     C_R   0.080725 0.418771 0.449400 0.199647
C28   C     C_R   0.931136 0.418649 0.449498 0.206898
C29   C     C_R   0.920418 0.576561 0.548600 -0.072684
C30   C     C_R   0.068268 0.576374 0.548654 -0.069537
C31   C     C_R   0.517363 0.499775 0.350299 0.801787
C32   C     C_R   0.478755 0.493750 0.733209 -0.140525
C33   C     C_R   0.590481 0.542687 0.772720 -0.295443
C34   C     C_R   0.598896 0.526929 0.851692 0.389098
C35   C     C_R   0.491203 0.463301 0.891675 -0.007734
C36   C     C_R   0.379184 0.413050 0.851697 0.434397
Cu1   Cu    Cu3+1 0.359340 0.500010 0.500010 0.918578
Cu2   Cu    Cu3+1 0.640660 0.499990 0.499990 0.923531
H1    H     H_    0.673233 0.590969 0.741576 0.150771
H2    H     H_    0.737505 0.588779 0.115526 0.165218
H3    H     H_    0.680221 0.881831 0.432871 0.161440
H4    H     H_    0.302573 0.783300 0.618301 0.164908
H5    H     H_    0.118816 0.902613 0.689301 0.151840
H6    H     H_    0.299523 0.238436 0.614686 0.161044
H7    H     H_    0.681380 0.105441 0.433194 0.149301
H8    H     H_    0.860586 0.639322 0.588468 0.137342
H9    H     H_    0.758702 0.326436 0.392634 0.195426
H10   H     H_    0.894477 0.189871 0.308030 0.150829
H11   H     H_    0.309910 0.443830 0.257631 0.150024
H12   H     H_    0.150510 0.190649 0.307576 0.154316
H13   H     H_    0.266559 0.327714 0.391958 0.199487
H14   H     H_    0.118585 0.638772 0.588709 0.132046
H15   H     H_    0.736846 0.567846 0.255499 0.167890
H16   H     H_    0.562437 0.630306 0.002327 0.188257
H17   H     H_    0.290526 0.385654 0.741420 0.174062
H18   H     H_    0.457314 0.361338 0.998157 0.193326
N1    N     N_R   0.852190 0.498790 0.499250 -0.202696
N2    N     N_R   0.148060 0.498710 0.499220 -0.203146
O1    O     O_R   0.381190 0.680360 0.500010 -0.574053
O2    O     O_R   0.618760 0.680340 0.500000 -0.577586
O3    O     O_R   0.367440 0.500030 0.613600 -0.606196
O4    O     O_R   0.605010 0.500010 0.613590 -0.586772
O5    O     O_R   0.381240 0.319660 0.500000 -0.612145
O6    O     O_R   0.618810 0.319640 0.499990 -0.598980
O7    O     O_R   0.394990 0.499990 0.386410 -0.592763
O8    O     O_R   0.632560 0.499970 0.386400 -0.600535
O9    O     O_3   0.081640 0.142394 0.692808 -0.580558
C37   C     C_3   0.024131 0.236715 0.649999 0.048369
H19   H     H_    0.022484 0.209961 0.587051 0.147886
H20   H     H_    0.084555 0.323591 0.657590 0.150097
C38   C     C_3   0.874014 0.262762 0.679865 -0.751304
H21   H     H_    0.869903 0.292271 0.742140 0.250375
H22   H     H_    0.829241 0.337905 0.647259 0.224722
H23   H     H_    0.810212 0.178052 0.671955 0.250498
O10   O     O_3   0.280177 0.340730 0.888829 -0.578279
C39   C     C_3   0.165845 0.415453 0.918390 0.104758
H24   H     H_    0.189293 0.516552 0.925375 0.137379
H25   H     H_    0.134230 0.384704 0.976979 0.200933
C40   C     C_3   0.042692 0.396291 0.867789 -0.810311
H26   H     H_    0.021465 0.295729 0.858952 0.282166
H27   H     H_    0.948642 0.442343 0.896542 0.244525
H28   H     H_    0.064968 0.436839 0.810845 0.229272
O11   O     O_3   0.284698 0.462198 0.106973 -0.770172
H29   H     H_    0.209167 0.434714 0.143612 0.317791
O12   O     O_3   0.713672 0.568018 0.889806 -0.761917
H30   H     H_    0.778531 0.610483 0.853282 0.318060

loop_
_geom_bond_atom_site_label_1
_geom_bond_atom_site_label_2
_ccdc_geom_bond_type
C8    C9    D    
C31   O8    A    
C16   C21   A    
C19   C20   A    
C39   C40   S    
C8    H18   S    
C28   N1    A    
C1    C18   S    
C33   H1    S    
C5    H15   S    
Cu1   Cu2   S    
C39   H25   S    
C15   H6    S    
C34   C35   A    
C3    C7    A    
C2    H17   S    
C1    O1    A    
C5    C6    A    
C15   C16   A    
C11   H4    S    
C2    C32   A    
C18   C19   A    
C25   H12   S    
C10   C31   S    
Cu2   O8    S    
C16   C17   A    
Cu1   O7    S    
C14   O9    S    
Cu1   N2    S    
C23   O5    A    
C22   H9    S    
C22   C28   A    
C13   C14   A    
C12   C32   S    
Cu1   O5    S    
C33   C34   A    
Cu2   O6    S    
O9    C37   S    
C24   H10   S    
C39   H24   S    
C1    O2    A    
C38   H22   S    
C37   H19   S    
C25   C26   A    
O12   H30   S    
C34   O12   S    
O10   C39   S    
C29   C30   A    
C36   O10   S    
C38   H23   S    
Cu2   N1    S    
C12   O4    A    
O11   H29   S    
C17   C18   A    
C26   C27   A    
C24   C25   A    
Cu1   O1    S    
Cu2   O2    S    
C23   O6    A    
C29   N1    A    
C21   C23   S    
C3    O11   S    
C22   C24   A    
C4    C10   A    
C3    C4    A    
C13   H5    S    
C40   H27   S    
C2    C36   A    
C31   O7    A    
C30   H14   S    
C11   C17   A    
C20   H7    S    
C27   N2    A    
C40   H28   S    
Cu1   O3    S    
C6    C7    A    
C9    H16   S    
C4    H11   S    
C29   H8    S    
C32   C33   A    
C38   H21   S    
C26   H13   S    
C12   O3    A    
C11   C13   A    
C37   C38   S    
C30   N2    A    
C6    H2    S    
C40   H26   S    
C7    C9    S    
C5    C10   A    
C20   C21   A    
C37   H20   S    
C27   C28   A    
C14   C15   A    
C35   C36   A    
C8    C35   S    
C19   H3    S    
Cu2   O4    S    
