data_mof_unit_15089.cif
_audit_creation_date              2012-12-10T17:30:45-0500
_audit_creation_method            fapswitch 2.2
_symmetry_space_group_name_H-M    P1
_symmetry_Int_Tables_number       1
_space_group_crystal_system       triclinic
_cell_length_a                    18.715899
_cell_length_b                    18.712302
_cell_length_c                    60.902059
_cell_angle_alpha                 89.994529
_cell_angle_beta                  90.040579
_cell_angle_gamma                 89.984386
_cell_volume                      21328.9639152

loop_
_atom_site_label
_atom_site_type_symbol
_atom_type_description
_atom_site_fract_x
_atom_site_fract_y
_atom_site_fract_z
_atom_type_partial_charge
C1    C     C_R   0.499692 0.000018 0.190331 0.770154
C2    C     C_R   0.499899 0.010249 0.618918 0.184985
C3    C     C_R   0.994627 0.627146 0.476274 -0.240301
C4    C     C_R   0.627798 0.997362 0.523423 -0.240758
C5    C     C_R   0.369890 0.006119 0.475723 -0.235121
C6    C     C_R   0.991205 0.626853 0.523988 -0.238859
C7    C     C_R   0.009595 0.369984 0.476172 -0.241819
C8    C     C_R   0.639892 0.860086 0.249999 0.827900
C9    C     C_R   0.360109 0.139915 0.750001 0.827730
C10   C     C_R   0.139914 0.639907 0.250001 0.828015
C11   C     C_R   0.860088 0.360092 0.749999 0.827326
C12   C     C_R   0.360079 0.139896 0.250001 0.827787
C13   C     C_R   0.011218 0.499684 0.380902 0.184730
C14   C     C_R   0.639920 0.860103 0.749999 0.827957
C15   C     C_R   0.860097 0.360094 0.249998 0.827856
C16   C     C_R   0.139901 0.639907 0.750001 0.827858
C17   C     C_R   0.639913 0.139908 0.750001 0.827927
C18   C     C_R   0.360087 0.860091 0.249999 0.827822
C19   C     C_R   0.139892 0.360085 0.749999 0.828112
C20   C     C_R   0.860110 0.639916 0.250001 0.827682
C21   C     C_R   0.360098 0.860093 0.749998 0.827871
C22   C     C_R   0.639901 0.139908 0.250001 0.828103
C23   C     C_R   0.860079 0.639897 0.750001 0.828264
C24   C     C_R   0.993489 0.497429 0.619180 0.178539
C25   C     C_R   0.139919 0.360102 0.249999 0.827784
C26   C     C_R   0.231927 0.870664 0.220702 -0.129799
C27   C     C_R   0.768084 0.129326 0.779295 -0.130974
C28   C     C_R   0.129323 0.232110 0.220662 -0.130847
C29   C     C_R   0.870666 0.767881 0.779340 -0.130131
C30   C     C_R   0.767836 0.129444 0.220646 -0.130423
C31   C     C_R   0.232156 0.870565 0.779352 -0.131059
C32   C     C_R   0.870599 0.768064 0.220710 -0.130868
C33   C     C_R   0.129414 0.231944 0.779293 -0.129701
C34   C     C_R   0.232148 0.129355 0.779328 -0.130375
C35   C     C_R   0.996764 0.493663 0.880672 0.178128
C36   C     C_R   0.767861 0.870654 0.220674 -0.131755
C37   C     C_R   0.129500 0.767902 0.779350 -0.132216
C38   C     C_R   0.870489 0.232106 0.220647 -0.130871
C39   C     C_R   0.768086 0.870629 0.779303 -0.130580
C40   C     C_R   0.231903 0.129358 0.220701 -0.131619
C41   C     C_R   0.870749 0.231964 0.779290 -0.131417
C42   C     C_R   0.129264 0.768026 0.220706 -0.130406
C43   C     C_R   0.731912 0.370684 0.720709 -0.131301
C44   C     C_R   0.268077 0.629331 0.279298 -0.130622
C45   C     C_R   0.629330 0.732120 0.720660 -0.130775
C46   C     C_R   0.999497 0.505789 0.119031 0.185062
C47   C     C_R   0.370671 0.267885 0.279338 -0.130382
C48   C     C_R   0.267848 0.629427 0.720652 -0.131817
C49   C     C_R   0.732163 0.370559 0.279355 -0.130830
C50   C     C_R   0.370596 0.268059 0.720709 -0.130936
C51   C     C_R   0.629408 0.731939 0.279290 -0.129709
C52   C     C_R   0.732143 0.629350 0.279325 -0.130814
C53   C     C_R   0.267849 0.370637 0.720669 -0.130291
C54   C     C_R   0.629507 0.267896 0.279353 -0.132086
C55   C     C_R   0.370491 0.732101 0.720648 -0.130748
C56   C     C_R   0.268093 0.370636 0.279299 -0.130991
C57   C     C_R   0.509226 0.999895 0.880934 0.184458
C58   C     C_R   0.731921 0.629382 0.720693 -0.130054
C59   C     C_R   0.370743 0.731969 0.279293 -0.131176
C60   C     C_R   0.629259 0.268034 0.720709 -0.130400
C61   C     C_R   0.173234 0.877886 0.207247 -0.165710
C62   C     C_R   0.826708 0.122174 0.792781 -0.165954
C63   C     C_R   0.122038 0.173415 0.207225 -0.167570
C64   C     C_R   0.878012 0.826634 0.792751 -0.168192
C65   C     C_R   0.826567 0.122141 0.207235 -0.168394
C66   C     C_R   0.173483 0.877807 0.792790 -0.167905
C67   C     C_R   0.877768 0.826740 0.207254 -0.166550
C68   C     C_R   0.492201 0.001648 0.119130 0.178609
C69   C     C_R   0.122171 0.173197 0.792715 -0.166133
C70   C     C_R   0.173405 0.122015 0.792728 -0.167738
C71   C     C_R   0.826533 0.877921 0.207241 -0.168490
C72   C     C_R   0.122282 0.826602 0.792789 -0.168700
C73   C     C_R   0.877767 0.173347 0.207235 -0.168038
C74   C     C_R   0.826833 0.877875 0.792736 -0.166535
C75   C     C_R   0.173216 0.122174 0.207240 -0.166039
C76   C     C_R   0.877918 0.173369 0.792779 -0.165974
C77   C     C_R   0.122024 0.826690 0.207249 -0.166345
C78   C     C_R   0.673263 0.377861 0.707234 -0.165864
C79   C     C_R   0.498424 0.995929 0.452534 -0.129579
C80   C     C_R   0.326717 0.622164 0.292777 -0.165601
C81   C     C_R   0.621997 0.673380 0.707244 -0.167859
C82   C     C_R   0.378004 0.326626 0.292754 -0.168397
C83   C     C_R   0.326542 0.622162 0.707224 -0.168544
C84   C     C_R   0.673468 0.377823 0.292783 -0.168005
C85   C     C_R   0.377804 0.326771 0.707270 -0.166605
C86   C     C_R   0.622180 0.673207 0.292720 -0.165464
C87   C     C_R   0.673415 0.622025 0.292732 -0.167633
C88   C     C_R   0.326564 0.377948 0.707255 -0.167996
C89   C     C_R   0.622268 0.326618 0.292783 -0.168900
C90   C     C_R   0.499433 0.006201 0.546677 -0.141548
C91   C     C_R   0.377737 0.673373 0.707221 -0.167762
C92   C     C_R   0.326826 0.377868 0.292739 -0.166528
C93   C     C_R   0.673181 0.622144 0.707256 -0.166129
C94   C     C_R   0.377927 0.673359 0.292775 -0.165376
C95   C     C_R   0.622059 0.326660 0.707233 -0.166094
C96   C     C_R   0.188918 0.757343 0.235581 0.077719
C97   C     C_R   0.811088 0.242654 0.764419 0.077916
C98   C     C_R   0.242609 0.188959 0.235579 0.077562
C99   C     C_R   0.757386 0.811037 0.764422 0.077410
C100  C     C_R   0.810981 0.242697 0.235560 0.077618
C101  C     C_R   0.006894 0.498966 0.453033 -0.142082
C102  C     C_R   0.189014 0.757306 0.764440 0.078000
C103  C     C_R   0.757278 0.811060 0.235572 0.078184
C104  C     C_R   0.242727 0.188943 0.764428 0.077843
C105  C     C_R   0.188984 0.242628 0.764416 0.077262
C106  C     C_R   0.811022 0.757375 0.235584 0.077511
C107  C     C_R   0.242726 0.811017 0.764439 0.077877
C108  C     C_R   0.757269 0.188986 0.235560 0.077786
C109  C     C_R   0.811067 0.757292 0.764434 0.077875
C110  C     C_R   0.188929 0.242705 0.235566 0.077954
C111  C     C_R   0.757377 0.188949 0.764421 0.077754
C112  C     C_R   0.500192 0.999944 0.809667 0.767834
C113  C     C_R   0.995253 0.498219 0.547135 -0.136058
C114  C     C_R   0.242628 0.811048 0.235579 0.077530
C115  C     C_R   0.688917 0.257347 0.735581 0.077766
C116  C     C_R   0.311087 0.742652 0.264419 0.077802
C117  C     C_R   0.742614 0.688968 0.735577 0.077325
C118  C     C_R   0.257386 0.311035 0.264421 0.077395
C119  C     C_R   0.310980 0.742695 0.735560 0.077672
C120  C     C_R   0.689015 0.257306 0.264440 0.077958
C121  C     C_R   0.257275 0.311054 0.735571 0.077920
C122  C     C_R   0.742727 0.688944 0.264428 0.077877
C123  C     C_R   0.688984 0.742629 0.264416 0.077177
C124  C     C_R   0.997984 0.494931 0.952616 -0.135919
C125  C     C_R   0.311021 0.257372 0.735583 0.077487
C126  C     C_R   0.742727 0.311018 0.264440 0.077823
C127  C     C_R   0.257272 0.688980 0.735562 0.078004
C128  C     C_R   0.311066 0.257290 0.264434 0.077905
C129  C     C_R   0.688931 0.742710 0.735565 0.077895
C130  C     C_R   0.257377 0.688948 0.264421 0.077729
C131  C     C_R   0.742624 0.311055 0.735581 0.077730
C132  C     C_R   0.196161 0.696151 0.250000 -0.203951
C133  C     C_R   0.803845 0.303845 0.749998 -0.203916
C134  C     C_R   0.303817 0.196126 0.250007 -0.204317
C135  C     C_R   0.998749 0.502819 0.046769 -0.142924
C136  C     C_R   0.696177 0.803869 0.749994 -0.204231
C137  C     C_R   0.803845 0.303848 0.249998 -0.204731
C138  C     C_R   0.196149 0.696155 0.750001 -0.204821
C139  C     C_R   0.696135 0.803830 0.249996 -0.204278
C140  C     C_R   0.303874 0.196177 0.750006 -0.204120
C141  C     C_R   0.196132 0.303826 0.749994 -0.204199
C142  C     C_R   0.803876 0.696179 0.250007 -0.204236
C143  C     C_R   0.303845 0.803847 0.749998 -0.204805
C144  C     C_R   0.696148 0.196159 0.250000 -0.204803
C145  C     C_R   0.803821 0.696132 0.750005 -0.204291
C146  C     C_R   0.505151 0.000155 0.953078 -0.141382
C147  C     C_R   0.196174 0.303865 0.249995 -0.204335
C148  C     C_R   0.696160 0.196154 0.750001 -0.204116
C149  C     C_R   0.303848 0.803840 0.249997 -0.203867
C150  C     C_R   0.434408 0.984205 0.417740 0.526221
C151  C     C_R   0.562693 0.008887 0.581841 0.534266
C152  C     C_R   0.015851 0.436532 0.417853 0.534034
C153  C     C_R   0.987722 0.560857 0.582423 0.531325
C154  C     C_R   0.560108 0.980123 0.417317 0.527998
C155  C     C_R   0.436875 0.014002 0.581882 0.533885
C156  C     C_R   0.011343 0.562355 0.417951 0.534729
C157  C     C_R   0.495723 0.000325 0.047144 -0.136072
C158  C     C_R   0.989959 0.434788 0.582182 0.531939
C159  C     C_R   0.934554 0.488661 0.917645 0.527911
C160  C     C_R   0.062100 0.504624 0.081907 0.534531
C161  C     C_R   0.509929 0.936875 0.917950 0.533261
C162  C     C_R   0.486133 0.063773 0.082111 0.525874
C163  C     C_R   0.060599 0.488519 0.917318 0.531581
C164  C     C_R   0.936274 0.509085 0.081993 0.534017
C165  C     C_R   0.511902 0.062813 0.917931 0.534574
C166  C     C_R   0.489248 0.937818 0.082412 0.534459
C167  C     C_R   0.560905 0.001716 0.368472 -0.114736
C168  C     C_R   0.432792 0.996450 0.440871 -0.039029
C169  C     C_R   0.435703 0.010031 0.632035 -0.138116
C170  C     C_R   0.006794 0.563979 0.367884 -0.135781
C171  C     C_R   0.990593 0.433057 0.632336 -0.129522
C172  C     C_R   0.432335 0.985599 0.367679 -0.131306
C173  C     C_R   0.564112 0.006116 0.631996 -0.136785
C174  C     C_R   0.010219 0.435501 0.367787 -0.138256
C175  C     C_R   0.005597 0.561578 0.631827 -0.115747
C176  C     C_R   0.060439 0.508662 0.868108 -0.111956
C177  C     C_R   0.935289 0.505829 0.132189 -0.135800
C178  C     C_R   0.509412 0.064171 0.867828 -0.136478
C179  C     C_R   0.564837 0.004732 0.558428 -0.032974
C180  C     C_R   0.506656 0.938081 0.131860 -0.115893
C181  C     C_R   0.932516 0.487975 0.867429 -0.131093
C182  C     C_R   0.063888 0.502063 0.132084 -0.134343
C183  C     C_R   0.504255 0.935768 0.867892 -0.136494
C184  C     C_R   0.487028 0.065942 0.132213 -0.132138
C185  C     C_R   0.563173 0.002616 0.345364 0.075403
C186  C     C_R   0.434936 0.005751 0.655073 0.068615
C187  C     C_R   0.002453 0.564833 0.344833 0.067398
C188  C     C_R   0.991793 0.433536 0.655501 0.068489
C189  C     C_R   0.433063 0.989824 0.344528 0.073369
C190  C     C_R   0.011959 0.433826 0.441243 -0.033385
C191  C     C_R   0.564890 0.002102 0.655042 0.067990
C192  C     C_R   0.005705 0.434815 0.344747 0.068112
C193  C     C_R   0.003520 0.563624 0.654917 0.069505
C194  C     C_R   0.062994 0.505953 0.845079 0.069314
C195  C     C_R   0.934752 0.504117 0.155318 0.066974
C196  C     C_R   0.505127 0.064951 0.844806 0.067191
C197  C     C_R   0.505507 0.936428 0.154951 0.069338
C198  C     C_R   0.933271 0.489897 0.844291 0.068299
C199  C     C_R   0.064780 0.500462 0.155232 0.066537
C200  C     C_R   0.501787 0.934944 0.844857 0.067822
C201  C     C_R   0.988685 0.563566 0.558935 -0.037544
C202  C     C_R   0.488921 0.065883 0.155365 0.070859
C203  C     C_3   0.363985 0.988656 0.330751 -0.395471
C204  C     C_3   0.292826 0.989112 0.343132 -0.874963
C205  C     C_3   0.634555 0.997916 0.668403 -0.401720
C206  C     C_3   0.704939 0.995495 0.655629 -0.870698
C207  C     C_3   0.004270 0.365250 0.331296 -0.399839
C208  C     C_3   0.004027 0.294613 0.343973 -0.874042
C209  C     C_3   0.010455 0.633833 0.667900 -0.402532
C210  C     C_3   0.010453 0.703428 0.654660 -0.858541
C211  C     C_3   0.633418 0.011547 0.332548 -0.398780
C212  C     C_R   0.563473 0.987890 0.440719 -0.041951
C213  C     C_3   0.702698 0.013170 0.345935 -0.861515
C214  C     C_3   0.365312 0.004725 0.668466 -0.400515
C215  C     C_3   0.294810 0.003818 0.655711 -0.874155
C216  C     C_3   0.998199 0.634528 0.331471 -0.401783
C217  C     C_3   0.996345 0.705007 0.344225 -0.866991
C218  C     C_3   0.989662 0.364350 0.669231 -0.397725
C219  C     C_3   0.989281 0.293175 0.656828 -0.873005
C220  C     C_3   0.864316 0.485909 0.830453 -0.394954
C221  C     C_3   0.792967 0.485206 0.842726 -0.875692
C222  C     C_3   0.134458 0.497294 0.168684 -0.401562
C223  C     C_R   0.000034 0.500149 0.190374 0.768857
C224  C     C_R   0.434269 0.010366 0.558466 -0.034138
C225  C     C_3   0.205258 0.496005 0.156098 -0.863651
C226  C     C_3   0.498096 0.865327 0.831492 -0.401037
C227  C     C_3   0.497460 0.794871 0.844262 -0.872782
C228  C     C_3   0.484611 0.134999 0.169014 -0.395982
C229  C     C_3   0.482367 0.205974 0.156538 -0.875353
C230  C     C_3   0.133215 0.514830 0.832237 -0.401681
C231  C     C_3   0.202507 0.515340 0.845623 -0.855169
C232  C     C_3   0.865277 0.504162 0.168854 -0.399928
C233  C     C_3   0.794308 0.504597 0.156335 -0.869852
C234  C     C_3   0.503857 0.134643 0.831403 -0.401082
C235  C     C_R   0.006738 0.564478 0.441337 -0.032775
C236  C     C_3   0.501964 0.205130 0.844149 -0.871933
C237  C     C_3   0.514702 0.866575 0.168004 -0.401223
C238  C     C_3   0.517302 0.796878 0.154854 -0.860724
C239  C     C_R   0.997542 0.432737 0.558878 -0.036351
C240  C     C_R   0.932543 0.497026 0.940892 -0.036500
C241  C     C_R   0.064247 0.501487 0.058492 -0.032838
C242  C     C_R   0.506367 0.934692 0.941358 -0.035092
C243  C     C_R   0.495671 0.065745 0.058864 -0.037297
C244  C     C_R   0.063169 0.488571 0.940820 -0.038228
C245  C     C_R   0.933583 0.507063 0.058564 -0.033964
C246  C     C_R   0.507732 0.065423 0.941308 -0.034410
C247  C     C_R   0.000121 0.499724 0.809626 0.772038
C248  C     C_R   0.490925 0.935070 0.058930 -0.036236
C249  C     C_R   0.367268 0.004640 0.452920 0.201106
C250  C     C_R   0.630593 0.000129 0.546206 0.211811
C251  C     C_R   0.013414 0.367771 0.453388 0.211753
C252  C     C_R   0.983932 0.629734 0.546693 0.202397
C253  C     C_R   0.629583 0.986657 0.452831 0.206335
C254  C     C_R   0.368277 0.012545 0.546281 0.212848
C255  C     C_R   0.001668 0.630226 0.453570 0.211050
C256  C     C_R   0.003924 0.366826 0.546749 0.211819
C257  C     C_R   0.866703 0.503131 0.952957 0.210207
C258  C     C_R   0.999690 0.500095 0.690338 0.770770
C259  C     C_R   0.130049 0.496823 0.046233 0.213427
C260  C     C_R   0.503700 0.868845 0.953588 0.212759
C261  C     C_R   0.501299 0.131588 0.046801 0.210479
C262  C     C_R   0.128919 0.483026 0.953063 0.210300
C263  C     C_R   0.867491 0.510089 0.046368 0.213739
C264  C     C_R   0.507437 0.131481 0.953464 0.213258
C265  C     C_R   0.488670 0.869189 0.046678 0.209164
C266  C     C_R   0.498835 0.997681 0.333629 -0.084785
C267  C     C_R   0.499912 0.001539 0.666356 -0.072823
C268  C     C_R   0.001640 0.499863 0.333525 -0.071677
C269  C     C_R   0.000200 0.500009 0.309655 0.768037
C270  C     C_R   0.997961 0.499163 0.666470 -0.079366
C271  C     C_R   0.998905 0.498118 0.833423 -0.079278
C272  C     C_R   0.999849 0.501157 0.166559 -0.071496
C273  C     C_R   0.501506 0.999951 0.833557 -0.071769
C274  C     C_R   0.497921 0.000751 0.166451 -0.080154
C275  C     C_R   0.933416 0.504090 0.011428 0.029635
C276  C     C_R   0.063053 0.493751 0.987924 0.029988
C277  C     C_R   0.498159 0.935361 0.011863 0.030336
C278  C     C_R   0.502968 0.065381 0.988378 0.028795
C279  C     C_R   0.063214 0.495242 0.011414 0.030347
C280  C     C_R   0.500002 0.000179 0.690301 0.767100
C281  C     C_R   0.933171 0.501592 0.987930 0.029277
C282  C     C_R   0.500419 0.065464 0.011858 0.028148
C283  C     C_R   0.499856 0.935323 0.988392 0.028992
C284  C     C_R   0.434121 0.007601 0.511340 0.029395
C285  C     C_R   0.563828 0.997600 0.487793 0.028515
C286  C     C_R   0.002066 0.433331 0.511812 0.028364
C287  C     C_R   0.998088 0.563430 0.488365 0.030064
C288  C     C_R   0.564057 0.999935 0.511302 0.029749
C289  C     C_R   0.433802 0.004648 0.487851 0.028859
C290  C     C_R   0.995473 0.563214 0.511850 0.028237
C291  C     C_R   0.500098 0.999690 0.309700 0.769718
C292  C     C_R   0.005013 0.433543 0.488318 0.030034
C293  C     C_R   0.998467 0.500888 0.023196 0.074508
C294  C     C_R   0.998061 0.496726 0.976169 0.073981
C295  C     C_R   0.498181 0.000377 0.023604 0.074549
C296  C     C_R   0.502753 0.000293 0.976628 0.075232
C297  C     C_R   0.499207 0.004428 0.523095 0.074839
C298  C     C_R   0.498715 0.999838 0.476072 0.073593
C299  C     C_R   0.997562 0.498241 0.523587 0.075131
C300  C     C_R   0.003554 0.498649 0.476583 0.075141
C301  C     C_R   0.869891 0.509542 0.023535 -0.240980
C302  C     C_R   0.496697 0.987873 0.380827 0.178453
C303  C     C_R   0.126641 0.489342 0.975805 -0.242233
C304  C     C_R   0.496228 0.871657 0.023995 -0.242835
C305  C     C_R   0.505888 0.129067 0.976258 -0.240031
C306  C     C_R   0.126857 0.490673 0.023495 -0.242026
C307  C     C_R   0.869392 0.504280 0.975791 -0.238979
C308  C     C_R   0.500833 0.129255 0.024013 -0.237464
C309  C     C_R   0.498012 0.871586 0.976287 -0.242693
C310  C     C_R   0.370623 0.013504 0.523470 -0.239393
C311  C     C_R   0.627379 0.992598 0.475603 -0.236313
C312  C     C_R   0.004459 0.369559 0.523938 -0.238130
H1    H     H_    0.423862 0.667889 0.303514 0.132639
H2    H     H_    0.576272 0.667703 0.303446 0.132512
H3    H     H_    0.363587 0.036390 0.319863 0.207537
H4    H     H_    0.364784 0.940357 0.320099 0.217660
H5    H     H_    0.706283 0.948191 0.644632 0.266010
H6    H     H_    0.712386 0.045473 0.646060 0.272050
H7    H     H_    0.750197 0.990751 0.667366 0.253238
H8    H     H_    0.637011 0.044957 0.679523 0.213316
H9    H     H_    0.632800 0.949168 0.678813 0.213493
H10   H     H_    0.054523 0.288256 0.353411 0.271323
H11   H     H_    0.957043 0.291944 0.355103 0.264989
H12   H     H_    0.000047 0.249411 0.332157 0.252824
H13   H     H_    0.331980 0.576263 0.696479 0.130767
H14   H     H_    0.955555 0.365450 0.320846 0.211079
H15   H     H_    0.051432 0.364644 0.320213 0.214820
H16   H     H_    0.058536 0.706709 0.644071 0.258549
H17   H     H_    0.961089 0.707638 0.644618 0.279579
H18   H     H_    0.012158 0.749591 0.666132 0.249863
H19   H     H_    0.964748 0.637301 0.679526 0.210824
H20   H     H_    0.060479 0.632239 0.677738 0.212755
H21   H     H_    0.703739 0.060466 0.356935 0.255852
H22   H     H_    0.708662 0.963111 0.355574 0.280359
H23   H     H_    0.749044 0.017670 0.334586 0.250226
H24   H     H_    0.668038 0.423715 0.303531 0.130946
H25   H     H_    0.638210 0.966244 0.320780 0.210083
H26   H     H_    0.630760 0.061849 0.322851 0.211973
H27   H     H_    0.288176 0.054051 0.646215 0.271289
H28   H     H_    0.292549 0.956745 0.644641 0.265915
H29   H     H_    0.249574 0.999702 0.667457 0.253263
H30   H     H_    0.365489 0.956386 0.679068 0.211188
H31   H     H_    0.364578 0.052266 0.679400 0.215017
H32   H     H_    0.949107 0.706618 0.355289 0.265544
H33   H     H_    0.046609 0.712204 0.353741 0.272322
H34   H     H_    0.991654 0.750325 0.332457 0.252648
H35   H     H_    0.576057 0.667930 0.696505 0.131194
H36   H     H_    0.045020 0.636811 0.320263 0.213353
H37   H     H_    0.949202 0.632903 0.321153 0.213294
H38   H     H_    0.940277 0.288248 0.646654 0.274781
H39   H     H_    0.037806 0.288198 0.646474 0.262415
H40   H     H_    0.989830 0.248434 0.668821 0.253250
H41   H     H_    0.037099 0.363392 0.680231 0.208363
H42   H     H_    0.941127 0.365620 0.679753 0.217771
H43   H     H_    0.787918 0.435975 0.852793 0.273753
H44   H     H_    0.787783 0.533524 0.853186 0.262647
H45   H     H_    0.748415 0.485904 0.830652 0.253551
H46   H     H_    0.423945 0.332078 0.303492 0.130754
H47   H     H_    0.862734 0.532875 0.819248 0.207038
H48   H     H_    0.866542 0.436904 0.820107 0.218570
H49   H     H_    0.208156 0.447680 0.145411 0.264449
H50   H     H_    0.211429 0.545803 0.146173 0.271854
H51   H     H_    0.250572 0.493337 0.168034 0.251551
H52   H     H_    0.136132 0.544562 0.179740 0.213082
H53   H     H_    0.133186 0.448660 0.179166 0.212944
H54   H     H_    0.547407 0.788842 0.853945 0.273224
H55   H     H_    0.449997 0.792104 0.855147 0.264185
H56   H     H_    0.494192 0.749556 0.832508 0.252811
H57   H     H_    0.667771 0.423780 0.696497 0.132181
H58   H     H_    0.448965 0.866456 0.821242 0.212773
H59   H     H_    0.544759 0.863609 0.820222 0.213238
H60   H     H_    0.530487 0.211840 0.146054 0.261632
H61   H     H_    0.432996 0.209747 0.146486 0.274637
H62   H     H_    0.482316 0.250847 0.168495 0.253073
H63   H     H_    0.436127 0.132351 0.179536 0.218720
H64   H     H_    0.531958 0.137433 0.180034 0.206268
H65   H     H_    0.205121 0.563314 0.856305 0.257212
H66   H     H_    0.206980 0.465853 0.855603 0.280762
H67   H     H_    0.248906 0.517659 0.834245 0.248981
H68   H     H_    0.332199 0.576255 0.303519 0.132252
H69   H     H_    0.137748 0.469609 0.820414 0.209155
H70   H     H_    0.130837 0.565234 0.822580 0.213155
H71   H     H_    0.789092 0.554443 0.146422 0.271532
H72   H     H_    0.790102 0.456457 0.145649 0.264049
H73   H     H_    0.749220 0.502968 0.168310 0.251973
H74   H     H_    0.864989 0.455927 0.179515 0.210686
H75   H     H_    0.865499 0.551861 0.179738 0.215012
H76   H     H_    0.454560 0.206960 0.855089 0.266815
H77   H     H_    0.551901 0.212182 0.853772 0.271265
H78   H     H_    0.497792 0.250365 0.832391 0.253389
H79   H     H_    0.923852 0.167900 0.803518 0.132181
H80   H     H_    0.551717 0.135806 0.820612 0.215073
H81   H     H_    0.455832 0.134125 0.820656 0.211823
H82   H     H_    0.468158 0.790733 0.144800 0.279698
H83   H     H_    0.565525 0.795271 0.144282 0.258681
H84   H     H_    0.520617 0.750928 0.166366 0.250666
H85   H     H_    0.564500 0.869955 0.177916 0.214345
H86   H     H_    0.468952 0.861643 0.179580 0.210122
H87   H     H_    0.282465 0.010434 0.426674 0.252440
H88   H     H_    0.252615 0.023266 0.454146 0.164166
H89   H     H_    0.717565 0.998490 0.571747 0.265806
H90   H     H_    0.076077 0.832172 0.196516 0.131999
H91   H     H_    0.745293 0.994966 0.544403 0.167627
H92   H     H_    0.020784 0.281010 0.427804 0.265234
H93   H     H_    0.023388 0.253268 0.455124 0.165981
H94   H     H_    0.967093 0.715427 0.571553 0.261307
H95   H     H_    0.953410 0.740202 0.545381 0.165345
H96   H     H_    0.714849 0.970906 0.427234 0.262485
H97   H     H_    0.745724 0.984880 0.454228 0.168931
H98   H     H_    0.281719 0.013908 0.571927 0.265624
H99   H     H_    0.253434 0.013606 0.544629 0.167779
H100  H     H_    0.007151 0.717573 0.428254 0.266858
H101  H     H_    0.832348 0.923797 0.803467 0.131836
H102  H     H_    0.997514 0.744938 0.455502 0.168594
H103  H     H_    0.009883 0.280949 0.572526 0.260097
H104  H     H_    0.018157 0.251741 0.545298 0.169848
H105  H     H_    0.781555 0.513350 0.926814 0.256826
H106  H     H_    0.750385 0.506383 0.954374 0.168909
H107  H     H_    0.218081 0.500038 0.071582 0.265747
H108  H     H_    0.245380 0.497652 0.044097 0.167320
H109  H     H_    0.508649 0.781510 0.928243 0.264594
H110  H     H_    0.526516 0.754347 0.955385 0.165191
H111  H     H_    0.502988 0.217113 0.072642 0.259672
H112  H     H_    0.576121 0.332134 0.696497 0.132019
H113  H     H_    0.167711 0.076262 0.196505 0.132112
H114  H     H_    0.526761 0.245756 0.045796 0.169145
H115  H     H_    0.216230 0.470522 0.927716 0.264704
H116  H     H_    0.241710 0.455786 0.955198 0.168100
H117  H     H_    0.780326 0.512552 0.071958 0.265136
H118  H     H_    0.752475 0.521493 0.044655 0.165985
H119  H     H_    0.509995 0.218081 0.927863 0.265074
H120  H     H_    0.524493 0.246410 0.955012 0.166031
H121  H     H_    0.477314 0.781775 0.071904 0.264690
H122  H     H_    0.464728 0.756736 0.044424 0.170270
H123  H     H_    0.076415 0.832050 0.803538 0.130625
H124  H     H_    0.923646 0.167888 0.196492 0.131001
H125  H     H_    0.167960 0.076080 0.803460 0.131209
H126  H     H_    0.831963 0.923840 0.196502 0.130780
H127  H     H_    0.923663 0.832230 0.196522 0.131723
H128  H     H_    0.076261 0.167693 0.803441 0.132080
H129  H     H_    0.832008 0.076239 0.196491 0.130702
H130  H     H_    0.168054 0.923697 0.803539 0.130904
H131  H     H_    0.076109 0.167975 0.196482 0.131187
H132  H     H_    0.332342 0.423791 0.303469 0.131968
H133  H     H_    0.923953 0.832085 0.803489 0.130826
H134  H     H_    0.167738 0.923808 0.196512 0.132254
H135  H     H_    0.832190 0.076265 0.803523 0.132008
H136  H     H_    0.264756 0.915717 0.217509 0.190015
H137  H     H_    0.735336 0.084185 0.782450 0.189745
H138  H     H_    0.084365 0.265056 0.217405 0.189598
H139  H     H_    0.915550 0.734865 0.782630 0.189651
H140  H     H_    0.734793 0.084598 0.217351 0.189604
H141  H     H_    0.265130 0.915483 0.782616 0.189516
H142  H     H_    0.915652 0.735230 0.217517 0.189731
H143  H     H_    0.667673 0.576228 0.696522 0.132039
H144  H     H_    0.084452 0.264863 0.782524 0.190037
H145  H     H_    0.265163 0.084475 0.782621 0.189701
H146  H     H_    0.734930 0.915624 0.217420 0.189301
H147  H     H_    0.084592 0.734928 0.782611 0.189236
H148  H     H_    0.915320 0.265151 0.217354 0.189635
H149  H     H_    0.735180 0.915612 0.782523 0.189818
H150  H     H_    0.264734 0.084296 0.217515 0.189620
H151  H     H_    0.915919 0.264693 0.782443 0.189671
H152  H     H_    0.084182 0.735214 0.217515 0.189870
H153  H     H_    0.764677 0.415806 0.717545 0.189722
H154  H     H_    0.576398 0.332067 0.303530 0.130554
H155  H     H_    0.235304 0.584217 0.282465 0.189864
H156  H     H_    0.584429 0.765119 0.717377 0.189609
H157  H     H_    0.415576 0.234890 0.282619 0.189589
H158  H     H_    0.234859 0.584524 0.717380 0.189347
H159  H     H_    0.765168 0.415445 0.282632 0.189598
H160  H     H_    0.415604 0.235183 0.717497 0.189754
H161  H     H_    0.584422 0.764836 0.282512 0.190085
H162  H     H_    0.765133 0.584444 0.282607 0.189650
H163  H     H_    0.234858 0.415544 0.717388 0.189649
H164  H     H_    0.584632 0.234892 0.282627 0.189255
H165  H     H_    0.423608 0.667922 0.696475 0.130965
H166  H     H_    0.415362 0.765108 0.717373 0.189597
H167  H     H_    0.235212 0.415645 0.282509 0.189780
H168  H     H_    0.764827 0.584400 0.717473 0.189963
H169  H     H_    0.415888 0.764721 0.282456 0.189810
H170  H     H_    0.584129 0.235268 0.717538 0.189835
H171  H     H_    0.378495 0.987972 0.374131 0.228079
H172  H     H_    0.616669 0.003298 0.625697 0.240107
H173  H     H_    0.009566 0.382843 0.374111 0.239639
H174  H     H_    0.025315 0.610896 0.625032 0.222213
H175  H     H_    0.610116 0.019675 0.375937 0.212133
H176  H     H_    0.667970 0.576090 0.303465 0.131333
H177  H     H_    0.383084 0.010104 0.625723 0.239960
H178  H     H_    0.003739 0.616538 0.374243 0.239521
H179  H     H_    0.995684 0.379351 0.626153 0.232590
H180  H     H_    0.878372 0.489490 0.873560 0.232309
H181  H     H_    0.116810 0.496829 0.125732 0.238534
H182  H     H_    0.498242 0.883607 0.874278 0.238753
H183  H     H_    0.489653 0.119439 0.125767 0.231028
H184  H     H_    0.108625 0.531425 0.875004 0.218744
H185  H     H_    0.882180 0.503046 0.125902 0.238637
H186  H     H_    0.510011 0.116945 0.874062 0.240610
H187  H     H_    0.331998 0.423873 0.696518 0.130935
H188  H     H_    0.526771 0.888566 0.125151 0.223084
H189  H     H_    0.818558 0.513330 0.015735 0.134570
H190  H     H_    0.178039 0.491183 0.983519 0.136922
H191  H     H_    0.500612 0.820362 0.016348 0.136683
H192  H     H_    0.507301 0.180331 0.984027 0.136218
H193  H     H_    0.177510 0.481868 0.015725 0.135454
H194  H     H_    0.818248 0.508377 0.983512 0.134732
H195  H     H_    0.501212 0.180595 0.016329 0.136982
H196  H     H_    0.492027 0.820570 0.984012 0.139076
H197  H     H_    0.319416 0.019218 0.515692 0.134634
H198  H     H_    0.423708 0.332271 0.696542 0.131862
H199  H     H_    0.678650 0.992783 0.483329 0.135828
H200  H     H_    0.007827 0.318459 0.516185 0.135701
H201  H     H_    0.986302 0.677909 0.484002 0.134719
H202  H     H_    0.678844 0.992970 0.515668 0.134969
H203  H     H_    0.318664 0.008538 0.483432 0.136021
H204  H     H_    0.994735 0.678155 0.516307 0.142154
H205  H     H_    0.010478 0.318608 0.483892 0.134935
H206  H     H_    0.286453 0.939276 0.352833 0.274677
H207  H     H_    0.289297 0.036702 0.353957 0.261322
H208  H     H_    0.248140 0.992103 0.331149 0.253589
N1    N     N_R   0.496806 0.985800 0.405634 -0.318962
N2    N     N_3   0.702475 0.997789 0.555375 -0.453224
N3    N     N_3   0.019480 0.296142 0.444159 -0.454006
N4    N     N_3   0.978445 0.702821 0.555392 -0.450067
N5    N     N_3   0.701437 0.979530 0.443781 -0.456785
N6    N     N_3   0.296566 0.012979 0.555539 -0.453639
N7    N     N_3   0.004859 0.702428 0.444589 -0.450712
N8    N     N_3   0.012470 0.295224 0.555944 -0.455556
N9    N     N_3   0.795036 0.512455 0.943424 -0.452569
N10   N     N_3   0.202418 0.498905 0.055235 -0.450886
N11   N     N_3   0.508072 0.796896 0.944747 -0.449630
N12   N     N_R   0.499824 0.010732 0.593915 -0.316776
N13   N     N_3   0.510895 0.202927 0.056225 -0.458212
N14   N     N_3   0.200230 0.469676 0.944041 -0.452234
N15   N     N_3   0.795519 0.513569 0.055582 -0.452546
N16   N     N_3   0.508921 0.203352 0.944380 -0.449371
N17   N     N_3   0.477466 0.797557 0.055537 -0.454190
N18   N     N_R   0.012573 0.499525 0.405874 -0.316839
N19   N     N_R   0.991904 0.497513 0.594250 -0.318758
N20   N     N_R   0.997076 0.491748 0.905549 -0.319228
N21   N     N_R   0.999287 0.506126 0.094032 -0.316922
N22   N     N_R   0.510005 0.999874 0.905906 -0.316650
N23   N     N_R   0.490564 0.001244 0.094231 -0.318792
N24   N     N_3   0.295213 0.006028 0.443309 -0.440468
O1    O     O_3   0.500000 0.000000 0.250000 -0.467992
O2    O     O_R   0.439130 0.000000 0.799610 -0.652412
O3    O     O_R   1.000000 0.560870 0.200390 -0.650691
O4    O     O_R   1.000000 0.439130 0.799610 -0.650086
O5    O     O_R   0.939130 0.500000 0.700390 -0.649734
O6    O     O_R   0.060870 0.500000 0.299610 -0.649857
O7    O     O_R   0.500000 0.939130 0.700390 -0.652081
O8    O     O_R   0.500000 0.060870 0.299610 -0.653140
O9    O     O_R   0.060870 0.500000 0.700390 -0.652728
O10   O     O_R   0.939130 0.500000 0.299610 -0.652614
O11   O     O_R   0.500000 0.060870 0.700390 -0.649455
O12   O     O_3   0.500000 0.000000 0.750000 -0.467918
O13   O     O_R   0.500000 0.939130 0.299610 -0.648115
O14   O     O_R   0.646010 0.914780 0.237240 -0.670205
O15   O     O_R   0.353990 0.085220 0.762760 -0.669524
O16   O     O_R   0.085220 0.646010 0.237240 -0.669667
O17   O     O_R   0.914780 0.353990 0.762760 -0.670380
O18   O     O_R   0.353990 0.085220 0.237240 -0.670509
O19   O     O_R   0.646010 0.914780 0.762760 -0.669747
O20   O     O_R   0.914780 0.353990 0.237240 -0.669668
O21   O     O_R   0.085220 0.646010 0.762760 -0.670079
O22   O     O_R   0.646010 0.085220 0.762760 -0.669905
O23   O     O_3   1.000000 0.500000 0.250000 -0.468020
O24   O     O_R   0.353990 0.914780 0.237240 -0.669181
O25   O     O_R   0.085220 0.353990 0.762760 -0.669346
O26   O     O_R   0.914780 0.646010 0.237240 -0.670017
O27   O     O_R   0.353990 0.914780 0.762760 -0.669771
O28   O     O_R   0.646010 0.085220 0.237240 -0.669215
O29   O     O_R   0.914780 0.646010 0.762760 -0.669442
O30   O     O_R   0.085220 0.353990 0.237240 -0.669780
O31   O     O_R   0.146010 0.414780 0.737240 -0.669528
O32   O     O_R   0.853990 0.585220 0.262760 -0.669665
O33   O     O_R   0.585220 0.146010 0.737240 -0.669623
O34   O     O_3   1.000000 0.500000 0.750000 -0.468124
O35   O     O_R   0.414780 0.853990 0.262760 -0.670390
O36   O     O_R   0.853990 0.585220 0.737240 -0.669469
O37   O     O_R   0.146010 0.414780 0.262760 -0.669963
O38   O     O_R   0.414780 0.853990 0.737240 -0.669577
O39   O     O_R   0.585220 0.146010 0.262760 -0.670055
O40   O     O_R   0.146010 0.585220 0.262760 -0.669680
O41   O     O_R   0.853990 0.414780 0.737240 -0.670164
O42   O     O_R   0.585220 0.853990 0.262760 -0.669284
O43   O     O_R   0.414780 0.146010 0.737240 -0.670030
O44   O     O_R   0.853990 0.414780 0.262760 -0.669585
O45   O     O_R   0.439130 0.000000 0.200390 -0.649670
O46   O     O_R   0.146010 0.585220 0.737240 -0.669848
O47   O     O_R   0.414780 0.146010 0.262760 -0.669340
O48   O     O_R   0.585220 0.853990 0.737240 -0.669762
O49   O     O_2   0.373740 0.961720 0.408419 -0.609230
O50   O     O_2   0.625063 0.017780 0.591752 -0.632776
O51   O     O_2   0.028180 0.374822 0.407849 -0.634976
O52   O     O_2   0.978843 0.622830 0.592809 -0.624849
O53   O     O_2   0.620143 0.960965 0.406973 -0.615075
O54   O     O_2   0.375154 0.026597 0.591841 -0.634151
O55   O     O_2   0.021158 0.624590 0.408067 -0.631945
O56   O     O_R   0.560870 0.000000 0.799610 -0.649899
O57   O     O_2   0.974559 0.373193 0.591883 -0.624317
O58   O     O_2   0.873462 0.469534 0.908033 -0.619461
O59   O     O_2   0.124566 0.512583 0.091805 -0.633209
O60   O     O_2   0.518535 0.874441 0.907976 -0.635244
O61   O     O_2   0.465252 0.124760 0.091611 -0.620626
O62   O     O_2   0.122928 0.481980 0.906807 -0.623203
O63   O     O_2   0.874363 0.519594 0.092007 -0.635136
O64   O     O_2   0.524298 0.124546 0.908001 -0.634335
O65   O     O_2   0.482267 0.875780 0.092838 -0.624619
O66   O     O_R   1.000000 0.439130 0.200390 -0.652794
O67   O     O_R   1.000000 0.560870 0.799610 -0.653476
O68   O     O_R   0.560870 0.000000 0.200390 -0.652932
Zn1   Zn    Zn3+2 0.500000 0.913460 0.269040 0.936623
Zn2   Zn    Zn3+2 1.000000 0.586540 0.230960 0.935156
Zn3   Zn    Zn3+2 0.586540 0.000000 0.769040 0.935622
Zn4   Zn    Zn3+2 0.413460 0.000000 0.230960 0.935769
Zn5   Zn    Zn3+2 1.000000 0.586540 0.769040 0.933399
Zn6   Zn    Zn3+2 0.000000 0.413460 0.230960 0.933899
Zn7   Zn    Zn3+2 0.413460 0.000000 0.769040 0.934199
Zn8   Zn    Zn3+2 0.586540 0.000000 0.230960 0.933675
Zn9   Zn    Zn3+2 0.500000 0.086540 0.730960 0.935688
Zn10  Zn    Zn3+2 0.086540 0.500000 0.269040 0.935570
Zn11  Zn    Zn3+2 0.913460 0.500000 0.730960 0.935677
Zn12  Zn    Zn3+2 0.500000 0.086540 0.269040 0.933502
Zn13  Zn    Zn3+2 0.500000 0.913460 0.730960 0.934452
Zn14  Zn    Zn3+2 0.913460 0.500000 0.269040 0.934021
Zn15  Zn    Zn3+2 0.086540 0.500000 0.730960 0.933693
Zn16  Zn    Zn3+2 1.000000 0.413460 0.769040 0.935495

loop_
_geom_bond_atom_site_label_1
_geom_bond_atom_site_label_2
_ccdc_geom_bond_type
C186  C267  A    
C214  H30   S    
O18   Zn4   S    
C253  C311  A    
C119  C143  A    
C215  H28   S    
C194  C230  S    
C222  H53   S    
O46   Zn15  S    
C120  C144  A    
C50   H160  S    
C82   H46   S    
C224  C254  A    
C47   C128  A    
C55   C119  A    
C189  C203  S    
C168  C249  A    
C76   H79   S    
O23   Zn2   S    
C269  O6    A    
C211  H25   S    
O34   Zn16  S    
C55   H166  S    
C227  H56   S    
C263  C301  A    
H92   N3    S    
C29   C109  A    
C158  N19   A    
C304  H191  S    
C63   H131  S    
C40   C98   A    
C61   H134  S    
H106  N9    S    
C282  C295  A    
C83   H13   S    
C195  C272  A    
C156  C235  A    
C44   C130  A    
C225  H51   S    
C284  C297  A    
C51   C123  A    
C213  H23   S    
C192  C268  A    
C39   C74   A    
C257  N9    S    
C307  H194  S    
C116  C149  A    
C154  C212  A    
O27   Zn7   S    
C52   C122  A    
C218  H42   S    
C66   C72   A    
C155  N12   A    
C170  C187  A    
C56   H167  S    
C57   N22   S    
C261  C308  A    
C62   H135  S    
C113  C201  A    
C240  C257  A    
C124  C244  A    
C52   H162  S    
C36   C71   A    
C33   C69   A    
O31   Zn15  S    
C29   C64   A    
C19   C141  S    
C227  H54   S    
C96   C114  A    
C234  C236  S    
C79   C298  A    
C228  C229  S    
C106  C142  A    
C153  C201  A    
C79   C212  A    
C208  H12   S    
C31   C107  A    
H104  N8    S    
C100  C108  A    
C287  C300  A    
O23   Zn6   S    
C204  H206  S    
O22   Zn3   S    
C184  C202  A    
C112  C273  S    
C38   C100  A    
C301  H189  S    
C146  C296  A    
C219  H40   S    
C4    H202  S    
C115  C148  A    
C173  C191  A    
C57   C178  A    
C104  C140  A    
C309  H196  S    
C20   O32   A    
C26   C114  A    
C45   H156  S    
C276  C294  A    
C7    C292  A    
C151  C179  A    
C277  C295  A    
C201  C252  A    
C150  C168  A    
C64   H133  S    
C204  H208  S    
C265  N17   S    
C25   C147  S    
C216  C217  S    
C256  N8    S    
C164  O63   S    
O13   Zn1   S    
C54   C89   A    
O42   Zn1   S    
O47   Zn12  S    
C166  O65   S    
C310  H197  S    
C42   C96   A    
C254  C310  A    
C233  H71   S    
C107  C143  A    
C87   H176  S    
C262  N14   S    
C22   O39   A    
C108  C144  A    
H99   N6    S    
C6    H204  S    
C221  H45   S    
H103  N8    S    
C179  C250  A    
C68   C184  A    
C32   H142  S    
C177  C195  A    
C188  C270  A    
C73   H124  S    
C191  C267  A    
C26   C61   A    
C109  C145  A    
C182  C199  A    
C253  N5    S    
C12   O18   A    
C27   H137  S    
C35   C181  A    
C83   C91   A    
C17   O33   A    
C94   H1    S    
C166  C248  A    
C162  N23   A    
C135  C241  A    
C43   C131  A    
C175  H174  S    
C111  C148  A    
C48   C127  A    
C197  C274  A    
C221  H44   S    
C37   C102  A    
C286  C312  A    
C97   C111  A    
C25   O30   A    
C99   C136  A    
C180  H188  S    
C69   C70   A    
C157  C248  A    
C48   H158  S    
C100  C137  A    
C2    C169  A    
C60   C95   A    
H95   N4    S    
C116  C130  A    
C22   C144  S    
O45   Zn4   S    
C53   C121  A    
C3    H201  S    
O19   Zn3   S    
C264  C305  A    
C175  C193  A    
C6    C290  A    
C230  H70   S    
C167  C185  A    
C165  N22   A    
C285  C298  A    
O1    Zn4   S    
C1    O45   A    
C24   N19   S    
C97   C133  A    
O3    Zn2   S    
C159  N20   A    
O8    Zn12  S    
C219  H38   S    
C49   C126  A    
C150  N1    A    
C36   H146  S    
C158  O57   S    
C11   O17   A    
C49   C84   A    
H108  N10   S    
C118  C147  A    
C176  H184  S    
C282  C308  A    
C22   O28   A    
C9    C140  S    
C220  H48   S    
C200  C273  A    
C291  O13   A    
C12   O47   A    
C123  C139  A    
C267  C280  S    
C31   H141  S    
C112  O2    A    
C80   H68   S    
C161  O60   S    
C212  C253  A    
C24   C171  A    
H114  N13   S    
C269  O10   A    
O10   Zn14  S    
C165  O64   S    
C61   C77   A    
C173  H172  S    
C206  H6    S    
C233  H73   S    
C159  C240  A    
C185  C211  S    
C236  H78   S    
C117  C129  A    
C283  C296  A    
C16   O46   A    
C277  C304  A    
C291  O8    A    
O20   Zn6   S    
C207  H14   S    
C12   C134  S    
C237  C238  S    
C46   C177  A    
O1    Zn8   S    
C197  C237  S    
C124  C294  A    
C229  H62   S    
C47   H157  S    
C8    O42   A    
C220  C221  S    
O12   Zn3   S    
O41   Zn11  S    
C209  H20   S    
C125  C140  A    
C174  H173  S    
O43   Zn9   S    
C69   H128  S    
C2    N12   S    
C81   H35   S    
C163  C244  A    
C17   C148  S    
C261  N13   S    
C11   O41   A    
C50   C125  A    
C280  O11   A    
C202  C228  S    
C248  C265  A    
C285  C311  A    
C222  C225  S    
C28   C110  A    
C279  C293  A    
C178  C196  A    
C58   C117  A    
H102  N7    S    
C7    C251  A    
C178  H186  S    
O36   Zn11  S    
C281  C307  A    
C121  C125  A    
C27   C62   A    
C128  C134  A    
O37   Zn10  S    
C39   C99   A    
C14   O19   A    
C256  C312  A    
C162  C243  A    
C95   H112  S    
C146  C242  A    
C238  H84   S    
C209  C210  S    
C198  C271  A    
C102  C107  A    
C199  C222  S    
C200  C226  S    
H109  N11   S    
C167  H175  S    
C164  C245  A    
C170  H178  S    
C1    C274  S    
H89   N2    S    
C306  H193  S    
C217  H32   S    
H121  N17   S    
C127  C138  A    
C9    O15   A    
C112  O56   A    
O23   Zn10  S    
O34   Zn11  S    
C192  C207  S    
C41   C97   A    
C286  C299  A    
C244  C262  A    
H93   N3    S    
C34   H145  S    
C245  C263  A    
C59   H169  S    
C246  C264  A    
O35   Zn1   S    
O12   Zn7   S    
C187  C216  S    
C93   H143  S    
C260  N11   S    
C215  H27   S    
C165  C246  A    
C247  O4    A    
C75   H113  S    
C188  C218  S    
C91   H165  S    
C184  H183  S    
C183  C200  A    
C114  C149  A    
C48   C83   A    
C286  C292  A    
C227  H55   S    
C46   C182  A    
C135  C293  A    
C223  O66   A    
C235  C255  A    
C228  H63   S    
C198  C220  S    
C71   H126  S    
C196  C234  S    
C187  C268  A    
C225  H50   S    
C190  C251  A    
C311  H199  S    
C195  C232  S    
C275  C281  A    
C308  H195  S    
C10   C132  S    
H110  N11   S    
C276  C303  A    
O21   Zn5   S    
C23   O29   A    
C250  N2    S    
C42   C77   A    
C226  C227  S    
C243  C261  A    
C15   C137  S    
C17   O22   A    
C174  C192  A    
H117  N15   S    
C232  H75   S    
C119  C127  A    
C153  O52   S    
C30   H140  S    
C126  C137  A    
C45   C129  A    
C237  H86   S    
C98   C110  A    
H88   N24   S    
C135  C245  A    
C70   H125  S    
C203  H4    S    
C62   C76   A    
C45   C81   A    
C234  H80   S    
C37   H147  S    
H100  N7    S    
C43   C78   A    
C3    C287  A    
C226  H59   S    
C171  C188  A    
C36   C103  A    
O1    Zn1   S    
C58   C93   A    
C169  C186  A    
C16   C138  S    
H120  N16   S    
C2    C173  A    
C124  C240  A    
C120  C126  A    
C85   C88   A    
C78   H57   S    
C219  H39   S    
C99   C109  A    
C238  H82   S    
C82   C92   A    
C161  N22   A    
C117  C145  A    
C191  C205  S    
C16   O21   A    
C104  C105  A    
C234  H81   S    
C55   C91   A    
C275  C293  A    
C50   C85   A    
C217  H34   S    
C214  H31   S    
C231  H66   S    
C202  C274  A    
C59   C116  A    
C65   H129  S    
C210  H17   S    
C288  C297  A    
C54   H164  S    
C89   H154  S    
O26   Zn2   S    
C59   C94   A    
C14   O48   A    
O6    Zn10  S    
O29   Zn5   S    
C34   C70   A    
C152  C190  A    
O28   Zn8   S    
C18   O24   A    
C158  C239  A    
O12   Zn9   S    
C156  O55   S    
H118  N15   S    
H87   N24   S    
C113  C299  A    
C159  O58   S    
C258  O5    A    
C222  H52   S    
C263  N15   S    
C39   H149  S    
C51   C86   A    
C264  N16   S    
C7    H205  S    
O25   Zn16  S    
C60   H170  S    
C13   C174  A    
C43   H153  S    
C203  H3    S    
C211  H26   S    
C226  H58   S    
C262  C303  A    
C207  C208  S    
C121  C141  A    
C44   C80   A    
C207  H15   S    
H119  N16   S    
O24   Zn4   S    
C101  C190  A    
O34   Zn15  S    
C163  O62   S    
C284  C310  A    
C86   C87   A    
C232  H74   S    
C72   H123  S    
C18   O35   A    
C216  H36   S    
C23   O36   A    
C130  C132  A    
C90   C224  A    
C5    C249  A    
C153  N19   A    
C247  C271  S    
C221  H43   S    
C218  H41   S    
C276  C279  A    
C78   C95   A    
C154  N1    A    
C287  C290  A    
C33   C105  A    
O1    Zn12  S    
C255  N7    S    
C257  C307  A    
O33   Zn9   S    
C161  C242  A    
H115  N14   S    
H105  N9    S    
C154  O53   S    
O23   Zn14  S    
O12   Zn13  S    
C312  H200  S    
C305  H192  S    
C172  H171  S    
C13   N18   S    
C292  C300  A    
C289  C298  A    
C258  O9    A    
C80   C94   A    
C5    H203  S    
C280  O7    A    
C208  H11   S    
C205  H9    S    
C30   C108  A    
C56   C118  A    
C252  N4    S    
C28   H138  S    
C283  C309  A    
O30   Zn6   S    
C172  C189  A    
C151  N12   A    
C146  C246  A    
O66   Zn6   S    
C40   C75   A    
O2    Zn7   S    
C21   O38   A    
C157  C295  A    
C66   H130  S    
C223  C272  S    
C38   H148  S    
C14   C136  S    
C302  N1    S    
C232  C233  S    
C204  H207  S    
C41   C76   A    
C67   C71   A    
C230  C231  S    
C258  C270  S    
C8    O14   A    
O5    Zn11  S    
O17   Zn16  S    
C268  C269  S    
C265  C304  A    
C37   C72   A    
C239  C256  A    
C64   C74   A    
C216  H37   S    
C9    O43   A    
C233  H72   S    
C176  C194  A    
H98   N6    S    
C24   C175  A    
C27   C111  A    
C199  C272  A    
C10   O40   A    
C41   H151  S    
C31   C66   A    
C203  C204  S    
C210  H16   S    
C54   C120  A    
C260  C309  A    
C68   N23   S    
C229  H61   S    
C247  O67   A    
C209  H19   S    
C115  C131  A    
C205  C206  S    
C19   O25   A    
C23   C145  S    
C4    C288  A    
C67   H127  S    
C8    C139  S    
C35   C176  A    
C21   O27   A    
C285  C288  A    
C223  O3    A    
C11   C133  S    
C105  C141  A    
H122  N17   S    
C150  O49   S    
C251  N3    S    
C65   C73   A    
C102  C138  A    
C47   C82   A    
C229  H60   S    
C180  C197  A    
C74   H101  S    
C46   N21   S    
C206  H7    S    
C152  N18   A    
O7    Zn13  S    
O14   Zn8   S    
C213  H22   S    
C32   C67   A    
O44   Zn14  S    
C92   H132  S    
C266  C291  S    
C79   C168  A    
C103  C106  A    
C18   C149  S    
C49   H159  S    
C96   C132  A    
C230  H69   S    
C231  H67   S    
C15   O44   A    
C277  C283  A    
O16   Zn2   S    
C32   C106  A    
C156  N18   A    
C193  C270  A    
C205  H8    S    
C181  H180  S    
C155  C224  A    
C118  C128  A    
O9    Zn15  S    
H91   N2    S    
C181  C198  A    
C1    O68   A    
C259  C306  A    
C185  C266  A    
C86   H2    S    
C40   H150  S    
O38   Zn13  S    
O67   Zn5   S    
O40   Zn10  S    
O68   Zn8   S    
O32   Zn14  S    
C160  O59   S    
C20   C142  S    
C163  N20   A    
C21   C143  S    
C101  C300  A    
C19   O31   A    
C214  C215  S    
C279  C306  A    
C220  H47   S    
C77   H90   S    
C68   C180  A    
C162  O61   S    
C34   C104  A    
C182  H181  S    
C53   H163  S    
C177  H185  S    
C101  C235  A    
C228  H64   S    
C103  C139  A    
C281  C294  A    
C155  O54   S    
C129  C136  A    
C81   C93   A    
C193  C209  S    
C56   C92   A    
H96   N5    S    
C225  H49   S    
O39   Zn12  S    
C88   H187  S    
C215  H29   S    
C213  H21   S    
C236  H77   S    
C278  C305  A    
C171  H179  S    
C15   O20   A    
C51   H161  S    
C85   H198  S    
C169  H177  S    
C164  N21   A    
C90   C297  A    
C13   C170  A    
C211  C213  S    
C172  C302  A    
C166  N23   A    
O15   Zn7   S    
C183  H182  S    
C10   O16   A    
C30   C65   A    
C160  C241  A    
C189  C266  A    
C25   O37   A    
C84   C89   A    
C122  C142  A    
O34   Zn5   S    
C110  C147  A    
O4    Zn16  S    
H94   N4    S    
C57   C183  A    
O56   Zn3   S    
C35   N20   S    
C63   C75   A    
C259  N10   S    
C160  N21   A    
H111  N13   S    
C90   C179  A    
C237  H85   S    
C241  C259  A    
C58   H168  S    
C242  C260  A    
C52   C87   A    
H97   N5    S    
C290  C299  A    
C131  C133  A    
C249  N24   S    
C5    C289  A    
C284  C289  A    
C275  C301  A    
C42   H152  S    
C151  O50   S    
C208  H10   S    
C84   H24   S    
C6    C252  A    
C44   H155  S    
C157  C243  A    
C4    C250  A    
H107  N10   S    
C218  C219  S    
C206  H5    S    
C167  C302  A    
C152  O51   S    
C186  C214  S    
C238  H83   S    
C53   C88   A    
C98   C134  A    
C278  C296  A    
C3    C255  A    
C236  H76   S    
C217  H33   S    
C231  H65   S    
C113  C239  A    
O48   Zn13  S    
C278  C282  A    
C210  H18   S    
C26   H136  S    
C28   C63   A    
C60   C115  A    
C194  C271  A    
O11   Zn9   S    
C33   H144  S    
C122  C123  A    
C29   H139  S    
C20   O26   A    
C254  N6    S    
C303  H190  S    
H116  N14   S    
C196  C273  A    
C38   C73   A    
