data_mof_unit_5902.cif
_audit_creation_date              2012-12-10T16:50:58-0500
_audit_creation_method            fapswitch 2.2
_symmetry_space_group_name_H-M    P1
_symmetry_Int_Tables_number       1
_space_group_crystal_system       triclinic
_cell_length_a                    8.033853
_cell_length_b                    8.458902
_cell_length_c                    10.434503
_cell_angle_alpha                 91.705408
_cell_angle_beta                  86.15288
_cell_angle_gamma                 93.389023
_cell_volume                      706.031455914

loop_
_atom_site_label
_atom_site_type_symbol
_atom_type_description
_atom_site_fract_x
_atom_site_fract_y
_atom_site_fract_z
_atom_type_partial_charge
C1    C     C_R   0.544588 0.793530 0.513739 0.836779
C2    C     C_R   0.911400 0.364943 0.063946 -0.240559
C3    C     C_R   0.046771 0.438356 0.122931 -0.302721
C4    C     C_R   0.902137 0.512866 0.010289 -0.218323
C5    C     C_R   0.179957 0.349214 0.145421 0.646449
C6    C     C_R   0.797723 0.511988 0.909621 0.762936
C7    C     C_R   0.331710 0.387572 0.079192 -0.106775
C8    C     C_R   0.637258 0.435547 0.942215 -0.169774
C9    C     C_R   0.336331 0.453490 0.956050 -0.143717
C10   C     C_R   0.619103 0.353981 0.062203 -0.127492
C11   C     C_R   0.476528 0.375847 0.139230 -0.056289
C12   C     C_R   0.456312 0.207869 0.519987 0.836698
C13   C     C_R   0.492110 0.468996 0.881777 -0.089674
C14   C     C_2   0.567071 0.957114 0.555527 0.019508
C15   C     C_2   0.435000 0.048256 0.564704 0.135632
C16   C     C_R   0.500254 0.498935 0.742758 0.913220
C17   C     C_R   0.491165 0.453681 0.268371 0.885360
C18   C     C_R   0.184481 0.509669 0.919921 0.726435
C19   C     C_R   0.761963 0.305517 0.118485 0.648731
C20   C     C_R   0.069925 0.551442 0.021433 -0.290325
F1    F     F_    0.115241 0.440952 0.815055 -0.600953
F2    F     F_    0.754090 0.213590 0.223592 -0.638551
F3    F     F_    0.170720 0.249427 0.245668 -0.649357
F4    F     F_    0.821026 0.630654 0.824869 -0.612173
H1    H     H_    0.835075 0.601932 0.071160 0.142836
H2    H     H_    0.008808 0.488918 0.217469 0.186729
H3    H     H_    0.102487 0.670908 0.056548 0.166254
H4    H     H_    0.949076 0.269994 0.996437 0.188283
H5    H     H_    0.007084 0.370729 0.412474 0.277477
H6    H     H_    0.991395 0.623838 0.593227 0.291217
H7    H     H_    0.872010 0.015204 0.422222 0.376659
H8    H     H_    0.081439 0.097798 0.791764 0.401777
N1    N     N_2   0.950330 0.457950 0.466250 -0.142491
N2    N     N_2   0.049670 0.542050 0.533750 -0.097658
O1    O     O_R   0.389250 0.738570 0.508280 -0.560636
O2    O     O_2   0.834162 0.889992 0.679956 -0.196819
O3    O     O_3   0.890404 0.090967 0.494810 -0.425014
O4    O     O_2   0.132384 0.909426 0.546874 -0.229140
O5    O     O_2   0.269733 0.867337 0.745012 -0.318472
O6    O     O_3   0.147727 0.141015 0.715934 -0.431247
O7    O     O_R   0.610750 0.261430 0.491720 -0.550109
O8    O     O_R   0.678390 0.711630 0.486650 -0.593020
O9    O     O_R   0.321610 0.288370 0.513350 -0.520858
O10   O     O_R   0.355430 0.513480 0.694040 -0.538347
O11   O     O_R   0.644570 0.486520 0.305960 -0.611846
O12   O     O_R   0.644570 0.486540 0.672410 -0.543588
O13   O     O_R   0.355430 0.513460 0.327590 -0.622955
O14   O     O_2   0.734473 0.155624 0.714680 -0.277912
S1    S     S_3+6 0.760255 0.023975 0.616696 0.108682
S2    S     S_3+6 0.241522 0.985705 0.644997 0.110091
Zn1   Zn    Zn3+2 0.306940 0.517990 0.514440 1.138249
Zn2   Zn    Zn3+2 0.693060 0.482010 0.485560 1.106789

loop_
_geom_bond_atom_site_label_1
_geom_bond_atom_site_label_2
_ccdc_geom_bond_type
C2    C4    A    
C1    O8    A    
C5    C7    A    
C8    C13   A    
O4    S2    D    
C20   H3    S    
O12   Zn2   S    
C18   F1    S    
O3    S1    S    
C16   O10   A    
O7    Zn2   S    
C5    F3    S    
C12   C15   S    
C10   C19   A    
C6    F4    S    
C19   F2    S    
C2    C3    A    
C3    C20   A    
N1    Zn2   S    
C7    C11   A    
O9    Zn1   S    
N2    Zn1   S    
C12   O7    A    
O6    S2    S    
C6    C8    A    
O10   Zn1   S    
C4    C6    A    
O14   S1    D    
C17   O11   A    
C4    H1    S    
C12   O9    A    
C18   C20   A    
H8    O6    S    
O1    Zn1   S    
C15   S2    S    
C14   S1    S    
C10   C11   A    
H6    N2    S    
C4    C20   A    
H5    N1    S    
C9    C18   A    
O5    S2    D    
N1    N2    D    
C1    O1    A    
C8    C10   A    
C13   C16   S    
C16   O12   A    
C7    C9    A    
C9    C13   A    
C14   C15   D    
C11   C17   S    
C2    H4    S    
C1    C14   S    
O11   Zn2   S    
C2    C19   A    
C3    H2    S    
O13   Zn1   S    
O2    S1    D    
C17   O13   A    
H7    O3    S    
C3    C5    A    
O8    Zn2   S    
