data_mof_unit_46993.cif
_audit_creation_date              2012-12-10T17:05:20-0500
_audit_creation_method            fapswitch 2.2
_symmetry_space_group_name_H-M    P1
_symmetry_Int_Tables_number       1
_space_group_crystal_system       triclinic
_cell_length_a                    10.062113
_cell_length_b                    10.867982
_cell_length_c                    15.418114
_cell_angle_alpha                 89.031493
_cell_angle_beta                  69.783329
_cell_angle_gamma                 89.794989
_cell_volume                      1581.9420682

loop_
_atom_site_label
_atom_site_type_symbol
_atom_type_description
_atom_site_fract_x
_atom_site_fract_y
_atom_site_fract_z
_atom_type_partial_charge
C1    C     C_R   0.498218 0.736104 0.503313 0.917636
C2    C     C_R   0.407420 0.549449 0.919554 0.028951
C3    C     C_R   0.271459 0.504915 0.972659 0.032236
C4    C     C_R   0.491426 0.605810 0.965252 0.044663
C5    C     C_R   0.455225 0.588700 0.061241 0.105598
C6    C     C_R   0.324737 0.532588 0.112126 -0.070037
C7    C     C_R   0.232108 0.495718 0.068497 -0.099226
C8    C     C_R   0.613325 0.675482 0.917472 -0.139051
C9    C     C_R   0.721038 0.690484 0.954617 0.387562
C10   C     C_R   0.697044 0.648405 0.045846 -0.083738
C11   C     C_R   0.557491 0.616038 0.101748 -0.041079
C12   C     C_R   0.413406 0.494073 0.676383 0.917618
C13   C     C_R   0.805006 0.638414 0.084355 -0.167035
C14   C     C_R   0.773885 0.592217 0.174843 0.394666
C15   C     C_R   0.524909 0.610099 0.196906 0.284832
C16   C     C_2   0.588093 0.061648 0.513591 0.242891
C17   C     C_2   0.513488 0.136594 0.477918 0.142272
C18   C     C_2   0.599141 0.937130 0.485422 0.180974
C19   C     C_2   0.487644 0.862190 0.526511 0.082189
C20   C     C_2   0.108139 0.450486 0.435914 0.074461
C21   C     C_2   0.955110 0.431448 0.446371 0.520839
C22   C     C_R   0.501162 0.263634 0.498331 0.924469
C23   C     C_R   0.586294 0.518655 0.326084 0.942581
C24   C     C_R   0.366335 0.488151 0.779102 -0.239224
C25   C     C_R   0.631145 0.570162 0.230843 -0.241967
C26   C     C_R   0.182321 0.457753 0.929280 -0.189356
C27   C     C_R   0.226857 0.452579 0.833333 0.446579
C28   C     C_R   0.462837 0.517057 0.825399 0.170044
H1    H     H_    0.134929 0.449438 0.108740 0.204594
H2    H     H_    0.913928 0.659839 0.043844 0.231529
H3    H     H_    0.188336 0.422122 0.371994 0.131477
H4    H     H_    0.078438 0.422482 0.970220 0.189765
H5    H     H_    0.295444 0.511999 0.185127 0.180975
H6    H     H_    0.628166 0.710736 0.849018 0.194764
N1    N     N_2   0.148330 0.498670 0.499030 0.060951
N2    N     N_2   0.852680 0.498640 0.499000 0.057691
O1    O     O_R   0.386950 0.680940 0.500010 -0.561592
O2    O     O_R   0.613110 0.680900 0.499990 -0.579834
O3    O     O_R   0.322330 0.500030 0.632270 -0.527440
O4    O     O_R   0.548480 0.499990 0.632240 -0.593318
O5    O     O_R   0.386890 0.319100 0.500010 -0.573580
O6    O     O_R   0.613050 0.319060 0.499990 -0.572233
O7    O     O_R   0.451520 0.500010 0.367760 -0.624028
O8    O     O_R   0.677670 0.499970 0.367730 -0.538106
Zn1   Zn    Zn3+2 0.349000 0.500030 0.500020 1.178592
Zn2   Zn    Zn3+2 0.651000 0.499970 0.499980 1.193032
S1    S     S_3+6 0.648132 0.097337 0.605781 0.156462
O9    O     O_2   0.775556 0.180226 0.572622 -0.192728
O10   O     O_2   0.530857 0.160404 0.679883 -0.203183
O11   O     O_3   0.691836 0.967563 0.650599 -0.464695
H7    H     H_    0.781038 0.939476 0.603523 0.394693
Cl1   Cl    Cl    0.435470 0.087082 0.396951 -0.495993
S2    S     S_3+6 0.748427 0.904847 0.384971 0.131946
O12   O     O_2   0.875116 0.882104 0.413112 -0.160833
O13   O     O_2   0.725335 0.795446 0.333717 -0.260290
O14   O     O_3   0.784257 0.028453 0.313368 -0.466032
H8    H     H_    0.725939 0.017724 0.273782 0.395079
S3    S     S_3+6 0.337591 0.902758 0.625435 0.114849
O15   O     O_2   0.384973 0.918025 0.706923 -0.178103
O16   O     O_2   0.271151 0.020999 0.609332 -0.221150
O17   O     O_3   0.213505 0.791273 0.652643 -0.442531
H9    H     H_    0.157864 0.806590 0.611623 0.410201
Cl2   Cl    Cl    0.037605 0.471753 0.612023 -0.242026
Cl3   Cl    Cl    0.918396 0.315713 0.379782 -0.460964
Cl4   Cl    Cl    0.897159 0.649755 0.512951 -0.369323
S4    S     S_3+6 0.394356 0.716937 0.261068 0.081806
O18   O     O_2   0.263726 0.651802 0.322189 -0.292152
O19   O     O_2   0.453234 0.793564 0.319411 -0.247227
O20   O     O_3   0.349451 0.811022 0.187911 -0.499064
H10   H     H_    0.276347 0.866290 0.228188 0.425885
Cl5   Cl    Cl    0.914333 0.578606 0.217562 -0.511832
S5    S     S_3+6 0.882234 0.760644 0.885315 0.126159
O21   O     O_2   0.995018 0.663830 0.855248 -0.199282
O22   O     O_2   0.867189 0.821639 0.800946 -0.192309
O23   O     O_3   0.931564 0.866323 0.946722 -0.481261
H11   H     H_    0.849629 0.922671 0.969321 0.371529
Cl6   Cl    Cl    0.112038 0.378470 0.787271 -0.352481
S6    S     S_3+6 0.644118 0.465465 0.781233 0.132266
O24   O     O_2   0.694144 0.428713 0.859258 -0.219012
O25   O     O_2   0.659234 0.355097 0.721634 -0.134255
O26   O     O_3   0.749800 0.578383 0.718733 -0.431343
H12   H     H_    0.686947 0.636233 0.701058 0.353605

loop_
_geom_bond_atom_site_label_1
_geom_bond_atom_site_label_2
_ccdc_geom_bond_type
S4    O19   D    
C26   H4    S    
C7    H1    S    
C14   Cl5   S    
C24   C27   A    
C4    C8    A    
O26   H12   S    
S1    O10   D    
C21   N2    D    
S2    O12   D    
O4    Zn2   S    
C26   C27   A    
C5    C11   A    
C3    C7    A    
C5    C6    A    
S6    O25   D    
C15   C25   A    
S4    O20   S    
C16   C17   D    
S3    O16   D    
C23   O7    A    
O14   H8    S    
C16   S1    S    
C18   C19   D    
O6    Zn2   S    
C21   Cl3   S    
C18   S2    S    
C20   N1    D    
C11   C15   A    
C8    C9    A    
C9    S5    S    
N2    Zn2   S    
C28   S6    S    
C9    C10   A    
C1    O1    A    
O3    Zn1   S    
S3    O17   S    
S4    O18   D    
C13   C14   A    
O17   H9    S    
S5    O23   S    
C17   Cl1   S    
O8    Zn2   S    
S1    O11   S    
S2    O13   D    
C19   S3    S    
C1    C19   S    
C13   H2    S    
S5    O22   D    
N2    Cl4   S    
S5    O21   D    
S3    O15   D    
C15   S4    S    
C23   O8    A    
C12   O4    A    
C2    C4    A    
O23   H11   S    
S1    O9    D    
O11   H7    S    
C8    H6    S    
O7    Zn1   S    
C1    O2    A    
O1    Zn1   S    
N1    Zn1   S    
S2    O14   S    
S6    O24   D    
C3    C26   A    
C24   C28   A    
C4    C5    A    
C27   Cl6   S    
C10   C13   A    
C2    C28   A    
C6    C7    A    
C12   C24   S    
C17   C22   S    
C6    H5    S    
C12   O3    A    
C2    C3    A    
S6    O26   S    
C22   O6    A    
C23   C25   S    
C14   C25   A    
O20   H10   S    
O2    Zn2   S    
C10   C11   A    
C22   O5    A    
C20   C21   S    
C16   C18   S    
O5    Zn1   S    
N1    Cl2   S    
C20   H3    S    
