data_mof_unit_27300.cif
_audit_creation_date              2012-12-11T17:34:25-0500
_audit_creation_method            fapswitch 2.2
_symmetry_space_group_name_H-M    P1
_symmetry_Int_Tables_number       1
_space_group_crystal_system       triclinic
_cell_length_a                    23.719708
_cell_length_b                    7.304286
_cell_length_c                    20.99562
_cell_angle_alpha                 90.485467
_cell_angle_beta                  104.955149
_cell_angle_gamma                 89.803399
_cell_volume                      3514.26567515

loop_
_atom_site_label
_atom_site_type_symbol
_atom_type_description
_atom_site_fract_x
_atom_site_fract_y
_atom_site_fract_z
_atom_type_partial_charge
O1    O     O_R   0.449110 0.494310 0.552140 -0.559573
O2    O     O_R   0.550890 0.994310 0.447860 -0.563271
O3    O     O_R   0.440010 0.824420 0.415850 -0.533679
O4    O     O_R   0.559990 0.324420 0.584150 -0.552885
C1    C     C_R   0.425842 0.654910 0.391579 0.785969
C2    C     C_R   0.574065 0.156100 0.608571 0.782536
O5    O     O_R   0.442260 0.824040 0.549660 -0.496253
O6    O     O_R   0.557740 0.324040 0.450340 -0.497478
O7    O     O_R   0.553160 0.993960 0.582620 -0.536980
O8    O     O_R   0.446840 0.493960 0.417380 -0.523505
C3    C     C_R   0.426845 0.655698 0.565064 0.732900
C4    C     C_R   0.572382 0.155236 0.433838 0.765172
O9    O     O_3   0.536380 0.660670 0.510660 -0.400649
O10   O     O_3   0.463620 0.160670 0.489340 -0.372149
V1    V     V_3+5 0.493250 0.935680 0.498020 1.506061
V2    V     V_3+5 0.506750 0.435680 0.501980 1.478172
C5    C     C_R   0.838213 0.916921 0.187436 0.051490
C6    C     C_R   0.164360 0.406595 0.815027 0.055828
C7    C     C_R   0.878057 0.908430 0.147962 -0.322659
C8    C     C_R   0.124236 0.399213 0.854168 -0.323179
H1    H     H_    0.897466 0.777893 0.140900 0.180252
H2    H     H_    0.107321 0.267561 0.863676 0.173026
C9    C     C_R   0.890542 0.064214 0.114892 -0.121250
C10   C     C_R   0.109209 0.558240 0.884701 -0.118733
C11   C     C_R   0.863012 0.232175 0.123848 0.475808
C12   C     C_R   0.134347 0.726340 0.873031 0.462961
C13   C     C_R   0.826492 0.240799 0.167255 -0.206059
C14   C     C_R   0.170238 0.733472 0.829199 -0.211278
H3    H     H_    0.807717 0.368727 0.176611 0.145123
H4    H     H_    0.186985 0.862434 0.818761 0.153170
C15   C     C_R   0.813580 0.085682 0.198868 -0.005874
C16   C     C_R   0.186231 0.575568 0.800633 -0.007821
C17   C     C_1   0.776133 0.104083 0.243976 0.052960
C18   C     C_1   0.225495 0.589812 0.757436 0.051358
C19   C     C_1   0.744699 0.116885 0.281302 0.047773
C20   C     C_1   0.258245 0.600622 0.721554 0.046798
C21   C     C_R   0.676134 0.964754 0.336263 0.018608
C22   C     C_R   0.336642 0.464704 0.675714 0.006711
C23   C     C_R   0.632223 0.977490 0.370291 -0.331414
C24   C     C_R   0.376780 0.483614 0.637526 -0.338667
H5    H     H_    0.609688 0.854491 0.377615 0.170676
H6    H     H_    0.404195 0.367846 0.633693 0.169895
C25   C     C_R   0.618776 0.145722 0.396580 -0.121372
C26   C     C_R   0.380625 0.644324 0.602426 -0.112126
C27   C     C_R   0.652542 0.301029 0.389991 0.472504
C28   C     C_R   0.338744 0.784964 0.600652 0.493110
C29   C     C_R   0.694495 0.287254 0.353250 -0.199096
C30   C     C_R   0.298964 0.766718 0.641079 -0.266596
H7    H     H_    0.718978 0.405359 0.347205 0.140034
H8    H     H_    0.266985 0.870542 0.642740 0.131023
C31   C     C_R   0.705387 0.122576 0.324699 -0.007161
C32   C     C_R   0.298292 0.609894 0.679112 0.010453
C33   C     C_R   0.632946 0.104627 0.792572 -0.108878
C34   C     C_R   0.369658 0.523616 0.213032 -0.074499
H9    H     H_    0.711089 0.990810 0.898536 0.176691
H10   H     H_    0.288953 0.416373 0.107042 0.174154
C35   C     C_R   0.616599 0.147123 0.674242 -0.224204
C36   C     C_R   0.385021 0.639621 0.325048 -0.226746
C37   C     C_R   0.902615 0.058084 0.773312 -0.185542
C38   C     C_R   0.098965 0.597441 0.225962 -0.178250
C39   C     C_R   0.866365 0.053563 0.709371 0.008469
C40   C     C_R   0.135474 0.615094 0.289600 0.008368
C41   C     C_R   0.805850 0.058784 0.700190 -0.162846
C42   C     C_R   0.196009 0.610787 0.298689 -0.172805
C43   C     C_R   0.779895 0.076845 0.753456 0.103595
C44   C     C_R   0.221629 0.593759 0.245198 0.106926
C45   C     C_R   0.817160 0.047606 0.818354 0.014679
C46   C     C_R   0.183822 0.545149 0.181915 0.010970
C47   C     C_R   0.717588 0.106730 0.743733 0.032550
C48   C     C_R   0.284321 0.605754 0.254613 0.034739
C49   C     C_R   0.693660 0.083902 0.798759 -0.026242
C50   C     C_R   0.308382 0.538476 0.203654 -0.026826
C51   C     C_R   0.730038 0.030554 0.859045 -0.181542
C52   C     C_R   0.271070 0.477388 0.144740 -0.177829
C53   C     C_R   0.789941 0.009692 0.869355 -0.046254
C54   C     C_R   0.210703 0.480171 0.133114 -0.038571
C55   C     C_R   0.677878 0.157278 0.682013 -0.123611
C56   C     C_R   0.324333 0.676981 0.313111 -0.130096
C57   C     C_R   0.594906 0.132099 0.730259 0.350517
C58   C     C_R   0.407475 0.570677 0.273867 0.360505
C59   C     C_R   0.879553 0.051310 0.828122 -0.091811
C60   C     C_R   0.121398 0.559665 0.171823 -0.095801
H11   H     H_    0.949605 0.059237 0.780764 0.155156
H12   H     H_    0.052071 0.607613 0.218476 0.156373
H13   H     H_    0.779633 0.041773 0.650665 0.155090
H14   H     H_    0.222793 0.612373 0.348659 0.150113
O11   O     O_R   0.053190 0.709680 0.082610 -0.540725
O12   O     O_R   0.946810 0.209680 0.917390 -0.541543
O13   O     O_R   0.057740 0.380240 0.950340 -0.542296
O14   O     O_R   0.942260 0.880240 0.049660 -0.540320
C61   C     C_R   0.069699 0.548200 0.930550 0.718720
C62   C     C_R   0.930297 0.049764 0.069391 0.728927
O15   O     O_R   0.060000 0.379940 0.084150 -0.507711
O16   O     O_R   0.940000 0.879940 0.915850 -0.508661
O17   O     O_R   0.949110 0.210100 0.052140 -0.508746
O18   O     O_R   0.050890 0.710100 0.947860 -0.509199
C63   C     C_R   0.076985 0.549029 0.106735 0.679926
C64   C     C_R   0.923393 0.047857 0.893201 0.687745
O19   O     O_3   0.963630 0.543720 0.989330 -0.361628
O20   O     O_3   0.036370 0.043720 0.010670 -0.361173
V3    V     V_3+5 0.006750 0.268680 0.001980 1.560532
V4    V     V_3+5 0.993250 0.768680 0.998020 1.560677
C65   C     C_2   0.818717 0.746155 0.211278 0.755151
O21   O     O_2   0.854332 0.639687 0.243910 -0.539844
O22   O     O_R   0.759098 0.705147 0.193934 -0.664271
H15   H     H_    0.750043 0.579419 0.208586 0.285453
C66   C     C_2   0.189108 0.236177 0.797139 0.776005
O23   O     O_2   0.160982 0.140390 0.752182 -0.539457
O24   O     O_R   0.245463 0.187041 0.832515 -0.662279
H16   H     H_    0.257879 0.061691 0.820437 0.280568
C67   C     C_2   0.607473 0.104020 0.850863 0.778209
O25   O     O_2   0.630978 0.189948 0.900790 -0.576952
O26   O     O_R   0.555161 0.012147 0.847573 -0.630342
H17   H     H_    0.542061 0.024532 0.889711 0.314386
C68   C     C_2   0.395903 0.452427 0.160585 0.771135
O27   O     O_2   0.385134 0.526800 0.106791 -0.569652
O28   O     O_R   0.434375 0.304001 0.173673 -0.639545
H18   H     H_    0.449882 0.269685 0.134476 0.299729
C69   C     C_2   0.698692 0.250859 0.629928 0.703706
O29   O     O_2   0.679133 0.209669 0.571864 -0.595364
O30   O     O_R   0.741996 0.384632 0.648042 -0.652400
H19   H     H_    0.757607 0.423516 0.609739 0.295616
C70   C     C_2   0.305530 0.815625 0.355449 0.744621
O31   O     O_2   0.322715 0.807381 0.415456 -0.562289
O32   O     O_R   0.268183 0.957101 0.326004 -0.651112
H20   H     H_    0.259505 0.046866 0.359308 0.292437
C71   C     C_2   0.891575 0.043863 0.651552 0.789261
O33   O     O_2   0.944458 0.034900 0.659540 -0.536049
O34   O     O_R   0.854881 0.045167 0.587590 -0.670187
H21   H     H_    0.877199 0.037745 0.552458 0.313711
C72   C     C_2   0.110437 0.638837 0.347155 0.780756
O35   O     O_2   0.057536 0.646279 0.339201 -0.533573
O36   O     O_R   0.147302 0.652415 0.410838 -0.680758
H22   H     H_    0.125084 0.668242 0.445807 0.304831
C73   C     C_2   0.817571 0.913416 0.930530 0.666400
O37   O     O_2   0.842635 0.768030 0.928536 -0.543799
O38   O     O_R   0.804382 0.971309 0.988421 -0.698579
H23   H     H_    0.812195 0.875908 0.023869 0.273607
C74   C     C_2   0.181092 0.384692 0.072235 0.673539
O39   O     O_2   0.154920 0.242338 0.074535 -0.544252
O40   O     O_R   0.193899 0.438676 0.014074 -0.695000
H24   H     H_    0.181467 0.348300 0.976915 0.277627
O41   O     O_3   0.876416 0.388819 0.093862 -0.561743
C75   C     C_3   0.826578 0.487804 0.059592 0.028276
H25   H     H_    0.843899 0.602490 0.036770 0.183492
H26   H     H_    0.802284 0.548819 0.093051 0.121000
C76   C     C_3   0.785959 0.378682 0.003462 -0.302869
H27   H     H_    0.811271 0.328843 0.968991 0.223932
H28   H     H_    0.767390 0.260595 0.023953 0.230017
C77   C     C_3   0.734986 0.495550 0.965652 -0.721858
H29   H     H_    0.704563 0.524834 0.996784 0.241675
H30   H     H_    0.711288 0.421651 0.920438 0.265034
H31   H     H_    0.750294 0.626507 0.950237 0.236342
O42   O     O_3   0.121891 0.884356 0.903465 -0.566036
C78   C     C_3   0.172672 0.965374 0.944473 0.008854
H32   H     H_    0.156385 0.073320 0.971720 0.193685
H33   H     H_    0.199479 0.030819 0.915039 0.137410
C79   C     C_3   0.209900 0.837331 0.996586 -0.310772
H34   H     H_    0.182154 0.780227 0.026863 0.221867
H35   H     H_    0.227984 0.724953 0.971909 0.228289
C80   C     C_3   0.261422 0.937952 0.041810 -0.730203
H36   H     H_    0.289108 0.000468 0.012499 0.239471
H37   H     H_    0.288379 0.839638 0.077038 0.251285
H38   H     H_    0.245993 0.046399 0.070477 0.247421
C81   C     C_2   0.695243 0.785130 0.317611 0.758331
O43   O     O_2   0.659595 0.670271 0.290425 -0.564304
O44   O     O_R   0.755214 0.748928 0.332439 -0.657193
H39   H     H_    0.765420 0.624189 0.317682 0.295836
C82   C     C_2   0.333858 0.287296 0.708399 0.755203
O45   O     O_2   0.378211 0.197375 0.729715 -0.550221
O46   O     O_R   0.279914 0.216504 0.710665 -0.657259
H40   H     H_    0.283328 0.085930 0.726891 0.295593
O47   O     O_3   0.641509 0.468710 0.415714 -0.559552
C83   C     C_3   0.692060 0.536516 0.461224 0.052487
H41   H     H_    0.718286 0.616552 0.434645 0.150586
H42   H     H_    0.720170 0.425500 0.488959 0.132392
C84   C     C_3   0.673244 0.661158 0.510866 -0.269645
H43   H     H_    0.635962 0.747499 0.485248 0.220433
H44   H     H_    0.658388 0.576105 0.546986 0.216046
C85   C     C_3   0.722264 0.787257 0.547141 -0.768073
H45   H     H_    0.763282 0.710199 0.567223 0.233869
H46   H     H_    0.708810 0.853886 0.588506 0.238021
H47   H     H_    0.730380 0.894337 0.513300 0.260139
O48   O     O_3   0.338291 0.929601 0.557082 -0.549269
C86   C     C_3   0.291204 0.054628 0.548209 0.106321
H48   H     H_    0.302576 0.174058 0.521557 0.151254
H49   H     H_    0.286469 0.111795 0.595362 0.124339
C87   C     C_3   0.233687 0.974589 0.505776 -0.332618
H50   H     H_    0.239359 0.930657 0.457254 0.244317
H51   H     H_    0.220249 0.852734 0.529315 0.206956
C88   C     C_3   0.184761 0.116248 0.494734 -0.765697
H52   H     H_    0.177285 0.160366 0.542667 0.251943
H53   H     H_    0.143834 0.055383 0.463880 0.252721
H54   H     H_    0.196010 0.237543 0.468903 0.236484
O49   O     O_3   0.535902 0.152007 0.725943 -0.549532
C89   C     C_3   0.517367 0.337661 0.717288 0.104729
H55   H     H_    0.477151 0.349153 0.734570 0.196031
H56   H     H_    0.504833 0.369864 0.664345 0.130866
C90   C     C_3   0.559965 0.484477 0.755352 -0.441648
H57   H     H_    0.568590 0.461571 0.809229 0.231098
H58   H     H_    0.602005 0.480391 0.741286 0.200100
C91   C     C_3   0.534443 0.675174 0.739399 -0.671090
H59   H     H_    0.524463 0.700547 0.685554 0.210792
H60   H     H_    0.567261 0.776490 0.764659 0.260731
H61   H     H_    0.494132 0.692283 0.756486 0.252541
O50   O     O_3   0.466892 0.538789 0.283779 -0.555031
C92   C     C_3   0.497208 0.705289 0.282766 0.070671
H62   H     H_    0.544079 0.675988 0.304440 0.193079
H63   H     H_    0.484644 0.814420 0.313726 0.099785
C93   C     C_3   0.490088 0.775374 0.212393 -0.317834
H64   H     H_    0.501818 0.664889 0.181410 0.233964
H65   H     H_    0.444008 0.816401 0.190866 0.202980
C94   C     C_3   0.528818 0.941160 0.211510 -0.729722
H66   H     H_    0.519917 0.051173 0.244484 0.253389
H67   H     H_    0.520006 0.994757 0.160567 0.236181
H68   H     H_    0.575449 0.901624 0.227581 0.251134

loop_
_geom_bond_atom_site_label_1
_geom_bond_atom_site_label_2
_ccdc_geom_bond_type
C44   C46   A    
O46   H40   S    
C41   C43   A    
C81   O43   D    
O18   V4    S    
C13   H3    S    
C51   C53   A    
C82   O45   D    
C35   C57   A    
C58   O50   S    
C67   O25   D    
O1    C3    A    
O2    C4    A    
C2    O7    A    
C88   H53   S    
O12   V3    S    
C70   O31   D    
C29   H7    S    
C72   O36   S    
C94   H66   S    
O5    C3    A    
C6    C16   A    
C52   C54   A    
C1    C36   S    
C87   C88   S    
C87   H51   S    
C48   C56   A    
C7    H1    S    
C37   H11   S    
O34   H21   S    
C4    C25   S    
C89   C90   S    
C21   C31   A    
C53   C73   S    
C86   H49   S    
C78   H33   S    
C59   C64   S    
O16   C64   A    
O41   C75   S    
C57   O49   S    
O48   C86   S    
C33   C57   A    
C38   C40   A    
C28   O48   S    
C47   C49   A    
C6    C66   S    
O14   V4    S    
C40   C42   A    
C79   C80   S    
C5    C7    A    
C61   O18   A    
C83   H41   S    
C38   C60   A    
C67   O26   S    
C76   H27   S    
C85   H46   S    
C43   C45   A    
C77   H31   S    
C92   C93   S    
C66   O23   D    
C15   C17   S    
O13   C61   A    
C24   C26   A    
C18   C20   T    
C20   C32   S    
C85   H47   S    
C36   C58   A    
O3    C1    A    
C33   C67   S    
C30   H8    S    
O32   H20   S    
C90   H57   S    
O6    V2    S    
C41   H13   S    
C78   C79   S    
C79   H35   S    
C66   O24   S    
C2    C35   S    
C82   O46   S    
C11   O41   S    
C75   C76   S    
C42   H14   S    
C80   H37   S    
C26   C28   A    
C80   H36   S    
C34   C58   A    
C27   C29   A    
C23   C25   A    
C74   O39   D    
C28   C30   A    
C37   C39   A    
H10   C52   S    
C91   H59   S    
C13   C15   A    
C92   H62   S    
C8    C10   A    
C73   O37   D    
C76   C77   S    
C50   C52   A    
O15   V3    S    
O44   H39   S    
C49   C51   A    
O50   C92   S    
C75   H25   S    
C86   C87   S    
C29   C31   A    
O5    V1    S    
C68   O28   S    
O47   C83   S    
C91   H61   S    
C62   O17   A    
C88   H52   S    
C87   H50   S    
C16   C18   S    
C79   H34   S    
O4    V2    S    
C7    C9    A    
C71   O34   S    
C56   C70   S    
C27   O47   S    
C90   C91   S    
O11   V4    S    
O14   C62   A    
C14   C16   A    
O6    C4    A    
C84   C85   S    
C34   C68   S    
C39   C41   A    
O42   C78   S    
C34   C50   A    
C3    C26   S    
C65   O22   S    
O1    V2    S    
O2    V1    S    
C25   C27   A    
C83   C84   S    
O16   V4    S    
O30   H19   S    
C69   O30   S    
C91   H60   S    
C84   H43   S    
C75   H26   S    
C8    H2    S    
C45   C59   A    
C93   H65   S    
O40   H24   S    
C19   C31   S    
O36   H22   S    
C5    C15   A    
C60   C63   S    
C77   H30   S    
C12   O42   S    
O4    C2    A    
C45   C53   A    
C38   H12   S    
C71   O33   D    
C33   C49   A    
C10   C61   S    
O15   C63   A    
C78   H32   S    
C80   H38   S    
O3    V1    S    
C85   H45   S    
C22   C82   S    
C92   H63   S    
O26   H17   S    
O22   H15   S    
C94   H68   S    
C9    C62   S    
C73   O38   S    
O13   V3    S    
C77   H29   S    
C40   C72   S    
C23   H5    S    
C37   C59   A    
C10   C12   A    
C89   H55   S    
C55   C69   S    
C21   C81   S    
C69   O29   D    
C39   C71   S    
C46   C54   A    
C93   C94   S    
C76   H28   S    
O38   H23   S    
C12   C14   A    
C46   C60   A    
C35   C55   A    
C14   H4    S    
C5    C65   S    
C94   H67   S    
C1    O8    A    
C21   C23   A    
O8    V2    S    
O28   H18   S    
C22   C24   A    
C74   O40   S    
C47   C55   A    
C86   H48   S    
C44   C48   A    
C43   C47   A    
C24   H6    S    
O20   V3    S    
C17   C19   T    
C84   H44   S    
C6    C8    A    
C9    C11   A    
O7    V1    S    
C83   H42   S    
C88   H54   S    
C89   H56   S    
C70   O32   S    
C36   C56   A    
O49   C89   S    
H9    C51   S    
O17   V3    S    
C30   C32   A    
O19   V4    S    
C22   C32   A    
C54   C74   S    
C81   O44   S    
C93   H64   S    
O9    V2    S    
C65   O21   D    
C90   H58   S    
O10   V1    S    
C48   C50   A    
C68   O27   D    
O24   H16   S    
O12   C64   A    
C72   O35   D    
C42   C44   A    
O11   C63   A    
C11   C13   A    
