data_mof_unit_12481.cif
_audit_creation_date              2012-12-10T17:21:19-0500
_audit_creation_method            fapswitch 2.2
_symmetry_space_group_name_H-M    P1
_symmetry_Int_Tables_number       1
_space_group_crystal_system       triclinic
_cell_length_a                    9.684757
_cell_length_b                    10.825191
_cell_length_c                    13.864423
_cell_angle_alpha                 93.969682
_cell_angle_beta                  84.293536
_cell_angle_gamma                 90.368793
_cell_volume                      1442.86365008

loop_
_atom_site_label
_atom_site_type_symbol
_atom_type_description
_atom_site_fract_x
_atom_site_fract_y
_atom_site_fract_z
_atom_type_partial_charge
C1    C     C_R   0.500496 0.736854 0.500721 0.975958
C2    C     C_1   0.462589 0.504785 0.786487 0.001978
C3    C     C_R   0.469567 0.886492 0.686077 0.562588
C4    C     C_R   0.440075 0.957995 0.772860 -0.312764
C5    C     C_R   0.419356 0.084364 0.771959 0.569066
C6    C     C_R   0.432929 0.141163 0.684380 0.500489
C7    C     C_R   0.470132 0.072162 0.594983 -0.225060
C8    C     C_R   0.481052 0.941640 0.595606 -0.155908
C9    C     C_R   0.501699 0.870705 0.505804 -0.189407
C10   C     C_R   0.518253 0.927262 0.418036 0.529272
C11   C     C_R   0.516228 0.055209 0.417154 0.237777
C12   C     C_R   0.476979 0.503049 0.682854 1.002539
C13   C     C_R   0.494883 0.128494 0.505048 -0.191159
C14   C     C_R   0.879984 0.361513 0.347521 0.583592
C15   C     C_R   0.962473 0.320462 0.264144 0.160692
C16   C     C_R   0.103280 0.318375 0.265466 -0.306619
C17   C     C_R   0.161517 0.358459 0.349089 0.603882
C18   C     C_R   0.084722 0.430480 0.426777 -0.034280
C19   C     C_R   0.935562 0.431445 0.426282 -0.040313
C20   C     C_R   0.916387 0.567721 0.567401 -0.039835
C21   C     C_R   0.063094 0.569426 0.567003 0.352969
C22   C     C_R   0.498980 0.262724 0.501143 1.022390
C23   C     C_R   0.523144 0.499738 0.317270 0.906301
C24   C     C_1   0.537487 0.498160 0.213768 -0.031112
C25   C     C_2   0.556048 0.495593 0.022656 -0.260421
C26   C     C_2   0.441454 0.506061 0.977558 0.676557
C27   C     C_1   0.451854 0.505570 0.873607 -0.008531
C28   C     C_1   0.547381 0.496791 0.126642 0.175090
Cu1   Cu    Cu3+1 0.359340 0.500010 0.500010 1.122211
Cu2   Cu    Cu3+1 0.640660 0.499990 0.499990 1.069521
H1    H     H_    0.166839 0.271194 0.205494 0.255395
H2    H     H_    0.657442 0.486448 0.981550 0.143472
H3    H     H_    0.431032 0.914556 0.841251 0.227809
H4    H     H_    0.853599 0.624119 0.622327 0.171351
N1    N     N_R   0.852210 0.498790 0.499090 -0.189147
N2    N     N_R   0.148080 0.498710 0.499060 -0.194605
O1    O     O_R   0.381190 0.680360 0.500010 -0.556111
O2    O     O_R   0.618760 0.680340 0.500000 -0.574258
O3    O     O_R   0.364420 0.499990 0.637850 -0.508792
O4    O     O_R   0.601990 0.499960 0.637840 -0.602965
O5    O     O_R   0.381240 0.319660 0.500000 -0.487986
O6    O     O_R   0.618810 0.319640 0.499990 -0.526314
O7    O     O_R   0.398010 0.500040 0.362160 -0.544634
O8    O     O_R   0.635580 0.500010 0.362150 -0.541901
F1    F     F_    0.314249 0.517383 0.028708 -0.601826
F2    F     F_    0.753386 0.311887 0.352430 -0.605843
Br1   Br    Br    0.882498 0.242745 0.154336 -0.288734
F3    F     F_    0.285833 0.307744 0.353570 -0.620894
Br2   Br    Br    0.136314 0.680621 0.662539 -0.406692
F4    F     F_    0.536186 0.856916 0.332581 -0.633104
F5    F     F_    0.489293 0.763972 0.692389 -0.690612
F6    F     F_    0.384792 0.152522 0.856663 -0.582030
F7    F     F_    0.400388 0.262077 0.688040 -0.674918
Br3   Br    Br    0.535787 0.125529 0.292857 -0.224121

loop_
_geom_bond_atom_site_label_1
_geom_bond_atom_site_label_2
_ccdc_geom_bond_type
C12   O4    A    
C23   C24   S    
C5    F6    S    
Cu1   Cu2   S    
C1    O1    A    
C9    C10   A    
C17   F3    S    
C15   Br1   S    
C2    C12   S    
Cu1   O3    S    
C12   O3    A    
C21   Br2   S    
C17   C18   A    
Cu2   O4    S    
C7    C8    A    
C14   F2    S    
C21   N2    A    
C19   N1    A    
Cu1   O7    S    
C25   C28   S    
C11   C13   A    
Cu1   N2    S    
Cu2   O8    S    
C26   C27   S    
C2    C27   T    
C11   Br3   S    
Cu2   N1    S    
C25   H2    S    
C4    C5    A    
C1    O2    A    
C13   C22   S    
C3    C8    A    
C6    C7    A    
C5    C6    A    
C22   O5    A    
C10   C11   A    
C6    F7    S    
Cu1   O1    S    
C3    C4    A    
C10   F4    S    
C1    C9    S    
C24   C28   T    
C7    C13   A    
C23   O7    A    
C20   C21   A    
Cu2   O2    S    
C18   C19   A    
C20   H4    S    
C22   O6    A    
C3    F5    S    
C14   C15   A    
C16   C17   A    
C26   F1    S    
Cu1   O5    S    
C25   C26   D    
C4    H3    S    
C20   N1    A    
C18   N2    A    
C14   C19   A    
Cu2   O6    S    
C23   O8    A    
C15   C16   A    
C8    C9    A    
C16   H1    S    
