data_mof_unit_25273.cif
_audit_creation_date              2012-10-26T18:28:19-0400
_audit_creation_method            fapswitch 2.2
_symmetry_space_group_name_H-M    P1
_symmetry_Int_Tables_number       1
_space_group_crystal_system       triclinic
_cell_length_a                    27.737549
_cell_length_b                    11.012372
_cell_length_c                    9.967608
_cell_angle_alpha                 110.957426
_cell_angle_beta                  98.391751
_cell_angle_gamma                 92.40247
_cell_volume                      2798.1757455

loop_
_atom_site_label
_atom_site_type_symbol
_atom_type_description
_atom_site_fract_x
_atom_site_fract_y
_atom_site_fract_z
_atom_type_partial_charge
C1    C     C_R   0.496993 0.254354 0.440614 0.564626
C2    C     C_R   0.875106 0.430446 0.583494 0.032760
C3    C     C_R   0.355014 0.488806 0.499675 -0.061737
C4    C     C_R   0.645089 0.505173 0.499222 -0.058379
C5    C     C_R   0.977995 0.437746 0.595785 0.018806
C6    C     C_R   0.021322 0.522150 0.398083 0.019792
C7    C     C_R   0.970416 0.528355 0.400906 0.017942
C8    C     C_R   0.029705 0.447458 0.605526 0.018750
C9    C     C_R   0.948816 0.482523 0.496937 0.035280
C10   C     C_R   0.050930 0.485755 0.503587 0.035487
C11   C     C_R   0.954202 0.383681 0.680940 -0.140269
C12   C     C_R   0.504122 0.745691 0.559045 0.576320
C13   C     C_R   0.043809 0.550349 0.292477 -0.139411
C14   C     C_R   0.903751 0.379838 0.674344 -0.104823
C15   C     C_R   0.093952 0.548430 0.294588 -0.107856
C16   C     C_R   0.407813 0.496032 0.499657 0.555102
C17   C     C_R   0.592225 0.502220 0.499937 0.573997
C18   C     C_R   0.061204 0.421524 0.715079 -0.138229
C19   C     C_R   0.940224 0.580358 0.311911 -0.137583
C20   C     C_2   0.495426 0.114294 0.406728 -0.108363
C21   C     C_2   0.509051 0.885579 0.590818 -0.099936
C22   C     C_2   0.509603 0.068819 0.511850 -0.148098
C23   C     C_R   0.102344 0.487534 0.507087 -0.025135
C24   C     C_2   0.504055 0.929606 0.481469 -0.140288
C25   C     C_2   0.507609 0.501671 0.077618 0.279828
C26   C     C_2   0.498010 0.481882 0.918756 0.291070
C27   C     C_R   0.183223 0.459985 0.616652 0.441830
C28   C     C_R   0.818063 0.536046 0.406705 0.402987
C29   C     C_R   0.174402 0.517694 0.405985 0.405006
C30   C     C_R   0.824368 0.431508 0.579975 0.443486
C31   C     C_R   0.286455 0.598481 0.594352 0.124346
C32   C     C_R   0.711966 0.391874 0.397054 0.126567
C33   C     C_R   0.336170 0.599465 0.587721 -0.099846
C34   C     C_R   0.897477 0.481993 0.494567 -0.026008
C35   C     C_R   0.662062 0.399614 0.396748 -0.109483
C36   C     C_R   0.323846 0.372353 0.418813 0.003167
C37   C     C_R   0.678577 0.608295 0.602124 -0.000211
C38   C     C_R   0.272952 0.371308 0.422624 0.072370
C39   C     C_R   0.729479 0.603215 0.600015 0.064106
C40   C     C_R   0.254594 0.484986 0.511474 0.200430
C41   C     C_R   0.745887 0.492983 0.498898 0.201453
C42   C     C_2   0.344615 0.248990 0.342291 0.603715
C43   C     C_2   0.660344 0.720637 0.710669 0.630047
C44   C     C_2   0.238474 0.254155 0.329745 0.644606
C45   C     C_R   0.132532 0.457967 0.615461 0.031507
C46   C     C_2   0.765510 0.715337 0.696558 0.638844
C47   C     C_R   0.868440 0.533574 0.403774 0.026645
C48   C     C_R   0.111587 0.426921 0.719807 -0.101150
C49   C     C_R   0.890302 0.583179 0.313892 -0.100173
C50   C     C_R   0.123659 0.518646 0.402041 0.029279
Cu1   Cu    Cu3+1 0.508480 0.521810 0.644910 1.020396
Cu2   Cu    Cu3+1 0.491520 0.478190 0.355090 0.987275
H1    H     H_    0.517470 0.952842 0.703738 0.110268
H2    H     H_    0.023470 0.571156 0.203911 0.110642
H3    H     H_    0.048176 0.399793 0.801487 0.112519
H4    H     H_    0.954273 0.623419 0.242131 0.117176
H5    H     H_    0.494842 0.862904 0.368362 0.153497
H6    H     H_    0.524682 0.134401 0.622007 0.149963
H7    H     H_    0.349191 0.059087 0.312806 0.346771
H8    H     H_    0.612761 0.857643 0.748964 0.341891
H9    H     H_    0.492938 0.290775 0.786971 0.231563
H10   H     H_    0.444509 0.373380 0.744629 0.282674
H11   H     H_    0.578595 0.496038 0.161807 0.262623
H12   H     H_    0.481685 0.047833 0.295519 0.117346
H13   H     H_    0.552426 0.636322 0.256240 0.278446
H14   H     H_    0.575900 0.683351 0.997401 0.273806
H15   H     H_    0.518053 0.723322 0.031323 0.218172
H16   H     H_    0.420552 0.317794 0.076449 0.296985
H17   H     H_    0.408832 0.474910 0.119463 0.263753
H18   H     H_    0.178994 0.133514 0.311112 0.344513
H19   H     H_    0.830073 0.777732 0.834414 0.343387
H20   H     H_    0.750728 0.234913 0.348546 0.263950
H21   H     H_    0.748009 0.312441 0.228788 0.266805
H22   H     H_    0.251626 0.693410 0.760754 0.265971
H23   H     H_    0.134092 0.405975 0.805752 0.180410
H24   H     H_    0.242310 0.743685 0.617933 0.261954
H25   H     H_    0.868864 0.624780 0.244324 0.181555
H26   H     H_    0.636308 0.320667 0.318336 0.154971
H27   H     H_    0.360327 0.687764 0.651113 0.156865
H28   H     H_    0.887326 0.337819 0.742127 0.172544
H29   H     H_    0.109349 0.570513 0.211082 0.167355
H30   H     H_    0.973446 0.340449 0.751694 0.115041
N1    N     N_R   0.202916 0.488111 0.511846 -0.388441
N2    N     N_3   0.268635 0.715047 0.683928 -0.586060
N3    N     N_R   0.797240 0.486070 0.494538 -0.391230
N4    N     N_2   0.478780 0.445430 0.137360 -0.166456
N5    N     N_2   0.521220 0.554570 0.862640 -0.148361
N6    N     N_3   0.469554 0.361707 0.826287 -0.579653
N7    N     N_3   0.554841 0.565599 0.155502 -0.650683
N8    N     N_3   0.539536 0.682907 0.951258 -0.476969
N9    N     N_3   0.430769 0.405355 0.064860 -0.485710
N10   N     N_3   0.727710 0.280238 0.292358 -0.586036
O1    O     O_R   0.504520 0.332330 0.577400 -0.529460
O2    O     O_2   0.790058 0.588174 0.322906 -0.468178
O3    O     O_2   0.802363 0.380622 0.662983 -0.457100
O4    O     O_2   0.195176 0.545941 0.304937 -0.478207
O5    O     O_2   0.371113 0.244487 0.253264 -0.501587
O6    O     O_R   0.333043 0.137054 0.371291 -0.660018
O7    O     O_2   0.678924 0.758538 0.839580 -0.463356
O8    O     O_R   0.621928 0.782871 0.665167 -0.682895
O9    O     O_2   0.243618 0.193452 0.204143 -0.462788
O10   O     O_R   0.200001 0.213553 0.385227 -0.661385
O11   O     O_2   0.757681 0.826761 0.707883 -0.462105
O12   O     O_R   0.495480 0.667670 0.422600 -0.523155
O13   O     O_R   0.808459 0.693794 0.773652 -0.662599
O14   O     O_R   0.490210 0.295500 0.332650 -0.468928
O15   O     O_R   0.509790 0.704500 0.667350 -0.451264
O16   O     O_R   0.437420 0.518430 0.622370 -0.518447
O17   O     O_R   0.562580 0.481570 0.377630 -0.524920
O18   O     O_R   0.423110 0.481600 0.377610 -0.469175
O19   O     O_R   0.576890 0.518400 0.622390 -0.454473
O20   O     O_2   0.212574 0.432340 0.720216 -0.454624

loop_
_geom_bond_atom_site_label_1
_geom_bond_atom_site_label_2
_ccdc_geom_bond_type
C19   H4    S    
C21   H1    S    
Cu2   N4    S    
C28   C47   A    
C37   C43   S    
C23   C45   A    
C36   C42   S    
C48   H23   S    
H24   N2    S    
C16   O18   A    
C47   C49   A    
H13   N7    S    
Cu2   O17   S    
C43   O7    D    
C5    C11   A    
N4    N9    S    
C42   O6    S    
H20   N10   S    
C11   C14   A    
C3    C33   A    
C46   O13   S    
H16   N9    S    
C31   C40   A    
C28   O2    S    
C26   N5    D    
C15   C50   A    
Cu1   O16   S    
C32   C41   A    
C31   C33   A    
C14   H28   S    
C1    O14   A    
C2    C34   A    
C4    C35   A    
Cu2   O14   S    
C40   N1    S    
C29   N1    A    
C17   O19   A    
C38   C44   S    
C29   C50   A    
C11   H30   S    
Cu1   Cu2   S    
C32   C35   A    
C43   O8    S    
C15   H29   S    
C42   O5    D    
Cu1   N5    S    
C44   O10   S    
C24   H5    S    
C23   C50   A    
C25   C26   S    
H10   N6    S    
C12   C21   S    
C1    O1    A    
C8    C18   A    
C31   N2    S    
C17   O17   A    
C20   H12   S    
C5    C9    A    
C30   O3    S    
H9    N6    S    
C12   O15   A    
C19   C49   A    
Cu2   O18   S    
H11   N7    S    
C30   N3    A    
C18   H3    S    
Cu1   O1    S    
C39   C46   S    
C4    C17   S    
C26   N6    S    
C20   C22   D    
C27   O20   S    
C7    C19   A    
C13   C15   A    
C9    C34   A    
C22   C24   S    
C21   C24   D    
C5    C8    A    
C13   H2    S    
C45   C48   A    
C7    C9    A    
Cu2   O12   S    
C1    C20   S    
Cu1   O19   S    
C8    C10   A    
C33   H27   S    
H21   N10   S    
H22   N2    S    
H8    O8    S    
C18   C48   A    
C22   H6    S    
C29   O4    S    
C44   O9    D    
H18   O10   S    
C12   O12   A    
C6    C7    A    
C10   C23   A    
C41   N3    S    
C46   O11   D    
C35   H26   S    
C25   N7    S    
C2    C30   A    
H19   O13   S    
C37   C39   A    
C6    C13   A    
C38   C40   A    
C27   C45   A    
C32   N10   S    
C3    C36   A    
C36   C38   A    
C25   N4    D    
H14   N8    S    
C49   H25   S    
H15   N8    S    
C2    C14   A    
C6    C10   A    
C16   O16   A    
C27   N1    A    
C4    C37   A    
C39   C41   A    
Cu1   O15   S    
N5    N8    S    
C28   N3    A    
H7    O6    S    
C34   C47   A    
H17   N9    S    
C3    C16   S    
