data_mof_unit_21844.cif
_audit_creation_date              2012-12-11T17:07:32-0500
_audit_creation_method            fapswitch 2.2
_symmetry_space_group_name_H-M    P1
_symmetry_Int_Tables_number       1
_space_group_crystal_system       triclinic
_cell_length_a                    17.451769
_cell_length_b                    17.072176
_cell_length_c                    17.528343
_cell_angle_alpha                 89.408655
_cell_angle_beta                  91.179782
_cell_angle_gamma                 91.197368
_cell_volume                      5219.88603067

loop_
_atom_site_label
_atom_site_type_symbol
_atom_type_description
_atom_site_fract_x
_atom_site_fract_y
_atom_site_fract_z
_atom_type_partial_charge
Br1   Br    Br    0.949353 0.158677 0.768295 -0.541924
Br2   Br    Br    0.422150 0.411621 0.345611 -0.460599
Br3   Br    Br    0.649439 0.045484 0.093100 -0.513670
Br4   Br    Br    0.595998 0.546281 0.329130 -0.419879
Br5   Br    Br    0.322804 0.049856 0.956611 -0.551122
Br6   Br    Br    0.404708 0.580926 0.667186 -0.556320
Br7   Br    Br    0.674262 0.953858 0.919833 -0.545316
Br8   Br    Br    0.933960 0.378526 0.892147 -0.646025
Br9   Br    Br    0.922281 0.911353 0.845550 -0.460819
Br10  Br    Br    0.149415 0.545475 0.593182 -0.513659
Br11  Br    Br    0.096073 0.046169 0.828930 -0.419962
Br12  Br    Br    0.822933 0.549806 0.456484 -0.551085
Br13  Br    Br    0.904698 0.080870 0.167242 -0.556380
Br14  Br    Br    0.174100 0.453858 0.419892 -0.544995
Br15  Br    Br    0.433915 0.878419 0.392147 -0.646030
Br16  Br    Br    0.449216 0.658608 0.268247 -0.541655
C1    C     C_R   0.389378 0.300194 0.904253 0.263814
C2    C     C_R   0.194252 0.895398 0.395457 0.281887
C3    C     C_R   0.684769 0.787741 0.339396 0.190402
C4    C     C_R   0.170888 0.266825 0.763248 0.246033
C5    C     C_R   0.315884 0.792516 0.662214 0.213963
C6    C     C_R   0.837492 0.728178 0.766112 0.237311
C7    C     C_R   0.709730 0.203889 0.706258 0.241642
C8    C     C_R   0.689064 0.210222 0.782645 0.209813
C9    C     C_R   0.817914 0.707353 0.840885 0.217516
C10   C     C_R   0.334576 0.773717 0.738149 0.254730
C11   C     C_R   0.184783 0.287747 0.839367 0.190333
C12   C     C_R   0.670843 0.766808 0.263284 0.246026
C13   C     C_R   0.110547 0.199525 0.402687 0.257735
C14   C     C_R   0.815875 0.292513 0.162224 0.214004
C15   C     C_R   0.337550 0.228274 0.266225 0.237361
C16   C     C_R   0.209643 0.704194 0.205887 0.241459
C17   C     C_3   0.419634 0.222565 0.927442 -0.929421
C18   C     C_3   0.769226 0.426462 0.920852 -0.957429
C19   C     C_3   0.580273 0.777810 0.921361 -0.925089
C20   C     C_3   0.229031 0.584005 0.890880 -1.013615
C21   C     C_3   0.408470 0.773716 0.057079 -1.006714
C22   C     C_3   0.768974 0.580476 0.120672 -1.058315
C23   C     C_3   0.572415 0.222067 0.085006 -0.938972
C24   C     C_R   0.812309 0.099420 0.375762 0.305812
C25   C     C_3   0.231391 0.415707 0.115409 -1.044810
C26   C     C_3   0.919617 0.722568 0.427455 -0.929285
C27   C     C_3   0.269214 0.926452 0.420780 -0.957315
C28   C     C_3   0.080239 0.277800 0.421404 -0.925049
C29   C     C_3   0.729031 0.083991 0.390883 -1.013664
C30   C     C_3   0.908365 0.273707 0.557142 -1.006622
C31   C     C_3   0.268995 0.080525 0.620554 -1.058310
C32   C     C_3   0.072432 0.722067 0.585016 -0.938978
C33   C     C_3   0.731366 0.915650 0.615333 -1.044794
C34   C     C_3   0.962172 0.327215 0.734614 -0.899018
C35   C     C_R   0.894245 0.198378 0.599595 0.324954
C36   C     C_3   0.791180 0.998724 0.796886 -0.823626
C37   C     C_3   0.286313 0.618368 0.536261 -0.856188
C38   C     C_3   0.248598 0.997669 0.804806 -0.899063
C39   C     C_3   0.678654 0.625323 0.467601 -0.802513
C40   C     C_3   0.767891 0.002613 0.217085 -0.888817
C41   C     C_3   0.305624 0.369094 0.473109 -0.829470
C42   C     C_3   0.373661 0.723543 0.408236 -0.861041
C43   C     C_3   0.462188 0.827154 0.234625 -0.899159
C44   C     C_3   0.290940 0.498812 0.296934 -0.823696
C45   C     C_3   0.786379 0.118366 0.036265 -0.856236
C46   C     C_R   0.185151 0.094391 0.630172 0.328197
C47   C     C_3   0.748454 0.497651 0.304789 -0.898817
C48   C     C_3   0.178484 0.125335 0.967472 -0.802392
C49   C     C_3   0.267950 0.502624 0.717096 -0.888772
C50   C     C_3   0.805722 0.869012 0.973075 -0.829360
C51   C     C_3   0.873876 0.223592 0.908330 -0.861076
C52   C     C_3   0.132540 0.650596 0.313714 -0.903497
C53   C     C_3   0.369833 0.156219 0.388985 -0.934059
C54   C     C_3   0.879394 0.333275 0.285203 -0.953017
C55   C     C_3   0.628403 0.834395 0.382675 -0.910153
C56   C     C_3   0.159378 0.331222 0.704527 -0.952532
C57   C     C_R   0.108313 0.800809 0.598332 0.270034
C58   C     C_3   0.370253 0.843078 0.616485 -0.914194
C59   C     C_3   0.876046 0.668128 0.718014 -0.921412
C60   C     C_3   0.651614 0.173040 0.648068 -0.966776
C61   C     C_3   0.632823 0.150367 0.814291 -0.902978
C62   C     C_3   0.869847 0.656116 0.888845 -0.933877
C63   C     C_3   0.379448 0.833274 0.785171 -0.953148
C64   C     C_3   0.128403 0.334401 0.882629 -0.910151
C65   C     C_3   0.659350 0.831200 0.204556 -0.952625
C66   C     C_3   0.870264 0.343079 0.116523 -0.914356
C67   C     C_3   0.376147 0.168225 0.218160 -0.921438
C68   C     C_R   0.815200 0.901162 0.626818 0.313909
C69   C     C_3   0.151595 0.673491 0.147553 -0.966355
C70   C     C_3   0.908697 0.264466 0.769621 0.438434
C71   C     C_3   0.810723 0.918794 0.831413 0.422716
C72   C     C_3   0.244314 0.606736 0.611129 0.444937
C73   C     C_R   0.694272 0.395388 0.895514 0.281929
C74   C     C_3   0.205996 0.068886 0.833037 0.467087
C75   C     C_3   0.737921 0.605632 0.407135 0.392597
C76   C     C_3   0.792875 0.079611 0.179738 0.422656
C77   C     C_3   0.262315 0.389575 0.398355 0.410844
C78   C     C_3   0.377234 0.787575 0.346803 0.423990
C79   C     C_3   0.408638 0.764433 0.269567 0.438542
C80   C     C_3   0.310585 0.418906 0.331457 0.422748
C81   C     C_3   0.744336 0.106730 0.111108 0.445003
C82   C     C_3   0.705944 0.568895 0.333098 0.467137
C83   C     C_3   0.237855 0.105642 0.907110 0.392654
C84   C     C_R   0.610561 0.699518 0.902674 0.257793
C85   C     C_3   0.292892 0.579629 0.679735 0.422637
C86   C     C_3   0.762432 0.889512 0.898315 0.410818
C87   C     C_3   0.877342 0.287610 0.846875 0.423946
C88   C     C_R   0.413543 0.680975 0.865376 -0.185179
C89   C     C_R   0.302247 0.392464 0.900344 -0.200829
C90   C     C_R   0.601131 0.305785 0.888834 -0.191360
C91   C     C_R   0.695782 0.606033 0.896025 -0.185566
C92   C     C_R   0.415635 0.322048 0.137940 -0.166085
C93   C     C_R   0.307762 0.602536 0.111783 -0.195494
C94   C     C_R   0.587332 0.677036 0.137108 -0.109403
C95   C     C_R   0.312310 0.599429 0.875763 0.305756
C96   C     C_R   0.697181 0.394181 0.100726 -0.193865
C97   C     C_R   0.913535 0.180976 0.365377 -0.185109
C98   C     C_R   0.802247 0.892466 0.400341 -0.200790
C99   C     C_R   0.101132 0.805770 0.388862 -0.191196
C100  C     C_R   0.195784 0.106054 0.396038 -0.185429
C101  C     C_R   0.915608 0.822004 0.637900 -0.165988
C102  C     C_R   0.807786 0.102472 0.611859 -0.195733
C103  C     C_R   0.087364 0.177062 0.637084 -0.109296
C104  C     C_R   0.197177 0.894202 0.600767 -0.193726
C105  C     C_R   0.311923 0.313190 0.890024 0.075127
C106  C     C_R   0.394263 0.698403 0.099531 0.324956
C107  C     C_R   0.677577 0.319238 0.872124 0.069939
C108  C     C_R   0.687091 0.685355 0.886180 0.075294
C109  C     C_R   0.341487 0.664481 0.835770 0.100829
C110  C     C_R   0.323348 0.680309 0.128652 0.103749
C111  C     C_R   0.656403 0.656120 0.171556 0.102135
C112  C     C_R   0.686256 0.314823 0.112501 0.076425
C113  C     C_R   0.345901 0.338828 0.168997 0.089577
C114  C     C_R   0.811922 0.813192 0.390023 0.075108
C115  C     C_R   0.177544 0.819246 0.372061 0.069893
C116  C     C_R   0.187079 0.185381 0.386203 0.075310
C117  C     C_R   0.685121 0.594366 0.130215 0.328118
C118  C     C_R   0.841478 0.164473 0.335769 0.100820
C119  C     C_R   0.823351 0.180232 0.628777 0.103901
C120  C     C_R   0.156452 0.156152 0.671513 0.102035
C121  C     C_R   0.186256 0.814837 0.612524 0.076431
C122  C     C_R   0.845860 0.838761 0.668927 0.089458
C123  C     C_R   0.798995 0.297923 0.806789 -0.034200
C124  C     C_R   0.737213 0.819082 0.851047 -0.021038
C125  C     C_R   0.265236 0.651444 0.718479 -0.065921
C126  C     C_R   0.264162 0.176992 0.860875 -0.043575
C127  C     C_R   0.731244 0.643636 0.294181 -0.090082
C128  C     C_R   0.608308 0.300804 0.098326 0.269975
C129  C     C_R   0.727996 0.181902 0.153266 -0.041625
C130  C     C_R   0.275822 0.351233 0.287882 -0.088929
C131  C     C_R   0.328581 0.772302 0.238194 -0.079401
C132  C     C_R   0.298926 0.797954 0.306649 -0.034285
C133  C     C_R   0.237158 0.319129 0.351075 -0.021173
C134  C     C_R   0.765222 0.151435 0.218471 -0.065931
C135  C     C_R   0.764171 0.676989 0.360876 -0.043543
C136  C     C_R   0.231296 0.143648 0.794145 -0.090003
C137  C     C_R   0.227991 0.681912 0.653288 -0.041568
C138  C     C_R   0.775865 0.851169 0.787842 -0.088979
C139  C     C_R   0.315226 0.401206 0.126863 0.314026
C140  C     C_R   0.828604 0.272251 0.738314 -0.079435
C141  C     C_R   0.726895 0.267323 0.829245 -0.031400
C142  C     C_R   0.751876 0.740701 0.871237 -0.031315
C143  C     C_R   0.309136 0.699968 0.766792 0.008245
C144  C     C_R   0.248178 0.255613 0.877200 -0.008011
C145  C     C_R   0.689279 0.690129 0.241681 0.021217
C146  C     C_R   0.748373 0.258738 0.129519 -0.038636
C147  C     C_R   0.315520 0.303122 0.238658 0.016542
C148  C     C_R   0.285034 0.725501 0.186533 0.006092
C149  C     C_R   0.226777 0.767396 0.329012 -0.031440
C150  C     C_R   0.889375 0.800195 0.404254 0.263753
C151  C     C_R   0.251847 0.240757 0.371282 -0.031280
C152  C     C_R   0.809115 0.199959 0.266794 0.008263
C153  C     C_R   0.748181 0.755610 0.377208 -0.008061
C154  C     C_R   0.189343 0.190152 0.741636 0.021319
C155  C     C_R   0.248368 0.758747 0.629534 -0.038681
C156  C     C_R   0.815480 0.803041 0.738575 0.016595
C157  C     C_R   0.785052 0.225343 0.686745 0.006135
C158  C     C_R   0.188873 0.710463 0.282249 0.210278
C159  C     C_R   0.317923 0.207442 0.340984 0.217520
C160  C     C_R   0.834543 0.273716 0.238165 0.254591
H1    H     H_    0.455501 0.722392 0.845119 0.164866
H2    H     H_    0.748728 0.921137 0.406665 0.151564
H3    H     H_    0.744607 0.449174 0.347343 0.286872
H4    H     H_    0.206654 0.159779 0.014004 0.238353
H5    H     H_    0.131007 0.160502 0.942859 0.253059
H6    H     H_    0.154182 0.070448 0.992486 0.284812
H7    H     H_    0.273691 0.454779 0.675468 0.275611
H8    H     H_    0.305597 0.489165 0.766928 0.259920
H9    H     H_    0.208003 0.505531 0.735858 0.248137
H10   H     H_    0.832255 0.922815 0.997968 0.276977
H11   H     H_    0.764987 0.843341 0.014787 0.242797
H12   H     H_    0.851190 0.825725 0.964180 0.251435
H13   H     H_    0.067975 0.753744 0.381485 0.152437
H14   H     H_    0.842848 0.247438 0.956970 0.231189
H15   H     H_    0.842803 0.170218 0.887873 0.257211
H16   H     H_    0.932507 0.208017 0.928198 0.300048
H17   H     H_    0.073389 0.662958 0.293092 0.248005
H18   H     H_    0.146167 0.591511 0.293706 0.267548
H19   H     H_    0.136326 0.647362 0.377016 0.268911
H20   H     H_    0.373656 0.096815 0.364420 0.264767
H21   H     H_    0.428255 0.183227 0.391242 0.273520
H22   H     H_    0.349589 0.151205 0.448561 0.244385
H23   H     H_    0.941456 0.330471 0.273157 0.258707
H24   H     H_    0.248234 0.075561 0.394992 0.152654
H25   H     H_    0.860762 0.392960 0.269997 0.260555
H26   H     H_    0.868616 0.326099 0.347067 0.257690
H27   H     H_    0.619557 0.892893 0.356275 0.263115
H28   H     H_    0.573674 0.800527 0.383814 0.296260
H29   H     H_    0.647214 0.842014 0.443142 0.247889
H30   H     H_    0.154204 0.388429 0.732210 0.270245
H31   H     H_    0.209566 0.333721 0.666693 0.251912
H32   H     H_    0.107964 0.324712 0.668120 0.255366
H33   H     H_    0.373385 0.903932 0.638073 0.245947
H34   H     H_    0.428465 0.818088 0.620175 0.277208
H35   H     H_    0.957360 0.782522 0.660773 0.162297
H36   H     H_    0.353005 0.843822 0.555792 0.256819
H37   H     H_    0.938442 0.667417 0.731596 0.260085
H38   H     H_    0.851268 0.608902 0.729875 0.260742
H39   H     H_    0.865577 0.678458 0.656142 0.251984
H40   H     H_    0.637261 0.110383 0.659182 0.249973
H41   H     H_    0.598319 0.207125 0.651526 0.265844
H42   H     H_    0.672288 0.180110 0.588862 0.254099
H43   H     H_    0.573668 0.162462 0.793504 0.247952
H44   H     H_    0.646647 0.091232 0.794587 0.267999
H45   H     H_    0.636480 0.147466 0.877612 0.268803
H46   H     H_    0.756094 0.069406 0.622141 0.151358
H47   H     H_    0.873629 0.596710 0.864276 0.264778
H48   H     H_    0.928279 0.683105 0.891052 0.273550
H49   H     H_    0.849654 0.651115 0.948440 0.244303
H50   H     H_    0.441510 0.830443 0.773125 0.258715
H51   H     H_    0.360836 0.892965 0.769953 0.260547
H52   H     H_    0.368665 0.826116 0.847036 0.257678
H53   H     H_    0.119576 0.392906 0.856236 0.263114
H54   H     H_    0.073669 0.300539 0.883737 0.296221
H55   H     H_    0.147188 0.342007 0.943105 0.247914
H56   H     H_    0.654151 0.888408 0.232233 0.270252
H57   H     H_    0.047668 0.218709 0.655430 0.156992
H58   H     H_    0.709558 0.833702 0.166748 0.251945
H59   H     H_    0.607958 0.824675 0.168120 0.255367
H60   H     H_    0.873370 0.403935 0.138107 0.245967
H61   H     H_    0.928480 0.318101 0.120252 0.277182
H62   H     H_    0.853057 0.343812 0.055821 0.256800
H63   H     H_    0.438545 0.167569 0.231740 0.260037
H64   H     H_    0.351416 0.108985 0.230051 0.260740
H65   H     H_    0.365661 0.178508 0.156284 0.252013
H66   H     H_    0.137126 0.610842 0.158562 0.249850
H67   H     H_    0.098343 0.707655 0.150937 0.265898
H68   H     H_    0.251027 0.924459 0.595080 0.153218
H69   H     H_    0.172410 0.680581 0.088399 0.254089
H70   H     H_    0.420667 0.182878 0.877763 0.272129
H71   H     H_    0.383816 0.198113 0.973665 0.280315
H72   H     H_    0.477301 0.228598 0.951875 0.237011
H73   H     H_    0.248727 0.421132 0.906674 0.151557
H74   H     H_    0.798327 0.378025 0.949805 0.272981
H75   H     H_    0.799448 0.451812 0.871099 0.283533
H76   H     H_    0.763389 0.471402 0.965130 0.231904
H77   H     H_    0.521504 0.772259 0.942438 0.240322
H78   H     H_    0.616285 0.804352 0.967499 0.282829
H79   H     H_    0.579434 0.815661 0.869557 0.275660
H80   H     H_    0.206016 0.534224 0.857549 0.250420
H81   H     H_    0.221424 0.570504 0.952404 0.248159
H82   H     H_    0.195077 0.636538 0.876199 0.266152
H83   H     H_    0.380131 0.823125 0.085065 0.280087
H84   H     H_    0.567912 0.253819 0.881294 0.152487
H85   H     H_    0.470735 0.786357 0.054276 0.248298
H86   H     H_    0.384209 0.769036 0.998302 0.257911
H87   H     H_    0.780094 0.564496 0.060873 0.249574
H88   H     H_    0.802706 0.634863 0.133221 0.263241
H89   H     H_    0.789758 0.533714 0.159101 0.256022
H90   H     H_    0.511848 0.226277 0.067828 0.239357
H91   H     H_    0.602529 0.193074 0.038277 0.279866
H92   H     H_    0.574611 0.187068 0.138592 0.278271
H93   H     H_    0.200127 0.358874 0.108140 0.264400
H94   H     H_    0.207632 0.445860 0.164680 0.257745
H95   H     H_    0.748225 0.575530 0.894981 0.152658
H96   H     H_    0.221450 0.451177 0.062820 0.248679
H97   H     H_    0.920682 0.682885 0.377772 0.272183
H98   H     H_    0.883774 0.698114 0.473658 0.280245
H99   H     H_    0.977265 0.728606 0.451925 0.236984
H100  H     H_    0.298290 0.878008 0.449746 0.272974
H101  H     H_    0.299444 0.951794 0.371027 0.283546
H102  H     H_    0.263390 0.971385 0.465060 0.231766
H103  H     H_    0.021476 0.272221 0.442493 0.240305
H104  H     H_    0.116250 0.304335 0.467546 0.282800
H105  H     H_    0.079378 0.315665 0.369611 0.275682
H106  H     H_    0.457400 0.282579 0.160813 0.162272
H107  H     H_    0.706009 0.034230 0.357529 0.250424
H108  H     H_    0.721432 0.070457 0.452403 0.248162
H109  H     H_    0.695079 0.136535 0.376234 0.266141
H110  H     H_    0.880014 0.323089 0.585158 0.280063
H111  H     H_    0.970619 0.286393 0.554285 0.248305
H112  H     H_    0.884063 0.269014 0.498381 0.257917
H113  H     H_    0.279994 0.063985 0.560872 0.249431
H114  H     H_    0.302660 0.135107 0.632518 0.263162
H115  H     H_    0.289950 0.034142 0.659346 0.256203
H116  H     H_    0.011868 0.726264 0.567830 0.239321
H117  H     H_    0.256023 0.569526 0.122018 0.151188
H118  H     H_    0.102556 0.693068 0.538298 0.279891
H119  H     H_    0.074620 0.687078 0.638610 0.278286
H120  H     H_    0.707559 0.945699 0.664641 0.257761
H121  H     H_    0.721446 0.951205 0.562795 0.248680
H122  H     H_    0.700131 0.858818 0.607950 0.264382
H123  H     H_    0.976416 0.314584 0.676312 0.239576
H124  H     H_    0.935625 0.385877 0.733143 0.275191
H125  H     H_    0.016589 0.330417 0.767461 0.289531
H126  H     H_    0.801243 0.045032 0.840059 0.275316
H127  H     H_    0.828382 0.011774 0.747657 0.274233
H128  H     H_    0.547628 0.718671 0.155459 0.157021
H129  H     H_    0.730916 0.999879 0.776742 0.221191
H130  H     H_    0.303313 0.560924 0.513812 0.291169
H131  H     H_    0.247742 0.646881 0.493640 0.247568
H132  H     H_    0.338366 0.655469 0.545065 0.259374
H133  H     H_    0.221287 0.975756 0.751276 0.253621
H134  H     H_    0.309799 0.012746 0.794640 0.245931
H135  H     H_    0.244723 0.949200 0.847373 0.286969
H136  H     H_    0.706912 0.659736 0.514106 0.238326
H137  H     H_    0.631154 0.660520 0.443076 0.253073
H138  H     H_    0.654371 0.570435 0.492630 0.284792
H139  H     H_    0.751037 0.424392 0.094941 0.153213
H140  H     H_    0.773637 0.954769 0.175458 0.275636
H141  H     H_    0.805512 0.989139 0.266933 0.259918
H142  H     H_    0.707934 0.005539 0.235820 0.248150
H143  H     H_    0.332115 0.422909 0.498016 0.276978
H144  H     H_    0.264910 0.343376 0.514816 0.242765
H145  H     H_    0.351128 0.325851 0.464201 0.251437
H146  H     H_    0.342611 0.747406 0.456855 0.231143
H147  H     H_    0.342556 0.670205 0.387741 0.257128
H148  H     H_    0.432262 0.707906 0.428148 0.300153
H149  H     H_    0.476418 0.814572 0.176309 0.239564
H150  H     H_    0.955487 0.222402 0.345123 0.164858
H151  H     H_    0.435707 0.885848 0.233199 0.275228
H152  H     H_    0.516598 0.830259 0.267490 0.289566
H153  H     H_    0.301044 0.545133 0.340084 0.275309
H154  H     H_    0.328056 0.511872 0.247645 0.274115
H155  H     H_    0.230639 0.499939 0.276900 0.221428
H156  H     H_    0.803372 0.060920 0.013813 0.291206
H157  H     H_    0.747843 0.146907 0.993631 0.247553
H158  H     H_    0.838439 0.155446 0.045105 0.259362
H159  H     H_    0.721058 0.475778 0.251290 0.253651
H160  H     H_    0.809642 0.512691 0.294537 0.245969
N1    N     N_R   0.425360 0.368540 0.922560 -0.051282
N2    N     N_R   0.131460 0.925360 0.422560 -0.050091
N3    N     N_R   0.074640 0.131460 0.422560 -0.050387
N4    N     N_R   0.868540 0.074640 0.422560 -0.055991
N5    N     N_R   0.925360 0.131460 0.577440 -0.035812
N6    N     N_R   0.131460 0.074640 0.577440 -0.057769
N7    N     N_R   0.074640 0.868540 0.577440 -0.046304
N8    N     N_R   0.868540 0.925360 0.577440 -0.052363
N9    N     N_R   0.425340 0.631500 0.922560 -0.059784
N10   N     N_R   0.368500 0.425340 0.922560 -0.053206
N11   N     N_R   0.574660 0.368500 0.922560 -0.053673
N12   N     N_R   0.631460 0.425360 0.922560 -0.050063
N13   N     N_R   0.631500 0.574660 0.922560 -0.052226
N14   N     N_R   0.425340 0.368500 0.077440 -0.057863
N15   N     N_R   0.368500 0.574660 0.077440 -0.044057
N16   N     N_R   0.574660 0.631500 0.077440 -0.061912
N17   N     N_R   0.631500 0.425340 0.077440 -0.044300
N18   N     N_R   0.925340 0.131500 0.422560 -0.059788
N19   N     N_R   0.868500 0.925340 0.422560 -0.053188
N20   N     N_R   0.074660 0.868500 0.422560 -0.053693
N21   N     N_R   0.131500 0.074660 0.422560 -0.052236
N22   N     N_R   0.925340 0.868500 0.577440 -0.057853
N23   N     N_R   0.574640 0.631460 0.922560 -0.050385
N24   N     N_R   0.868500 0.074660 0.577440 -0.044099
N25   N     N_R   0.074660 0.131500 0.577440 -0.061895
N26   N     N_R   0.131500 0.925340 0.577440 -0.044309
N27   N     N_R   0.368540 0.574640 0.922560 -0.056001
N28   N     N_R   0.425360 0.631460 0.077440 -0.035787
N29   N     N_R   0.631460 0.574640 0.077440 -0.057790
N30   N     N_R   0.574640 0.368540 0.077440 -0.046318
N31   N     N_R   0.368540 0.425360 0.077440 -0.052368
N32   N     N_R   0.925360 0.868540 0.422560 -0.051271
Ni1   Ni    Ni4+2 0.500000 0.369720 0.000000 0.222296
Ni2   Ni    Ni4+2 0.630280 0.500000 0.000000 0.218289
Ni3   Ni    Ni4+2 0.500000 0.630280 0.000000 0.224666
Ni4   Ni    Ni4+2 0.369720 0.500000 0.000000 0.219989
Ni5   Ni    Ni4+2 0.000000 0.869720 0.500000 0.222308
Ni6   Ni    Ni4+2 0.130280 0.000000 0.500000 0.218284
Ni7   Ni    Ni4+2 1.000000 0.130280 0.500000 0.224678
Ni8   Ni    Ni4+2 0.869720 0.000000 0.500000 0.219981

loop_
_geom_bond_atom_site_label_1
_geom_bond_atom_site_label_2
_ccdc_geom_bond_type
C4    C154  A    
C5    C10   A    
C29   H107  S    
C50   H12   S    
Br12  C75   S    
C31   H115  S    
N18   Ni7   S    
C119  C157  S    
C42   H148  S    
C47   C82   S    
C131  C148  A    
C53   H21   S    
C23   H91   S    
C88   N9    A    
C13   C116  A    
C25   H96   S    
C70   C140  S    
C38   H135  S    
C34   H124  S    
N19   Ni8   S    
Br7   C86   S    
C108  C142  S    
C95   C109  A    
C19   H78   S    
N16   Ni3   S    
N31   Ni4   S    
C44   H155  S    
C94   N16   A    
C127  C135  A    
C132  C149  A    
C98   C114  A    
N2    N20   A    
C91   C108  A    
C34   H125  S    
C14   C160  A    
C1    N1    A    
C140  C157  A    
C30   H110  S    
C37   H132  S    
C74   C136  S    
C56   H30   S    
C27   H100  S    
N11   Ni1   S    
C84   C108  A    
C14   C66   S    
N23   Ni3   S    
C39   H136  S    
C67   H63   S    
C136  C154  A    
C24   N4    A    
C60   H41   S    
N4    Ni8   S    
C134  C152  A    
C20   C95   S    
C112  C146  S    
C139  N31   A    
C17   H70   S    
N6    Ni6   S    
C33   H121  S    
C112  C128  A    
N5    N24   A    
C50   H10   S    
C13   C28   S    
C14   C146  A    
C31   H113  S    
C32   H118  S    
C57   N7    A    
C40   H141  S    
C81   C129  S    
C42   H146  S    
C21   H83   S    
C64   H54   S    
C100  N21   A    
C103  C120  A    
Br2   C80   S    
C11   C144  A    
C38   H133  S    
N17   N30   A    
N7    N26   A    
C93   H117  S    
N19   N32   A    
C59   H39   S    
C69   H66   S    
C52   H19   S    
C75   C82   S    
C150  N32   A    
C99   H13   S    
C8    C61   S    
C55   H29   S    
C123  C141  A    
C102  N24   A    
C96   N17   A    
C53   C159  S    
C54   C160  S    
C127  C145  A    
C40   H140  S    
C62   H48   S    
C54   H26   S    
C49   H9    S    
C102  H46   S    
C3    C55   S    
C131  C132  A    
C49   C85   S    
C7    C60   S    
C31   C46   S    
C51   C87   S    
C56   H32   S    
Br10  C72   S    
C57   C121  A    
C33   C68   S    
C38   C74   S    
C22   H88   S    
C114  C153  S    
C17   H72   S    
N3    Ni7   S    
C21   H86   S    
C124  C142  A    
C103  H57   S    
C48   C83   S    
C41   H145  S    
C98   H2    S    
C6    C9    A    
C27   H101  S    
C7    C8    A    
C65   H59   S    
C25   H93   S    
N10   Ni4   S    
C92   N14   A    
Br14  C77   S    
C129  C134  A    
C48   H6    S    
C96   H139  S    
N26   Ni6   S    
C19   H79   S    
C36   H127  S    
C137  C155  A    
C33   H122  S    
C44   H154  S    
C76   C81   S    
C78   C132  S    
C55   H28   S    
C58   H33   S    
C138  C156  A    
C9    C62   S    
C68   N8    A    
C79   C131  S    
C11   C64   S    
C39   H138  S    
C51   H16   S    
C61   H43   S    
C107  C141  S    
C149  C158  A    
C24   C118  A    
C30   C35   S    
C59   H37   S    
C43   H151  S    
C26   H98   S    
C97   H150  S    
C88   H1    S    
C100  C116  A    
C35   N5    A    
C47   H159  S    
C3    C12   A    
N22   Ni5   S    
N30   Ni1   S    
C52   H17   S    
N1    N10   A    
C120  C154  S    
C13   N3    A    
C53   H22   S    
C118  C152  S    
N6    N25   A    
N2    Ni6   S    
C19   C84   S    
C74   C83   S    
C151  C159  A    
Br1   C70   S    
C152  C160  A    
C67   H64   S    
C91   N13   A    
N8    N22   A    
N20   Ni5   S    
C80   C130  S    
N16   N29   A    
C135  C153  A    
N4    N18   A    
C18   C73   S    
C22   H87   S    
Br9   C71   S    
C125  C137  A    
C28   H104  S    
C16   C148  A    
C93   C110  A    
C23   C128  S    
C115  C149  S    
C9    C142  A    
C19   H77   S    
C36   H129  S    
C4    C56   S    
C52   H18   S    
N12   Ni2   S    
C103  N25   A    
C25   C139  S    
C49   H8    S    
N9    Ni3   S    
C66   H60   S    
C63   H52   S    
C77   C133  S    
C101  C122  A    
C133  C151  A    
C116  C151  S    
C51   H14   S    
C73   N12   A    
C97   N18   A    
C20   H80   S    
C117  N29   A    
C43   H149  S    
C30   H111  S    
C37   H131  S    
N28   Ni3   S    
C22   H89   S    
Br4   C82   S    
C66   H61   S    
N14   N31   A    
C29   H109  S    
C113  C147  S    
C41   H144  S    
C89   N10   A    
C126  C136  A    
C39   C75   S    
C88   C109  A    
Br5   C83   S    
C60   H42   S    
C105  C144  S    
C18   H75   S    
C45   H158  S    
C63   H50   S    
C62   H49   S    
C128  N30   A    
C29   H108  S    
C50   H11   S    
C2    C115  A    
C1    C17   S    
Br15  C78   S    
C2    N2    A    
C24   C29   S    
C91   H95   S    
C36   H126  S    
C42   H147  S    
C101  H35   S    
N11   N12   A    
C113  C139  A    
C23   H92   S    
C15   C159  A    
C5    C155  A    
C122  C156  S    
C58   H36   S    
C38   H134  S    
C34   H123  S    
C32   H116  S    
C130  C133  A    
C114  C150  A    
C71   C138  S    
C10   C143  A    
C86   C124  S    
C26   H99   S    
C44   C80   S    
C1    C105  A    
C97   C118  A    
Br13  C76   S    
C76   C134  S    
N3    N21   A    
C32   C57   S    
C45   C81   S    
C111  C117  A    
C45   H157  S    
C109  C143  S    
C7    C157  A    
C4    C11   A    
C67   H65   S    
C10   C63   S    
C89   H73   S    
C2    C27   S    
C72   C137  S    
C16   C158  A    
C48   H4    S    
C16   C69   S    
C17   H71   S    
C40   H142  S    
N13   Ni2   S    
C45   H156  S    
C78   C79   S    
Br8   C87   S    
C21   H85   S    
N27   Ni4   S    
C96   C112  A    
N15   N28   A    
C21   C106  S    
C65   H58   S    
C104  C121  A    
N17   Ni2   S    
C31   H114  S    
C102  C119  A    
C26   C150  S    
C95   N27   A    
C54   H23   S    
C94   H128  S    
C82   C127  S    
C50   C86   S    
C83   C126  S    
C64   H53   S    
N13   N23   A    
C72   C85   S    
C23   H90   S    
C47   H3    S    
C99   C115  A    
C55   H27   S    
C58   H34   S    
N21   Ni6   S    
N7    Ni5   S    
C39   H137  S    
N32   Ni5   S    
C100  H24   S    
C51   H15   S    
Br6   C85   S    
C129  C146  A    
C69   H67   S    
C15   C67   S    
C33   H120  S    
C104  H68   S    
C22   C117  S    
C46   C120  A    
N5    Ni7   S    
C60   H40   S    
C26   H97   S    
C35   C119  A    
C65   H56   S    
C90   C107  A    
C106  N28   A    
N8    Ni8   S    
C94   C111  A    
C54   H25   S    
C68   C122  A    
C111  C145  S    
C41   C77   S    
C90   H84   S    
C28   H103  S    
C43   C79   S    
C6    C59   S    
C110  C148  S    
C70   C87   S    
C63   H51   S    
N14   Ni1   S    
C125  C143  A    
C56   H31   S    
C15   C147  A    
C99   N20   A    
C12   C145  A    
C18   H74   S    
C52   C158  S    
C73   C107  A    
C98   N19   A    
C5    C58   S    
C53   H20   S    
C106  C110  A    
C87   C123  S    
C71   C86   S    
C93   N15   A    
N15   Ni4   S    
N9    N27   A    
C90   N11   A    
C89   C105  A    
C25   H94   S    
C20   H81   S    
C46   N6    A    
C92   C113  A    
C32   H119  S    
N29   Ni2   S    
C48   H5    S    
C61   H45   S    
C77   C80   S    
C20   H82   S    
C8    C141  A    
C64   H55   S    
C44   H153  S    
C92   H106  S    
C49   H7    S    
Br16  C79   S    
Br3   C81   S    
C12   C65   S    
C85   C125  S    
C36   C71   S    
C3    C153  A    
C126  C144  A    
C61   H44   S    
C130  C147  A    
C62   H47   S    
C59   H38   S    
C43   H152  S    
C30   H112  S    
C37   H130  S    
C42   C78   S    
C69   H69   S    
C75   C135  S    
Br11  C74   S    
C27   H102  S    
C123  C140  A    
C28   H105  S    
C66   H62   S    
C41   H143  S    
C37   C72   S    
C47   H160  S    
C121  C155  S    
C34   C70   S    
C40   C76   S    
N1    Ni1   S    
N25   Ni7   S    
C18   H76   S    
C104  N26   A    
C84   N23   A    
C6    C156  A    
C124  C138  A    
C101  N22   A    
N24   Ni8   S    
