data_mof_unit_21511.cif
_audit_creation_date              2012-12-10T20:31:56-0500
_audit_creation_method            fapswitch 2.2
_symmetry_space_group_name_H-M    P1
_symmetry_Int_Tables_number       1
_space_group_crystal_system       triclinic
_cell_length_a                    9.873139
_cell_length_b                    10.737387
_cell_length_c                    15.463036
_cell_angle_alpha                 90.19125
_cell_angle_beta                  67.936437
_cell_angle_gamma                 90.038994
_cell_volume                      1519.20720751

loop_
_atom_site_label
_atom_site_type_symbol
_atom_type_description
_atom_site_fract_x
_atom_site_fract_y
_atom_site_fract_z
_atom_type_partial_charge
C1    C     C_R   0.499645 0.739416 0.500946 0.871558
C2    C     C_R   0.396295 0.558662 0.917522 0.098119
C3    C     C_R   0.253416 0.516134 0.971645 0.174874
C4    C     C_R   0.496254 0.587092 0.960919 0.071544
C5    C     C_R   0.458867 0.553738 0.055430 0.068083
C6    C     C_R   0.312425 0.520188 0.109066 -0.240044
C7    C     C_R   0.210876 0.503787 0.067728 -0.241986
C8    C     C_R   0.633525 0.644096 0.912712 -0.234627
C9    C     C_R   0.735920 0.657416 0.953964 -0.241302
C10   C     C_R   0.706257 0.611808 0.043382 0.170279
C11   C     C_R   0.568823 0.556520 0.093508 0.089564
C12   C     C_R   0.408268 0.502684 0.676043 0.868605
C13   C     C_R   0.811274 0.621973 0.084181 -0.226582
C14   C     C_R   0.779445 0.579630 0.174975 -0.215821
C15   C     C_R   0.546058 0.503674 0.180032 -0.257775
C16   C     C_R   0.392327 0.937369 0.486820 -0.024097
C17   C     C_R   0.500395 0.870553 0.502439 -0.128610
C18   C     C_R   0.612681 0.935451 0.518442 -0.198947
C19   C     C_R   0.612913 0.064763 0.517886 -0.221783
C20   C     C_R   0.500702 0.129182 0.501512 -0.073931
C21   C     C_R   0.391846 0.061787 0.486839 0.036552
C22   C     C_3   0.256030 0.072450 0.466281 -0.545495
C23   C     C_R   0.500066 0.260479 0.500110 0.886495
C24   C     C_3   0.254581 0.928778 0.467194 0.356506
C25   C     C_R   0.903923 0.593580 0.543147 0.242985
C26   C     C_R   0.957235 0.414065 0.450291 -0.144541
C27   C     C_R   0.101131 0.413997 0.450342 -0.134676
C28   C     C_R   0.046924 0.594206 0.542393 0.258852
C29   C     C_3   0.996072 0.628540 0.642830 -0.529046
C30   C     C_3   0.841610 0.624470 0.644644 -0.547902
C31   C     C_R   0.591157 0.501466 0.323911 0.858173
C32   C     C_R   0.348447 0.514438 0.777505 -0.056330
C33   C     C_R   0.645000 0.522134 0.223460 -0.058875
C34   C     C_R   0.156844 0.481735 0.928368 -0.216502
C35   C     C_R   0.204681 0.479815 0.831368 -0.201656
C36   C     C_R   0.439457 0.559636 0.820601 -0.269515
H1    H     H_    0.100769 0.475104 0.110502 0.150069
H2    H     H_    0.915660 0.666276 0.047110 0.148809
H3    H     H_    0.699520 0.887211 0.531417 0.168857
H4    H     H_    0.700010 0.113393 0.530437 0.169227
H5    H     H_    0.164317 0.114871 0.525203 0.181341
H6    H     H_    0.277014 0.114518 0.396872 0.202093
H7    H     H_    0.162338 0.890004 0.527441 0.095533
H8    H     H_    0.925693 0.343240 0.411591 0.148629
H9    H     H_    0.178048 0.343199 0.411616 0.145023
H10   H     H_    0.018642 0.554929 0.686029 0.216994
H11   H     H_    0.449064 0.449962 0.216578 0.150111
H12   H     H_    0.031754 0.723670 0.653307 0.193494
H13   H     H_    0.778255 0.545632 0.686952 0.221134
H14   H     H_    0.785895 0.716487 0.658841 0.194536
H15   H     H_    0.856950 0.595706 0.208154 0.160387
H16   H     H_    0.839595 0.701816 0.915091 0.152738
H17   H     H_    0.047086 0.450325 0.969280 0.150944
H18   H     H_    0.131495 0.447147 0.798708 0.152336
H19   H     H_    0.547030 0.588623 0.776605 0.146792
H20   H     H_    0.272527 0.508008 0.183721 0.150530
H21   H     H_    0.663193 0.682928 0.843888 0.152211
N1    N     N_R   0.856900 0.500860 0.500610 -0.106979
N2    N     N_R   0.142540 0.500820 0.500610 -0.105718
O1    O     O_R   0.385310 0.683210 0.499990 -0.608127
O2    O     O_R   0.614650 0.683240 0.500000 -0.619964
O3    O     O_R   0.319830 0.499970 0.632240 -0.620270
O4    O     O_R   0.549170 0.500000 0.632250 -0.613275
O5    O     O_R   0.385350 0.316760 0.500000 -0.615677
O6    O     O_R   0.614690 0.316790 0.500010 -0.626598
O7    O     O_R   0.450830 0.500000 0.367750 -0.611907
O8    O     O_R   0.680170 0.500030 0.367760 -0.614737
Zn1   Zn    Zn3+2 0.346870 0.499980 0.499990 0.948427
Zn2   Zn    Zn3+2 0.653130 0.500020 0.500010 0.940984
O9    O     O_3   0.261676 0.874220 0.381232 -0.590601
C37   C     C_3   0.402708 0.874151 0.309723 0.155953
H22   H     H_    0.475259 0.807407 0.326457 0.147478
H23   H     H_    0.452443 0.968641 0.298650 0.131099
C38   C     C_3   0.390657 0.831783 0.218991 -0.811335
H24   H     H_    0.321156 0.897637 0.198705 0.251080
H25   H     H_    0.500949 0.828474 0.162642 0.212614
H26   H     H_    0.341223 0.737472 0.227847 0.263619

loop_
_geom_bond_atom_site_label_1
_geom_bond_atom_site_label_2
_ccdc_geom_bond_type
C8    C9    A    
C31   O7    A    
O7    Zn1   S    
C16   C21   A    
C19   C20   A    
C15   H11   S    
C4    C8    A    
C14   C33   A    
C26   H8    S    
C25   C28   A    
C31   O8    A    
C26   C27   A    
C38   H25   S    
C32   C36   A    
C28   C29   S    
C5    C11   A    
C3    C7    A    
C5    C6    A    
N2    Zn1   S    
C22   H5    S    
O2    Zn2   S    
C34   C35   A    
C11   C15   A    
O4    Zn2   S    
C16   C17   A    
C38   H26   S    
C31   C33   S    
O9    C37   S    
C9    C10   A    
C27   H9    S    
C30   H14   S    
C16   C24   S    
C21   C22   S    
C12   C32   S    
C35   H18   S    
C9    H16   S    
C38   H24   S    
C29   H12   S    
C24   O9    S    
C32   C35   A    
C19   H4    S    
C1    O1    A    
C37   H23   S    
C12   O4    A    
C18   C19   A    
C3    C34   A    
O8    Zn2   S    
C2    C4    A    
C18   H3    S    
C29   C30   S    
C8    H21   S    
C12   O3    A    
C14   H15   S    
C20   C23   S    
C17   C18   A    
C7    H1    S    
C26   N1    A    
C13   H2    S    
C23   O5    A    
C30   H13   S    
C22   C24   S    
C25   N1    A    
O5    Zn1   S    
C28   N2    A    
C2    C36   A    
C25   C30   S    
C6    H20   S    
C4    C5    A    
C10   C13   A    
C1    O2    A    
C37   C38   S    
N1    Zn2   S    
C6    C7    A    
C1    C17   S    
O3    Zn1   S    
C29   H10   S    
C23   O6    A    
C2    C3    A    
C37   H22   S    
C36   H19   S    
C27   N2    A    
C22   H6    S    
O6    Zn2   S    
C10   C11   A    
C20   C21   A    
O1    Zn1   S    
C34   H17   S    
C24   H7    S    
C13   C14   A    
C15   C33   A    
