data_mof_unit_26927.cif
_audit_creation_date              2012-12-10T17:24:16-0500
_audit_creation_method            fapswitch 2.2
_symmetry_space_group_name_H-M    P1
_symmetry_Int_Tables_number       1
_space_group_crystal_system       triclinic
_cell_length_a                    10.26184
_cell_length_b                    10.812066
_cell_length_c                    16.200568
_cell_angle_alpha                 91.452524
_cell_angle_beta                  78.213853
_cell_angle_gamma                 92.077566
_cell_volume                      1758.13132599

loop_
_atom_site_label
_atom_site_type_symbol
_atom_type_description
_atom_site_fract_x
_atom_site_fract_y
_atom_site_fract_z
_atom_type_partial_charge
C1    C     C_R   0.552562 0.731746 0.490563 1.013622
C2    C     C_R   0.518627 0.504028 0.343120 0.968769
C3    C     C_R   0.473214 0.525301 0.748406 -0.236524
C4    C     C_R   0.532152 0.530644 0.251796 -0.199178
C5    C     C_R   0.585808 0.502219 0.781715 -0.183795
C6    C     C_R   0.415141 0.544693 0.220469 -0.155107
C7    C     C_R   0.596140 0.551720 0.860134 -0.089835
C8    C     C_R   0.422135 0.599452 0.142499 -0.097193
C9    C     C_R   0.485819 0.603605 0.912829 -0.068473
C10   C     C_R   0.545012 0.616989 0.087284 -0.082617
C11   C     C_R   0.362528 0.591039 0.889117 0.363334
C12   C     C_R   0.448541 0.267384 0.500141 0.946724
C13   C     C_R   0.658725 0.574274 0.110953 0.263631
C14   C     C_R   0.359192 0.575707 0.803160 0.238832
C15   C     C_R   0.656594 0.558850 0.196910 0.343466
C16   C     C_2   0.512931 0.718982 0.957270 0.095673
C17   C     C_2   0.560415 0.721564 0.028716 0.179338
C18   C     C_2   0.574985 0.863210 0.482169 -0.456959
C19   C     C_2   0.430084 0.135007 0.487191 -0.444049
C20   C     C_2   0.506068 0.933733 0.439660 0.387367
C21   C     C_2   0.529034 0.064362 0.444523 0.330955
C22   C     C_2   0.916199 0.504147 0.519168 0.157507
C23   C     C_2   0.056248 0.469998 0.527906 0.180125
C24   C     C_R   0.482626 0.506210 0.656674 0.900401
H1    H     H_    0.672938 0.461720 0.743003 0.218067
H2    H     H_    0.710548 0.352644 0.012562 0.370558
H3    H     H_    0.818604 0.959206 0.359620 0.370432
H4    H     H_    0.445957 0.961259 0.232831 0.386886
H5    H     H_    0.317899 0.529908 0.260625 0.205734
H6    H     H_    0.332904 0.636349 0.128226 0.221826
H7    H     H_    0.694179 0.563902 0.874178 0.253618
H8    H     H_    0.333110 0.092757 0.513252 0.187509
H9    H     H_    0.643384 0.906377 0.518318 0.155139
H10   H     H_    0.830739 0.725087 0.343965 0.377948
H11   H     H_    0.362302 0.792089 0.702665 0.339312
H12   H     H_    0.167853 0.469442 0.084261 0.412415
I1    I     I_    0.650923 0.886219 0.069694 -0.001967
I2    I     I_    0.508294 0.882117 0.886283 -0.174978
I3    I     I_    0.057938 0.289553 0.576393 -0.125314
I4    I     I_    0.833683 0.634538 0.616324 -0.198233
I5    I     I_    0.134215 0.726926 0.486730 -0.019851
I6    I     I_    0.960116 0.350885 0.366275 0.025200
N1    N     N_2   0.846390 0.448330 0.467170 -0.018988
N2    N     N_2   0.153610 0.551670 0.532830 -0.014988
O1    O     O_R   0.430310 0.692580 0.506610 -0.549877
O2    O     O_2   0.869139 0.716870 0.169741 -0.179405
O3    O     O_3   0.747191 0.704817 0.324248 -0.534393
O4    O     O_2   0.136875 0.551576 0.739041 -0.201780
O5    O     O_2   0.149644 0.730284 0.832902 -0.172266
O6    O     O_3   0.293483 0.738804 0.683291 -0.511424
O7    O     O_2   0.179241 0.692460 0.011374 -0.223465
O8    O     O_2   0.105722 0.517814 0.929697 -0.126699
O9    O     O_3   0.248189 0.469687 0.038431 -0.557218
O10   O     O_2   0.850786 0.641451 0.979266 -0.178774
O11   O     O_2   0.907405 0.485710 0.072571 -0.178569
O12   O     O_R   0.569690 0.307420 0.493390 -0.540670
O13   O     O_3   0.752006 0.417483 0.972557 -0.529569
O14   O     O_2   0.678595 0.225503 0.338206 -0.227443
O15   O     O_2   0.770778 0.146967 0.455573 -0.303269
O16   O     O_3   0.763393 0.002014 0.326275 -0.428687
O17   O     O_2   0.409741 0.749897 0.348021 -0.290869
O18   O     O_2   0.288916 0.942996 0.373905 -0.294587
O19   O     O_3   0.512640 0.943932 0.267108 -0.457545
O20   O     O_R   0.652740 0.659410 0.485540 -0.600752
O21   O     O_R   0.347260 0.340590 0.514460 -0.608251
O22   O     O_R   0.375640 0.518570 0.627580 -0.529470
O23   O     O_R   0.624360 0.481430 0.372420 -0.533093
O24   O     O_R   0.598070 0.485390 0.606510 -0.621874
O25   O     O_R   0.401930 0.514610 0.393490 -0.609723
O26   O     O_2   0.887632 0.527544 0.243973 -0.258408
S1    S     S_3+6 0.795156 0.626795 0.233257 0.120621
S2    S     S_3+6 0.228933 0.648860 0.765848 0.128020
S3    S     S_3+6 0.217541 0.570673 0.968060 0.130015
S4    S     S_3+6 0.798660 0.532307 0.033214 0.126573
S5    S     S_3+6 0.688949 0.114905 0.390502 0.105071
S6    S     S_3+6 0.423938 0.886947 0.357591 0.083762
Zn1   Zn    Zn3+2 0.351480 0.522150 0.514070 1.117591
Zn2   Zn    Zn3+2 0.648520 0.477850 0.485930 1.110089

loop_
_geom_bond_atom_site_label_1
_geom_bond_atom_site_label_2
_ccdc_geom_bond_type
O13   S4    S    
O12   Zn2   S    
C2    C4    S    
C1    O20   A    
O26   S1    D    
H12   O9    S    
C2    O25   A    
C15   S1    S    
C12   O21   A    
C21   S5    S    
O16   S5    S    
O25   Zn1   S    
C22   N1    D    
C24   O22   A    
C22   I4    S    
C7    C9    A    
C4    C15   A    
O2    S1    D    
C8    H6    S    
C10   C13   A    
C17   I1    S    
C20   C21   S    
N1    Zn2   S    
O19   S6    S    
C9    C11   A    
C1    O1    A    
C1    C18   S    
C12   O12   A    
C3    C14   A    
C14   S2    S    
O4    S2    D    
C23   I3    S    
C19   H8    S    
C12   C19   S    
H2    O13   S    
N2    Zn1   S    
I5    N2    S    
C9    C16   S    
O14   S5    D    
C2    O23   A    
H11   O6    S    
C18   C20   D    
H3    O16   S    
C13   C15   A    
O17   S6    D    
O24   Zn2   S    
O23   Zn2   S    
C18   H9    S    
C5    H1    S    
O21   Zn1   S    
I6    N1    S    
O3    S1    S    
C10   C17   S    
O6    S2    S    
H4    O19   S    
O15   S5    D    
C6    H5    S    
C7    H7    S    
C13   S4    S    
C20   S6    S    
C4    C6    A    
O8    S3    D    
C11   S3    S    
C16   I2    S    
C11   C14   A    
C5    C7    A    
O22   Zn1   S    
C24   O24   A    
C22   C23   S    
C6    C8    A    
H10   O3    S    
O18   S6    D    
C19   C21   D    
O10   S4    D    
O11   S4    D    
O20   Zn2   S    
O5    S2    D    
C8    C10   A    
O9    S3    S    
C23   N2    D    
O7    S3    D    
C3    C24   S    
C16   C17   D    
C3    C5    A    
O1    Zn1   S    
