data_mof_unit_65142.cif
_audit_creation_date              2012-12-10T19:38:55-0500
_audit_creation_method            fapswitch 2.2
_symmetry_space_group_name_H-M    P1
_symmetry_Int_Tables_number       1
_space_group_crystal_system       triclinic
_cell_length_a                    19.116627
_cell_length_b                    18.316969
_cell_length_c                    23.45654
_cell_angle_alpha                 89.990174
_cell_angle_beta                  90.093616
_cell_angle_gamma                 90.000183
_cell_volume                      8213.4996274

loop_
_atom_site_label
_atom_site_type_symbol
_atom_type_description
_atom_site_fract_x
_atom_site_fract_y
_atom_site_fract_z
_atom_type_partial_charge
C1    C     C_R   0.365011 0.499993 0.498945 0.878032
C2    C     C_R   0.635000 0.499997 0.499140 0.876751
C3    C     C_R   0.528924 0.566993 0.240684 -0.090749
C4    C     C_R   0.475700 0.569161 0.759459 -0.091085
C5    C     C_R   0.528199 0.562510 0.299637 -0.258175
C6    C     C_R   0.476041 0.564479 0.700518 -0.258038
C7    C     C_R   0.499506 0.501109 0.326859 -0.117518
C8    C     C_R   0.500617 0.501108 0.673300 -0.121268
C9    C     C_R   0.471173 0.443645 0.293907 0.246324
C10   C     C_R   0.525068 0.441785 0.706418 0.247857
C11   C     C_R   0.472758 0.448566 0.234749 -0.117352
C12   C     C_R   0.523865 0.447017 0.765568 -0.117881
C13   C     C_R   0.501236 0.510081 0.208256 0.253785
C14   C     C_R   0.499598 0.510501 0.791964 0.254018
C15   C     C_R   0.253495 0.566227 0.485250 -0.186798
C16   C     C_R   0.746556 0.433697 0.486169 -0.171852
C17   C     C_R   0.746457 0.566219 0.485424 -0.186912
C18   C     C_R   0.253703 0.433707 0.484338 -0.165213
C19   C     C_R   0.182413 0.566245 0.473374 -0.147612
C20   C     C_R   0.817639 0.433642 0.474476 -0.146785
C21   C     C_R   0.817536 0.566182 0.473732 -0.148761
C22   C     C_R   0.182620 0.433707 0.472468 -0.143117
C23   C     C_R   0.146403 0.499977 0.467137 0.080620
C24   C     C_R   0.853661 0.499891 0.468258 0.081165
C25   C     C_R   0.289501 0.499964 0.490847 -0.036127
C26   C     C_R   0.710563 0.499982 0.491578 -0.035743
C27   C     C_R   0.499030 0.499999 0.389072 0.922485
C28   C     C_R   0.500901 0.499972 0.610984 0.923465
C29   C     C_R   0.929388 0.499891 0.460235 0.296743
C30   C     C_R   0.070576 0.499939 0.459554 0.297463
C31   C     C_R   0.447234 0.273481 0.473687 0.062413
C32   C     C_R   0.548434 0.726475 0.531378 0.019533
C33   C     C_R   0.552778 0.273458 0.526284 0.063457
C34   C     C_R   0.451561 0.726471 0.468612 0.021537
C35   C     C_R   0.446295 0.196733 0.473069 -0.240060
C36   C     C_R   0.549431 0.803230 0.531896 -0.256379
C37   C     C_R   0.553713 0.196709 0.526886 -0.238812
C38   C     C_R   0.450556 0.803227 0.468076 -0.256140
C39   C     C_R   0.500001 0.156858 0.499976 0.070701
C40   C     C_R   0.499992 0.843091 0.499982 0.086039
C41   C     C_R   0.499993 0.925141 0.499976 0.306931
C42   C     C_R   0.499997 0.074810 0.499974 0.316188
C43   C     C_R   0.562660 0.515627 0.880689 0.513769
C44   C     C_R   0.438651 0.519679 0.119530 0.513784
C45   C     C_R   0.437521 0.518683 0.880894 0.516012
C46   C     C_R   0.563697 0.513759 0.119322 0.515850
C47   C     C_R   0.436532 0.521149 0.940392 -0.019966
C48   C     C_R   0.564851 0.516323 0.059827 -0.019955
C49   C     C_R   0.500576 0.519492 0.970163 -0.019484
C50   C     C_R   0.500853 0.519369 0.030059 -0.019470
C51   C     C_R   0.564317 0.517080 0.940188 -0.019700
C52   C     C_R   0.437100 0.521422 0.060033 -0.019705
C53   C     C_R   0.373310 0.524078 0.970651 -0.150839
C54   C     C_R   0.628120 0.514826 0.029570 -0.150945
C55   C     C_R   0.373598 0.524388 0.029991 -0.149322
C56   C     C_R   0.627860 0.515377 0.970232 -0.149280
H1    H     H_    0.323482 0.525651 0.948637 0.195801
H2    H     H_    0.677931 0.512747 0.051584 0.195791
H3    H     H_    0.403642 0.168973 0.451765 0.167054
H4    H     H_    0.588592 0.831010 0.557256 0.160749
H5    H     H_    0.596365 0.168930 0.548182 0.167137
H6    H     H_    0.411392 0.831006 0.442711 0.160491
H7    H     H_    0.323981 0.526188 0.052178 0.196377
H8    H     H_    0.677481 0.513694 0.948045 0.196413
H9    H     H_    0.550729 0.614763 0.220104 0.156925
H10   H     H_    0.457117 0.618435 0.779971 0.157052
H11   H     H_    0.550311 0.607181 0.323997 0.178817
H12   H     H_    0.456883 0.610643 0.676195 0.180466
H13   H     H_    0.451036 0.404932 0.209069 0.176463
H14   H     H_    0.542576 0.401966 0.791340 0.176429
H15   H     H_    0.280257 0.618069 0.489563 0.156792
H16   H     H_    0.719756 0.381870 0.490381 0.158833
H17   H     H_    0.719577 0.618074 0.489025 0.158254
H18   H     H_    0.280630 0.381866 0.487905 0.157995
H19   H     H_    0.155695 0.618168 0.469730 0.155539
H20   H     H_    0.844311 0.381705 0.470809 0.156895
H21   H     H_    0.844122 0.618092 0.469461 0.155671
H22   H     H_    0.156070 0.381784 0.468081 0.156969
H23   H     H_    0.405570 0.303445 0.453024 0.156200
H24   H     H_    0.586534 0.696416 0.556168 0.131315
H25   H     H_    0.594446 0.303406 0.546954 0.156544
H26   H     H_    0.413461 0.696408 0.443830 0.130030
N1    N     N_R   0.499922 0.515526 0.852560 -0.351753
N2    N     N_R   0.501234 0.515025 0.147655 -0.351740
N3    N     N_R   0.034684 0.436140 0.458863 -0.169038
N4    N     N_R   0.965261 0.563684 0.459039 -0.171395
N5    N     N_R   0.965299 0.436117 0.459191 -0.169318
N6    N     N_R   0.034644 0.563707 0.458716 -0.171293
N7    N     N_R   0.500000 0.310560 0.500000 -0.098260
N8    N     N_R   0.500000 0.689440 0.500000 -0.093929
N9    N     N_R   0.550019 0.036453 0.528485 -0.165797
N10   N     N_R   0.450001 0.963499 0.471430 -0.168567
N11   N     N_R   0.449973 0.036467 0.471464 -0.165986
N12   N     N_R   0.549986 0.963486 0.528521 -0.168561
O1    O     O_R   0.398130 0.560830 0.500010 -0.630027
O2    O     O_R   0.601870 0.439170 0.499990 -0.626402
O3    O     O_R   0.601870 0.560830 0.499990 -0.630760
O4    O     O_R   0.398130 0.439170 0.500010 -0.625006
O5    O     O_R   0.499970 0.560830 0.416150 -0.630514
O6    O     O_R   0.500030 0.439170 0.583850 -0.572774
O7    O     O_R   0.500030 0.560830 0.583850 -0.629809
O8    O     O_R   0.499970 0.439170 0.416150 -0.575749
O9    O     O_2   0.623099 0.514306 0.851021 -0.544318
O10   O     O_2   0.378265 0.522619 0.149199 -0.544337
O11   O     O_2   0.376760 0.518333 0.851492 -0.549095
O12   O     O_2   0.624289 0.508974 0.148720 -0.549210
Zn1   Zn    Zn3+2 0.500000 0.581210 0.500000 0.951670
Zn2   Zn    Zn3+2 0.500000 0.418790 0.500000 1.002350
Br1   Br    Br    0.425572 0.359642 0.325901 -0.507689
Br2   Br    Br    0.564525 0.354137 0.674949 -0.503574

loop_
_geom_bond_atom_site_label_1
_geom_bond_atom_site_label_2
_ccdc_geom_bond_type
O7    Zn1   S    
C1    C25   S    
C42   N11   A    
C43   N1    A    
C19   C23   A    
C16   H16   S    
C5    H11   S    
C44   O10   S    
O4    Zn2   S    
C47   C49   A    
C3    H9    S    
C15   C19   A    
C13   N2    S    
C27   O5    A    
C17   C26   A    
C32   C36   A    
C38   C40   A    
N8    Zn1   S    
C42   N9    A    
N4    N6    A    
C15   C25   A    
C7    C27   S    
C20   H20   S    
C35   H3    S    
C51   C56   A    
C45   C47   A    
C24   C29   S    
C28   O7    A    
C32   N8    A    
C20   C24   A    
C2    O3    A    
C31   N7    A    
C55   H7    S    
C50   C52   A    
C56   H8    S    
O8    Zn2   S    
C3    C13   A    
C52   C55   A    
C16   C20   A    
C47   C53   A    
C28   O6    A    
C48   C50   A    
O2    Zn2   S    
C18   H18   S    
C18   C22   A    
C17   H17   S    
C45   N1    A    
C18   C25   A    
C14   N1    S    
C10   C12   A    
C45   O11   S    
C39   C42   S    
C46   C48   A    
C53   C55   A    
C9    Br1   S    
C54   C56   A    
O6    Zn2   S    
N3    N5    A    
C23   C30   S    
C36   C40   A    
C22   H22   S    
C4    C6    A    
C5    C7    A    
C53   H1    S    
C6    C8    A    
C49   C51   A    
C33   C37   A    
C48   C54   A    
C35   C39   A    
C34   N8    A    
C33   N7    A    
C32   H24   S    
C41   N12   A    
C1    O1    A    
C6    H12   S    
C2    C26   S    
C30   N3    A    
C9    C11   A    
C29   N4    A    
O1    Zn1   S    
C46   N2    A    
C40   C41   S    
C12   C14   A    
C8    C28   S    
C31   C35   A    
C30   N6    A    
C15   H15   S    
C54   H2    S    
C7    C9    A    
C12   H14   S    
C34   C38   A    
C3    C5    A    
C16   C26   A    
C1    O4    A    
C37   H5    S    
C11   H13   S    
C31   H23   S    
C44   C52   A    
O5    Zn1   S    
C27   O8    A    
C44   N2    A    
C2    O2    A    
C37   C39   A    
N9    N12   A    
C4    H10   S    
C11   C13   A    
C43   C51   A    
C46   O12   S    
N7    Zn2   S    
C19   H19   S    
N10   N11   A    
C10   Br2   S    
C4    C14   A    
C43   O9    S    
C29   N5    A    
O3    Zn1   S    
C41   N10   A    
C8    C10   A    
C49   C50   A    
C21   C24   A    
C21   H21   S    
C36   H4    S    
C22   C23   A    
C34   H26   S    
C33   H25   S    
C38   H6    S    
C17   C21   A    
