data_mof_unit_66736.cif
_audit_creation_date              2012-12-11T14:19:13-0500
_audit_creation_method            fapswitch 2.2
_symmetry_space_group_name_H-M    P1
_symmetry_Int_Tables_number       1
_space_group_crystal_system       triclinic
_cell_length_a                    8.207798
_cell_length_b                    12.631543
_cell_length_c                    15.010821
_cell_angle_alpha                 95.511374
_cell_angle_beta                  98.814928
_cell_angle_gamma                 97.746651
_cell_volume                      1513.00054272

loop_
_atom_site_label
_atom_site_type_symbol
_atom_type_description
_atom_site_fract_x
_atom_site_fract_y
_atom_site_fract_z
_atom_type_partial_charge
Ba1   Ba    Ba6+2 0.153570 0.551840 0.456200 1.702986
Ba2   Ba    Ba6+2 0.656590 0.448150 0.543720 1.696976
C1    C     C_3   0.295671 0.798636 0.110921 -0.280629
C2    C     C_3   0.350050 0.774720 0.207473 0.361541
C3    C     C_3   0.581711 0.779162 0.667954 0.278100
C4    C     C_3   0.589677 0.900276 0.684219 -0.343600
C5    C     C_3   0.921205 0.160752 0.750218 0.333778
C6    C     C_3   0.984994 0.072122 0.801028 -0.397927
C7    C     C_3   0.435827 0.229925 0.791250 0.355984
C8    C     C_3   0.477215 0.209645 0.889646 -0.366598
C9    C     C_R   0.087469 0.184196 0.529105 -0.235350
C10   C     C_R   0.727753 0.815705 0.467768 -0.241366
C11   C     C_R   0.695177 0.995233 0.431457 -0.086546
C12   C     C_3   0.882709 0.831705 0.243105 1.037649
C13   C     C_R   0.629698 0.886594 0.429042 -0.029513
C14   C     C_R   0.889187 0.851345 0.514413 0.109506
C15   C     C_R   0.955993 0.963682 0.520963 -0.008025
C16   C     C_R   0.857585 0.036784 0.478133 -0.048909
C17   C     C_R   0.924331 0.149140 0.484569 0.038613
C18   C     C_R   0.185259 0.113229 0.568412 0.009953
C19   C     C_R   0.118506 0.005062 0.567370 -0.090197
C20   C     C_R   0.231906 0.465395 0.766933 -0.283363
C21   C     C_R   0.133699 0.426218 0.827608 0.020475
C22   C     C_R   0.198160 0.437634 0.920586 -0.131884
C23   C     C_3   0.874210 0.934100 0.198479 0.274503
C24   C     C_R   0.360995 0.494201 0.954756 0.009432
C25   C     C_R   0.451571 0.540596 0.891433 -0.118058
C26   C     C_R   0.388192 0.524946 0.798949 0.031814
C27   C     C_R   0.603028 0.555694 0.085787 -0.121284
C28   C     C_R   0.670403 0.569479 0.177857 0.001976
C29   C     C_R   0.415002 0.478421 0.211920 0.008799
C30   C     C_R   0.343120 0.467876 0.120039 -0.147484
C31   C     C_R   0.435277 0.507084 0.054446 0.015027
C32   C     C_R   0.575317 0.533586 0.240907 -0.265658
C33   C     C_3   0.650379 0.265016 0.267566 0.942227
C34   C     C_3   0.689324 0.300801 0.178098 -0.345172
C35   C     C_3   0.081972 0.689873 0.730369 0.301833
C36   C     C_3   0.127591 0.722884 0.832399 -0.390037
C37   C     C_3   0.132279 0.232390 0.203118 0.369600
C38   C     C_3   0.202776 0.178124 0.125321 0.552871
H1    H     H_    0.260679 0.706152 0.219936 0.095274
H2    H     H_    0.729551 0.235306 0.136682 0.084037
H3    H     H_    0.578136 0.323922 0.137992 0.043925
H4    H     H_    0.791470 0.370435 0.191553 0.061870
H5    H     H_    0.188515 0.660255 0.704700 0.008364
H6    H     H_    0.972953 0.625019 0.717130 0.069105
H7    H     H_    0.243988 0.782241 0.847943 0.127815
H8    H     H_    0.146886 0.651928 0.868373 0.065145
H9    H     H_    0.025253 0.759585 0.857748 0.135479
H10   H     H_    0.061836 0.294166 0.175568 -0.121593
H11   H     H_    0.038425 0.172257 0.223971 0.029041
H12   H     H_    0.281538 0.723652 0.062808 0.050850
H13   H     H_    0.107718 0.164011 0.062704 -0.088922
H14   H     H_    0.313144 0.230141 0.111622 -0.010035
H15   H     H_    0.476306 0.751370 0.212860 -0.053334
H16   H     H_    0.390333 0.859927 0.092346 0.123082
H17   H     H_    0.706139 0.760569 0.657919 0.005289
H18   H     H_    0.488986 0.749733 0.605555 0.055531
H19   H     H_    0.672408 0.932143 0.749164 0.120763
H20   H     H_    0.638717 0.938414 0.628307 0.059131
H21   H     H_    0.463245 0.920390 0.687744 0.139866
H22   H     H_    0.174459 0.829929 0.104589 0.180527
H23   H     H_    0.812827 0.125235 0.697348 0.076926
H24   H     H_    0.022782 0.195809 0.715816 -0.059933
H25   H     H_    0.892950 0.039882 0.841623 0.127844
H26   H     H_    0.009304 0.006794 0.752412 0.089894
H27   H     H_    0.101967 0.104816 0.848457 0.116294
H28   H     H_    0.305332 0.246299 0.778288 -0.068964
H29   H     H_    0.522120 0.301907 0.782024 0.104403
H30   H     H_    0.384605 0.143986 0.903516 0.104586
H31   H     H_    0.473033 0.283150 0.935429 0.072988
H32   H     H_    0.603830 0.187297 0.903580 0.150803
H33   H     H_    0.616462 0.046067 0.397490 0.139559
H34   H     H_    0.196203 0.954306 0.602072 0.087886
H35   H     H_    0.140455 0.267873 0.531709 0.072315
H36   H     H_    0.675022 0.731873 0.464492 0.045251
H37   H     H_    0.686553 0.581807 0.040888 0.078593
H38   H     H_    0.117860 0.402794 0.963886 0.066596
H39   H     H_    0.217075 0.426965 0.101788 0.061017
H40   H     H_    0.569868 0.591893 0.911418 0.073370
H41   H     H_    0.629996 0.542560 0.312061 0.064586
H42   H     H_    0.756134 0.803132 0.257332 -0.280572
H43   H     H_    0.182387 0.455593 0.695045 0.062362
H44   H     H_    0.819136 0.991117 0.242924 -0.046939
H45   H     H_    0.002640 0.971263 0.194705 0.121147
H46   H     H_    0.617694 0.334580 0.308182 -0.092756
O1    O     O_2   0.168170 0.764170 0.543850 -0.461898
O2    O     O_3   0.258367 0.270246 0.279817 -0.570321
O3    O     O_3   0.938140 0.755726 0.184527 -0.622397
O4    O     O_2   0.642110 0.235770 0.456130 -0.451325
O5    O     O_3   0.911620 0.370210 0.454030 -0.490450
O6    O     O_3   0.444310 0.304480 0.619110 -0.482806
O7    O     O_3   0.789314 0.226816 0.310808 -0.674998
O8    O     O_3   0.400800 0.556680 0.607590 -0.485677
O9    O     O_3   0.875770 0.359510 0.664420 -0.488471
O10   O     O_2   0.793838 0.429953 0.823125 -0.493223
O11   O     O_3   0.869768 0.235299 0.812087 -0.597108
O12   O     O_3   0.898670 0.629780 0.545890 -0.501332
O13   O     O_3   0.409490 0.443300 0.392340 -0.464539
O14   O     O_2   0.674250 0.555830 0.719690 -0.463026
O15   O     O_3   0.536310 0.734266 0.744131 -0.640891
O16   O     O_2   0.528348 0.115429 0.569482 -0.487989
O17   O     O_3   0.455850 0.139779 0.733529 -0.611570
O18   O     O_3   0.365980 0.695510 0.380810 -0.506506
O19   O     O_2   0.293658 0.886544 0.436289 -0.408823
O20   O     O_3   0.044665 0.780054 0.688995 -0.653100
O21   O     O_3   0.350018 0.865834 0.269211 -0.534097
O22   O     O_2   0.136040 0.444100 0.280280 -0.466707
O23   O     O_3   0.934510 0.640480 0.335500 -0.438477
O24   O     O_2   0.006879 0.560498 0.176502 -0.507139
P1    P     P_3+3 0.998660 0.747790 0.570900 0.981737
P2    P     P_3+3 0.306970 0.411860 0.294270 1.017338
P3    P     P_3+3 0.887664 0.628567 0.217557 0.993044
P4    P     P_3+3 0.811620 0.252200 0.429030 1.017275
P5    P     P_3+3 0.917774 0.365125 0.782704 0.952029
P6    P     P_3+3 0.410707 0.834645 0.379694 1.047369
P7    P     P_3+3 0.499813 0.594083 0.719956 0.943099
P8    P     P_3+3 0.402810 0.165829 0.620959 0.968288
F1    F     F_    0.245489 0.080172 0.145677 -0.666757
O25   O     O_3   0.782527 0.907126 0.109494 -0.664684
C39   C     C_3   0.698145 0.993905 0.084503 0.248841
H47   H     H_    0.787635 0.070980 0.090733 0.025385
H48   H     H_    0.601091 0.004767 0.129181 0.131176
C40   C     C_3   0.611904 0.966859 0.985172 -0.303395
H49   H     H_    0.561324 0.879158 0.969682 0.138368
H50   H     H_    0.506565 0.012794 0.973400 0.083134
H51   H     H_    0.700266 0.988500 0.938362 0.109788
F2    F     F_    0.993857 0.855290 0.324068 -0.715418
F3    F     F_    0.519729 0.181127 0.250501 -0.674254

loop_
_geom_bond_atom_site_label_1
_geom_bond_atom_site_label_2
_ccdc_geom_bond_type
Ba1   O1    S    
C37   H11   S    
C6    H26   S    
O19   P6    D    
C34   H2    S    
C33   C34   S    
Ba1   O13   S    
C18   P8    S    
C5    C6    S    
C36   H9    S    
C9    C17   A    
C24   C25   A    
C35   C36   S    
C11   C16   A    
C4    H21   S    
Ba2   O9    S    
C22   C24   A    
C16   C17   A    
C26   P7    S    
Ba1   P2    S    
C3    C4    S    
C33   H46   S    
O1    P1    D    
C2    H1    S    
C27   C31   A    
C12   F2    S    
Ba1   Ba2   S    
Ba2   O4    S    
O6    P8    S    
C39   C40   S    
Ba1   O23   S    
O18   P6    S    
C10   C14   A    
O9    P5    S    
Ba1   O8    S    
C23   H44   S    
C21   C22   A    
O10   P5    D    
C32   H41   S    
O11   P5    S    
C7    C8    S    
C33   F3    S    
C36   H8    S    
O16   P8    D    
O23   P3    S    
C8    H31   S    
Ba2   O14   S    
C6    H25   S    
Ba1   O5    S    
C20   C26   A    
C37   O2    S    
C3    O15   S    
O20   P1    S    
C33   O7    S    
C5    H24   S    
C2    O21   S    
O3    P3    S    
C9    C18   A    
C28   C32   A    
C4    H20   S    
Ba2   O8    S    
C25   H40   S    
C37   C38   S    
C14   C15   A    
C17   P4    S    
C19   H34   S    
C15   C19   A    
O22   P2    D    
C12   O3    S    
C27   C28   A    
C1    H16   S    
C24   C31   S    
C29   C30   A    
O24   P3    D    
C10   C13   A    
C7    O17   S    
C38   F1    S    
C23   H45   S    
C15   C16   A    
C36   H7    S    
C29   C32   A    
Ba2   O6    S    
Ba1   O18   S    
C5    H23   S    
C39   H47   S    
C40   H51   S    
C3    H18   S    
C22   H38   S    
C11   H33   S    
Ba2   O13   S    
C38   H14   S    
C11   C13   A    
C2    H15   S    
C34   H4    S    
O17   P8    S    
C12   H42   S    
C35   H5    S    
C1    C2    S    
C23   O25   S    
C8    H30   S    
O25   C39   S    
C40   H50   S    
C1    H22   S    
O12   P1    S    
C5    O11   S    
C20   C21   A    
C4    H19   S    
C7    H29   S    
Ba1   O12   S    
C29   P2    S    
C1    H12   S    
O5    P4    S    
C3    H17   S    
O15   P7    S    
C20   H43   S    
C10   H36   S    
C7    H28   S    
C35   O20   S    
C9    H35   S    
C30   C31   A    
C30   H39   S    
Ba2   P4    S    
O13   P2    S    
O8    P7    S    
O7    P4    S    
O4    P4    D    
C12   C23   S    
Ba2   O5    S    
O21   P6    S    
C39   H48   S    
Ba1   O22   S    
C21   P5    S    
O2    P2    S    
C37   H10   S    
C27   H37   S    
C18   C19   A    
Ba2   O12   S    
C6    H27   S    
C38   H13   S    
C25   C26   A    
C13   P6    S    
C34   H3    S    
O14   P7    D    
C35   H6    S    
Ba1   P1    S    
C14   P1    S    
C40   H49   S    
C28   P3    S    
C8    H32   S    
