data_mof_unit_38714.cif
_audit_creation_date              2012-12-11T15:17:42-0500
_audit_creation_method            fapswitch 2.2
_symmetry_space_group_name_H-M    P1
_symmetry_Int_Tables_number       1
_space_group_crystal_system       triclinic
_cell_length_a                    6.896861
_cell_length_b                    20.108697
_cell_length_c                    22.533777
_cell_angle_alpha                 89.965323
_cell_angle_beta                  89.946005
_cell_angle_gamma                 90.000341
_cell_volume                      3125.13744912

loop_
_atom_site_label
_atom_site_type_symbol
_atom_type_description
_atom_site_fract_x
_atom_site_fract_y
_atom_site_fract_z
_atom_type_partial_charge
O1    O     O_R   0.620180 0.810610 0.187990 -0.529905
O2    O     O_R   0.379820 0.189390 0.812010 -0.560885
O3    O     O_R   0.379820 0.189390 0.687990 -0.529061
O4    O     O_R   0.620180 0.810610 0.312010 -0.548067
O5    O     O_R   0.120180 0.689390 0.312010 -0.541108
O6    O     O_R   0.879820 0.310610 0.687990 -0.561694
O7    O     O_R   0.879820 0.310610 0.812010 -0.529312
O8    O     O_R   0.120180 0.689390 0.187990 -0.559132
O9    O     O_R   0.290420 0.818570 0.311590 -0.531843
O10   O     O_R   0.709580 0.181430 0.688410 -0.560259
O11   O     O_R   0.709580 0.181430 0.811590 -0.510571
O12   O     O_R   0.290420 0.818570 0.188410 -0.558902
O13   O     O_R   0.790420 0.681430 0.188410 -0.511251
O14   O     O_R   0.209580 0.318570 0.811590 -0.560332
O15   O     O_R   0.209580 0.318570 0.688410 -0.510917
O16   O     O_R   0.790420 0.681430 0.311590 -0.534864
H1    H     H_    0.370237 0.540020 0.606252 0.158988
H2    H     H_    0.633285 0.459785 0.393961 0.119017
H3    H     H_    0.589214 0.473372 0.095572 0.158654
H4    H     H_    0.397097 0.530496 0.901788 0.113243
H5    H     H_    0.910582 0.973362 0.904364 0.158481
H6    H     H_    0.103403 0.030597 0.098352 0.113260
H7    H     H_    0.089454 0.026181 0.404856 0.159150
H8    H     H_    0.897262 0.969232 0.598221 0.114215
C1    C     C_R   0.459451 0.831922 0.334347 0.696129
C2    C     C_R   0.540470 0.168022 0.665635 0.734459
C3    C     C_R   0.540352 0.167712 0.834092 0.729118
C4    C     C_R   0.459619 0.831876 0.165603 0.737401
C5    C     C_R   0.959667 0.667672 0.165923 0.730644
C6    C     C_R   0.040363 0.331911 0.834385 0.734599
C7    C     C_R   0.040519 0.332570 0.666084 0.727127
C8    C     C_R   0.959430 0.667909 0.334221 0.690459
H9    H     H_    0.273799 0.435367 0.644813 0.130512
H10   H     H_    0.727541 0.564977 0.355737 0.135533
H11   H     H_    0.713036 0.570226 0.140336 0.143066
H12   H     H_    0.286897 0.429256 0.860780 0.120272
H13   H     H_    0.786961 0.070301 0.859656 0.142602
H14   H     H_    0.213273 0.929255 0.139283 0.121226
H15   H     H_    0.212631 0.929187 0.360258 0.150763
H16   H     H_    0.787343 0.070671 0.639118 0.120087
O17   O     O_3   0.453640 0.707610 0.250000 -0.362687
O18   O     O_3   0.546360 0.292390 0.750000 -0.374769
O19   O     O_3   0.953640 0.792390 0.250000 -0.376472
O20   O     O_3   0.046360 0.207610 0.750000 -0.373314
V1    V     V_3+5 0.178800 0.757860 0.250000 1.459709
V2    V     V_3+5 0.821200 0.242140 0.750000 1.480783
V3    V     V_3+5 0.678800 0.742140 0.250000 1.519187
V4    V     V_3+5 0.321200 0.257860 0.750000 1.480743
C9    C     C_R   0.881891 0.373897 0.570091 -0.072740
C10   C     C_R   0.119290 0.627127 0.430198 -0.058532
C11   C     C_R   0.125226 0.624526 0.071455 -0.078929
C12   C     C_R   0.871431 0.375267 0.928302 -0.041480
C13   C     C_R   0.374978 0.124634 0.928594 -0.079470
C14   C     C_R   0.628378 0.875168 0.071659 -0.041486
C15   C     C_R   0.624863 0.874775 0.428884 -0.045928
C16   C     C_R   0.371594 0.124438 0.571857 -0.043086
C17   C     C_R   0.029132 0.378885 0.614238 -0.120285
C18   C     C_R   0.971453 0.621840 0.386210 -0.134051
C19   C     C_R   0.971598 0.621743 0.113801 -0.124037
C20   C     C_R   0.027290 0.377839 0.886551 -0.106399
C21   C     C_R   0.528489 0.121815 0.886228 -0.123455
C22   C     C_R   0.472647 0.877785 0.113434 -0.107466
C23   C     C_R   0.471213 0.877654 0.386602 -0.164049
C24   C     C_R   0.527580 0.122010 0.613493 -0.105364
C25   C     C_R   0.163671 0.430763 0.610713 -0.118184
C26   C     C_R   0.837952 0.569724 0.389738 -0.124650
C27   C     C_R   0.828970 0.572933 0.107854 -0.113561
C28   C     C_R   0.168972 0.426940 0.892615 -0.227055
C29   C     C_R   0.671090 0.073000 0.892159 -0.113586
C30   C     C_R   0.331092 0.926928 0.107413 -0.226064
C31   C     C_R   0.328687 0.926490 0.392634 -0.132475
C32   C     C_R   0.669373 0.072917 0.607365 -0.225853
C33   C     C_R   0.149272 0.479756 0.566820 0.061276
C34   C     C_R   0.853777 0.520661 0.433434 0.114989
C35   C     C_R   0.839335 0.524922 0.063188 0.051582
C36   C     C_R   0.154195 0.476029 0.936207 0.144238
C37   C     C_R   0.660704 0.024956 0.936819 0.051661
C38   C     C_R   0.345938 0.976056 0.063836 0.143612
C39   C     C_R   0.339361 0.974585 0.437198 0.057159
C40   C     C_R   0.654527 0.023710 0.563856 0.141854
C41   C     C_R   0.008006 0.474856 0.522002 0.024182
C42   C     C_R   0.995970 0.525574 0.478068 0.047653
C43   C     C_R   0.990605 0.526098 0.021286 0.025674
C44   C     C_R   0.000946 0.475019 0.977623 0.082136
C45   C     C_R   0.509521 0.026145 0.978745 0.025485
C46   C     C_R   0.499095 0.975023 0.022391 0.081990
C47   C     C_R   0.490781 0.973460 0.478964 0.020815
C48   C     C_R   0.501273 0.024647 0.522536 0.082914
C49   C     C_R   0.880036 0.419231 0.520916 0.073594
C50   C     C_R   0.124166 0.581221 0.479060 0.010567
C51   C     C_R   0.129943 0.578515 0.022747 0.066889
C52   C     C_R   0.859927 0.422994 0.975664 -0.035627
C53   C     C_R   0.370345 0.078614 0.977321 0.066996
C54   C     C_R   0.639935 0.922936 0.024305 -0.035112
C55   C     C_R   0.629931 0.920955 0.477505 0.063378
C56   C     C_R   0.360296 0.076689 0.524517 -0.035410
C57   C     C_R   0.269770 0.535397 0.569451 -0.168993
C58   C     C_R   0.734185 0.464763 0.430648 -0.250683
C59   C     C_R   0.701768 0.474262 0.061855 -0.144767
C60   C     C_R   0.286544 0.528494 0.936091 -0.256660
C61   C     C_R   0.798112 0.974249 0.938107 -0.144335
C62   C     C_R   0.213820 0.028585 0.064011 -0.257176
C63   C     C_R   0.201995 0.025312 0.438513 -0.142787
C64   C     C_R   0.786720 0.971187 0.563977 -0.257087
C65   C     C_R   0.252270 0.587748 0.528670 -0.021631
C66   C     C_R   0.753982 0.412328 0.470960 -0.016818
C67   C     C_R   0.712633 0.422283 0.020724 -0.045639
C68   C     C_R   0.268832 0.581629 0.975635 -0.020949
C69   C     C_R   0.787129 0.922214 0.979221 -0.045705
C70   C     C_R   0.231660 0.081763 0.024475 -0.020347
C71   C     C_R   0.213111 0.077395 0.479516 -0.051526
C72   C     C_R   0.768772 0.917923 0.524562 -0.005225
C73   C     C_2   0.351106 0.650922 0.544502 0.500798
H17   H     H_    0.285653 0.698372 0.533471 0.041858
O21   O     O_2   0.504952 0.650662 0.571319 -0.504153
C74   C     C_2   0.658078 0.349354 0.453511 0.455639
H18   H     H_    0.515519 0.350576 0.433146 0.059401
O22   O     O_2   0.742646 0.296207 0.457755 -0.517243
C75   C     C_2   0.577212 0.366213 0.031363 0.379706
H19   H     H_    0.628082 0.315267 0.029218 0.103285
O23   O     O_2   0.407982 0.376593 0.044460 -0.508970
C76   C     C_2   0.383424 0.641444 0.960010 0.460665
H20   H     H_    0.532246 0.636085 0.944999 0.057708
O24   O     O_2   0.308673 0.696496 0.959576 -0.515327
C77   C     C_2   0.922287 0.866093 0.968542 0.380647
H21   H     H_    0.871204 0.815169 0.970691 0.103460
O25   O     O_2   0.091533 0.876410 0.955413 -0.508783
C78   C     C_2   0.117512 0.141642 0.040149 0.459430
H22   H     H_    0.968806 0.136367 0.055298 0.057541
O26   O     O_2   0.192533 0.196652 0.040465 -0.515810
C79   C     C_2   0.078268 0.133595 0.468769 0.385591
H23   H     H_    0.129483 0.184495 0.470989 0.106716
O27   O     O_2   0.909157 0.123379 0.455524 -0.506698
C80   C     C_2   0.882949 0.858085 0.540323 0.437379
H24   H     H_    0.031860 0.863383 0.555185 0.049251
O28   O     O_2   0.807766 0.803105 0.541050 -0.517805
C81   C     C_2   0.723122 0.325139 0.578844 0.490609
H25   H     H_    0.756406 0.273306 0.587611 0.059747
O29   O     O_2   0.554123 0.343174 0.578095 -0.518364
C82   C     C_2   0.273736 0.677586 0.421686 0.338772
H26   H     H_    0.235554 0.729305 0.414392 0.072679
O30   O     O_2   0.444146 0.661152 0.420524 -0.532622
C83   C     C_2   0.284614 0.672629 0.081315 0.492954
H27   H     H_    0.252485 0.725083 0.087017 0.060672
O31   O     O_2   0.451967 0.653512 0.085269 -0.525330
C84   C     C_2   0.718754 0.324375 0.920319 0.354224
H28   H     H_    0.568991 0.339363 0.913956 0.032617
O32   O     O_2   0.759206 0.265341 0.922501 -0.510451
C85   C     C_2   0.215599 0.172761 0.918734 0.493228
H29   H     H_    0.247782 0.225205 0.912929 0.061036
O33   O     O_2   0.048186 0.153675 0.914903 -0.525021
C86   C     C_2   0.780879 0.824196 0.079618 0.352277
H30   H     H_    0.930722 0.839107 0.085936 0.033043
O34   O     O_2   0.740176 0.765183 0.077475 -0.511063
C87   C     C_2   0.783116 0.826078 0.419177 0.429650
H31   H     H_    0.749275 0.773795 0.413221 0.080971
O35   O     O_2   0.951342 0.844439 0.415570 -0.560937
C88   C     C_2   0.218178 0.175062 0.580005 0.355183
H32   H     H_    0.068609 0.159803 0.586366 0.032843
O36   O     O_2   0.257740 0.234171 0.577908 -0.509071

loop_
_geom_bond_atom_site_label_1
_geom_bond_atom_site_label_2
_ccdc_geom_bond_type
C13   C85   S    
C47   C48   A    
H14   C30   S    
O9    V1    S    
H13   C29   S    
C38   C62   A    
C29   C37   A    
H1    C57   S    
C8    C18   S    
C78   H22   S    
H10   C26   S    
C48   C56   A    
O4    C1    A    
O9    C1    A    
C34   C58   A    
C45   C46   A    
C33   C57   A    
C81   O29   D    
C10   C50   A    
C40   C64   A    
O8    C5    A    
O13   C5    A    
C82   O30   D    
C73   H17   S    
C9    C81   S    
C55   C72   A    
C85   O33   D    
O18   V2    S    
C71   C79   S    
C10   C82   S    
C30   C38   A    
C61   C69   A    
C83   H27   S    
C26   C34   A    
C14   C86   S    
O3    V4    S    
C9    C17   A    
C74   H18   S    
C22   C30   A    
C16   C56   A    
C1    C23   S    
C33   C41   A    
C2    C24   S    
O8    V1    S    
C16   C88   S    
C46   C54   A    
C11   C51   A    
C45   C53   A    
C18   C26   A    
H7    C63   S    
C5    C19   S    
C15   C23   A    
C49   C66   A    
O10   V2    S    
O1    C4    A    
C16   C24   A    
O2    C3    A    
O11   C3    A    
C12   C20   A    
C53   C70   A    
O5    C8    A    
C41   C49   A    
C38   C46   A    
O6    C7    A    
C37   C45   A    
O7    C6    A    
H16   C32   S    
C88   O36   D    
C39   C63   A    
C13   C21   A    
O15   V4    S    
C34   C42   A    
O16   V3    S    
C39   C47   A    
O20   V2    S    
C41   C42   A    
C84   O32   D    
C75   O23   D    
C56   C71   A    
C36   C44   A    
C60   C68   A    
H9    C25   S    
C10   C18   A    
O7    V2    S    
C67   C75   S    
C36   C60   A    
C82   H26   S    
C15   C55   A    
C25   C33   A    
C68   C76   S    
O13   V3    S    
H3    C59   S    
O1    V3    S    
O14   V4    S    
C14   C22   A    
O2    V4    S    
H15   C31   S    
O14   C6    A    
C13   C53   A    
C31   C39   A    
C6    C20   S    
H8    C64   S    
C3    C21   S    
C15   C87   S    
C19   C27   A    
C43   C44   A    
H4    C60   S    
H11   C27   S    
C52   C67   A    
C17   C25   A    
C35   C59   A    
O10   C2    A    
O17   V3    S    
C65   C73   S    
O18   V4    S    
C28   C36   A    
C87   O35   D    
O19   V1    S    
C69   C77   S    
C23   C31   A    
C11   C83   S    
C77   H21   S    
C12   C52   A    
C27   C35   A    
C76   O24   D    
C79   H23   S    
C59   C67   A    
C64   C72   A    
C84   H28   S    
C86   O34   D    
C21   C29   A    
C83   O31   D    
C47   C55   A    
C12   C84   S    
O6    V2    S    
C58   C66   A    
C51   C68   A    
O3    C2    A    
C50   C65   A    
C9    C49   A    
O12   V1    S    
C79   O27   D    
C42   C50   A    
C80   O28   D    
C75   H19   S    
H12   C28   S    
O15   C7    A    
C80   H24   S    
C63   C71   A    
C78   O26   D    
O16   C8    A    
C43   C51   A    
C81   H25   S    
C54   C69   A    
H6    C62   S    
C7    C17   S    
C57   C65   A    
H5    C61   S    
C40   C48   A    
C85   H29   S    
C35   C43   A    
C88   H32   S    
O5    V1    S    
C72   C80   S    
C74   O22   D    
C37   C61   A    
C24   C32   A    
H2    C58   S    
C14   C54   A    
C62   C70   A    
C11   C19   A    
C86   H30   S    
C20   C28   A    
C32   C40   A    
C66   C74   S    
C87   H31   S    
C77   O25   D    
O17   V1    S    
O11   V2    S    
C44   C52   A    
O12   C4    A    
C76   H20   S    
O19   V3    S    
O20   V4    S    
C70   C78   S    
C73   O21   D    
O4    V3    S    
C4    C22   S    
