data_mof_unit_27785.cif
_audit_creation_date              2012-12-10T19:04:23-0500
_audit_creation_method            fapswitch 2.2
_symmetry_space_group_name_H-M    P1
_symmetry_Int_Tables_number       1
_space_group_crystal_system       triclinic
_cell_length_a                    10.679557
_cell_length_b                    13.033605
_cell_length_c                    13.610315
_cell_angle_alpha                 85.210003
_cell_angle_beta                  90.719963
_cell_angle_gamma                 93.577171
_cell_volume                      1884.11613431

loop_
_atom_site_label
_atom_site_type_symbol
_atom_type_description
_atom_site_fract_x
_atom_site_fract_y
_atom_site_fract_z
_atom_type_partial_charge
C1    C     C_R   0.496636 0.480820 0.685163 0.947290
C2    C     C_1   0.496522 0.465115 0.788336 -0.229875
C3    C     C_2   0.472125 0.033956 0.464145 0.074483
C4    C     C_R   0.742898 0.501054 0.496647 0.913254
C5    C     C_2   0.516727 0.966014 0.536351 0.343233
C6    C     C_1   0.518979 0.854000 0.523129 -0.056955
C7    C     C_1   0.477136 0.145772 0.477311 0.177571
C8    C     C_R   0.499934 0.519226 0.314784 0.864862
C9    C     C_R   0.257657 0.500335 0.497066 0.959801
C10   C     C_3   0.925445 0.460755 0.600578 0.149317
C11   C     C_3   0.073251 0.458793 0.602076 0.770997
C12   C     C_3   0.121555 0.500182 0.495767 -0.146504
C13   C     C_3   0.921582 0.432679 0.416764 -0.478973
C14   C     C_3   0.937882 0.617811 0.467164 0.617174
C15   C     C_3   0.880161 0.503557 0.495484 -0.113222
C16   C     C_3   0.799076 0.356808 0.715683 0.073790
C17   C     C_3   0.719959 0.255429 0.726842 -0.734945
C18   C     C_3   0.094561 0.405523 0.237173 -0.782095
C19   C     C_3   0.564129 0.286613 0.995130 0.110993
C20   C     C_3   0.586534 0.196300 0.070110 -0.822098
C21   C     C_3   0.440543 0.731727 0.007809 -0.801330
C22   C     C_3   0.544150 0.938073 0.705917 0.128835
C23   C     C_3   0.066009 0.434606 0.412083 -0.027134
C24   C     C_3   0.579002 0.993687 0.797232 -0.858731
C25   C     C_3   0.348632 0.066772 0.310876 -0.802641
C26   C     C_3   0.128316 0.498953 0.765895 0.151797
C27   C     C_3   0.157816 0.590216 0.826776 -0.840097
C28   C     C_3   0.072027 0.267596 0.611822 0.137416
C29   C     C_3   0.172677 0.194283 0.592464 -0.866363
C30   C     C_3   0.964604 0.714747 0.293996 -0.866661
C31   C     C_3   0.920709 0.788825 0.514578 0.135300
C32   C     C_3   0.898122 0.846788 0.604492 -0.818491
C33   C     C_3   0.082513 0.613186 0.472048 -0.475400
C34   C     C_1   0.492885 0.535170 0.211732 -0.182573
C35   C     C_2   0.481946 0.545977 0.019696 0.127334
C36   C     C_2   0.500876 0.456468 0.980932 0.434060
C37   C     C_1   0.497947 0.456727 0.875841 -0.188502
C38   C     C_1   0.486494 0.544445 0.124331 0.059586
H1    H     H_    0.130348 0.647136 0.404433 0.174747
H2    H     H_    0.664355 0.250729 0.795469 0.177004
H3    H     H_    0.654737 0.249540 0.663126 0.292937
H4    H     H_    0.197363 0.513192 0.312120 0.214872
H5    H     H_    0.117984 0.447829 0.164873 0.240146
H6    H     H_    0.996447 0.372494 0.233392 0.245356
H7    H     H_    0.158912 0.341972 0.250925 0.237983
H8    H     H_    0.655069 0.312120 0.958986 0.135693
H9    H     H_    0.494904 0.259394 0.939682 0.152768
H10   H     H_    0.497024 0.168061 0.106599 0.258724
H11   H     H_    0.624092 0.132462 0.032466 0.205052
H12   H     H_    0.880809 0.458172 0.343811 0.213302
H13   H     H_    0.655274 0.220635 0.126866 0.258690
H14   H     H_    0.507815 0.651474 0.894667 0.231785
H15   H     H_    0.414742 0.794122 0.952045 0.235038
H16   H     H_    0.528659 0.756987 0.045494 0.242506
H17   H     H_    0.363094 0.718046 0.061977 0.252978
H18   H     H_    0.602287 0.870209 0.705659 0.148320
H19   H     H_    0.442933 0.911629 0.710857 0.135555
H20   H     H_    0.523683 0.062863 0.799388 0.256900
H21   H     H_    0.558879 0.941333 0.864511 0.208917
H22   H     H_    0.680551 0.017857 0.796392 0.254971
H23   H     H_    0.899370 0.518175 0.652248 0.122916
H24   H     H_    0.387096 0.921891 0.377373 0.224888
H25   H     H_    0.318508 0.028756 0.243693 0.238411
H26   H     H_    0.406021 0.138364 0.287148 0.258788
H27   H     H_    0.263856 0.086230 0.350278 0.232934
H28   H     H_    0.206055 0.446231 0.777763 0.191566
H29   H     H_    0.039226 0.458974 0.792653 0.114610
H30   H     H_    0.081647 0.644581 0.817736 0.253438
H31   H     H_    0.166263 0.562787 0.905926 0.217800
H32   H     H_    0.247847 0.631201 0.802372 0.271184
H33   H     H_    0.008724 0.271249 0.547394 0.165134
H34   H     H_    0.883316 0.351977 0.433717 0.204995
H35   H     H_    0.018374 0.233250 0.677144 0.187326
H36   H     H_    0.241846 0.190927 0.654120 0.270962
H37   H     H_    0.128866 0.115644 0.585504 0.201843
H38   H     H_    0.221754 0.220536 0.522706 0.260457
H39   H     H_    0.796265 0.668014 0.364156 0.238973
H40   H     H_    0.902513 0.745878 0.234058 0.243825
H41   H     H_    0.030752 0.666308 0.259669 0.274198
H42   H     H_    0.016081 0.780896 0.325578 0.225704
H43   H     H_    0.853850 0.815168 0.455936 0.163935
H44   H     H_    0.018624 0.809284 0.490215 0.123829
H45   H     H_    0.097077 0.354987 0.424272 0.167468
H46   H     H_    0.964509 0.823624 0.664600 0.251252
H47   H     H_    0.912419 0.931169 0.585193 0.208087
H48   H     H_    0.800548 0.829002 0.630679 0.260679
H49   H     H_    0.120638 0.662597 0.529518 0.233193
H50   H     H_    0.736098 0.421149 0.717866 0.135005
H51   H     H_    0.866184 0.358060 0.778391 0.121239
H52   H     H_    0.781719 0.189772 0.730148 0.233650
N1    N     N_1   0.479840 0.234530 0.484780 -0.118218
N2    N     N_1   0.520150 0.765470 0.515220 -0.091473
N3    N     N_2   0.109396 0.475742 0.314171 -0.278029
N4    N     N_2   0.458242 0.638879 0.959541 -0.326035
N5    N     N_2   0.421665 0.997739 0.374055 -0.322670
N6    N     N_2   0.889756 0.652792 0.368017 -0.316708
O1    O     O_R   0.492620 0.402510 0.634760 -0.603933
O2    O     O_3   0.517602 0.367604 0.044028 -0.613286
O3    O     O_3   0.567575 0.006366 0.621007 -0.618617
O4    O     O_3   0.119694 0.535379 0.665332 -0.656393
O5    O     O_3   0.129734 0.363512 0.634515 -0.646318
O6    O     O_3   0.899378 0.681766 0.540495 -0.617210
O7    O     O_R   0.505570 0.572960 0.644530 -0.604782
O8    O     O_R   0.678730 0.414780 0.495130 -0.582169
O9    O     O_R   0.691680 0.585220 0.504900 -0.603265
O10   O     O_R   0.494430 0.427040 0.355470 -0.601481
O11   O     O_R   0.507380 0.597490 0.365240 -0.630323
O12   O     O_R   0.308320 0.414780 0.495100 -0.603912
O13   O     O_R   0.321270 0.585220 0.504870 -0.621772
O14   O     O_3   0.863746 0.362342 0.625476 -0.641165
Zn1   Zn    Zn3+2 0.491360 0.386190 0.493470 0.976857
Zn2   Zn    Zn3+2 0.508640 0.613810 0.506530 0.963867

loop_
_geom_bond_atom_site_label_1
_geom_bond_atom_site_label_2
_ccdc_geom_bond_type
C8    O11   A    
H4    N3    S    
O11   Zn2   S    
C35   C36   D    
C14   C33   S    
C19   H8    S    
C16   O14   S    
C29   H38   S    
C9    O12   A    
C12   C23   S    
C26   C27   S    
C33   H1    S    
C31   H44   S    
C23   H45   S    
C26   H29   S    
C36   C37   S    
C20   H13   S    
C3    C7    S    
C10   C15   S    
C5    C6    S    
O1    Zn1   S    
C19   H9    S    
C14   O6    S    
C21   N4    S    
C13   C23   S    
C1    C2    S    
C25   H25   S    
N1    Zn1   S    
C30   N6    S    
C27   H30   S    
C28   O5    S    
C5    O3    S    
C16   C17   S    
H14   N4    S    
C1    O7    A    
C27   H31   S    
C30   H42   S    
C7    N1    T    
C16   H51   S    
H24   N5    S    
C22   H19   S    
C28   H35   S    
C14   N6    S    
C19   O2    S    
O10   Zn1   S    
C9    O13   A    
C32   H46   S    
C26   H28   S    
C31   O6    S    
C35   C38   S    
C25   H27   S    
O13   Zn2   S    
C1    O1    A    
C21   H17   S    
N2    Zn2   S    
C22   H18   S    
C29   H36   S    
C23   N3    S    
O7    Zn2   S    
C17   H2    S    
C30   H40   S    
C20   H11   S    
C18   H6    S    
C31   C32   S    
C24   H22   S    
C32   H48   S    
C11   O5    S    
C8    C34   S    
C20   H10   S    
C27   H32   S    
C30   H41   S    
O9    Zn2   S    
C25   N5    S    
C13   C15   S    
C22   C24   S    
C28   H33   S    
C18   H7    S    
C35   N4    S    
C28   C29   S    
C22   O3    S    
C34   C38   T    
C17   H52   S    
C3    C5    D    
C8    O10   A    
O8    Zn1   S    
C36   O2    S    
C11   C12   S    
C29   H37   S    
C13   H34   S    
C4    O9    A    
H39   N6    S    
C31   H43   S    
O12   Zn1   S    
C19   C20   S    
C33   H49   S    
C18   H5    S    
C21   H15   S    
C2    C37   T    
C21   H16   S    
C4    C15   S    
C24   H21   S    
C6    N2    T    
C32   H47   S    
C4    O8    A    
C10   O14   S    
C9    C12   S    
C17   H3    S    
C10   C11   S    
C13   H12   S    
C10   H23   S    
C24   H20   S    
C16   H50   S    
C18   N3    S    
C14   C15   S    
C11   O4    S    
C3    N5    S    
C12   C33   S    
C25   H26   S    
C26   O4    S    
