data_mof_unit_47960.cif
_audit_creation_date              2012-12-10T20:25:41-0500
_audit_creation_method            fapswitch 2.2
_symmetry_space_group_name_H-M    P1
_symmetry_Int_Tables_number       1
_space_group_crystal_system       triclinic
_cell_length_a                    8.595775
_cell_length_b                    10.687776
_cell_length_c                    9.866821
_cell_angle_alpha                 90.080433
_cell_angle_beta                  98.633688
_cell_angle_gamma                 90.307778
_cell_volume                      896.175124189

loop_
_atom_site_label
_atom_site_type_symbol
_atom_type_description
_atom_site_fract_x
_atom_site_fract_y
_atom_site_fract_z
_atom_type_partial_charge
C1    C     C_R   0.495175 0.260096 0.499284 0.878908
C2    C     C_R   0.452774 0.935036 0.370499 -0.227779
C3    C     C_R   0.472811 0.871230 0.496171 -0.069924
C4    C     C_R   0.462347 0.936205 0.616624 0.053436
C5    C     C_3   0.552515 0.927066 0.758693 -0.579687
C6    C     C_3   0.550199 0.070030 0.759675 0.358008
C7    C     C_R   0.441183 0.399868 0.063461 0.221918
C8    C     C_R   0.571803 0.593083 0.081505 -0.137944
C9    C     C_R   0.572042 0.592968 0.937582 -0.135329
C10   C     C_R   0.440717 0.400076 0.920896 0.257782
C11   C     C_3   0.275989 0.351511 0.894362 -0.530676
C12   C     C_R   0.201154 0.499934 0.464096 0.963411
C13   C     C_3   0.277148 0.350273 0.048377 -0.519774
C14   C     C_R   0.496294 0.740012 0.499517 0.876460
C15   C     C_R   0.798774 0.500523 0.535815 0.963694
C16   C     C_2   0.035975 0.499017 0.444698 -0.387153
C17   C     C_2   0.963801 0.502623 0.554823 -0.390346
C18   C     C_R   0.461833 0.063742 0.616222 -0.005955
C19   C     C_R   0.471388 0.128831 0.495780 -0.108009
C20   C     C_R   0.451996 0.064426 0.370307 -0.224108
H1    H     H_    0.974199 0.494660 0.340127 0.181748
H2    H     H_    0.628158 0.668955 0.890842 0.146890
H3    H     H_    0.192508 0.420515 0.840957 0.217380
H4    H     H_    0.268452 0.256635 0.847779 0.198418
H5    H     H_    0.193522 0.417849 0.083308 0.223832
H6    H     H_    0.272129 0.254355 0.090935 0.195816
H7    H     H_    0.025343 0.507999 0.659112 0.173600
H8    H     H_    0.447338 0.112848 0.273423 0.168260
H9    H     H_    0.448431 0.886248 0.273671 0.168291
H10   H     H_    0.479838 0.885287 0.831324 0.177371
H11   H     H_    0.669981 0.883533 0.761838 0.199686
H12   H     H_    0.474317 0.106647 0.832246 0.096644
H13   H     H_    0.627317 0.669421 0.143080 0.148255
N1    N     N_R   0.498950 0.499140 0.142680 -0.108577
N2    N     N_R   0.498950 0.499180 0.857030 -0.106767
O1    O     O_R   0.500020 0.316790 0.614690 -0.595902
O2    O     O_R   0.500000 0.316760 0.385350 -0.629518
O3    O     O_R   0.271760 0.500010 0.587850 -0.617695
O4    O     O_R   0.271740 0.499970 0.358500 -0.627166
O5    O     O_R   0.500000 0.683240 0.614650 -0.619228
O6    O     O_R   0.499980 0.683210 0.385310 -0.634269
O7    O     O_R   0.728260 0.500030 0.641500 -0.616344
O8    O     O_R   0.728240 0.499990 0.412150 -0.613088
Zn1   Zn    Zn3+2 0.500010 0.500020 0.653130 0.957804
Zn2   Zn    Zn3+2 0.499990 0.499980 0.346870 0.937476
O9    O     O_3   0.698790 0.132840 0.778855 -0.616417
C21   C     C_3   0.805012 0.097798 0.688676 0.139777
H14   H     H_    0.827082 0.181163 0.626951 0.148285
H15   H     H_    0.762525 0.021909 0.615148 0.131027
C22   C     C_3   0.959924 0.058018 0.773964 -0.361642
H16   H     H_    0.006006 0.135467 0.844284 0.236724
H17   H     H_    0.938842 0.975340 0.837064 0.219232
C23   C     C_3   0.082740 0.024793 0.683589 -0.977546
H18   H     H_    0.039675 0.947241 0.612432 0.271417
H19   H     H_    0.191636 0.994018 0.749674 0.261863
H20   H     H_    0.110603 0.107640 0.623520 0.267431

loop_
_geom_bond_atom_site_label_1
_geom_bond_atom_site_label_2
_ccdc_geom_bond_type
C7    C10   A    
C22   H17   S    
O3    Zn1   S    
C16   H1    S    
O2    Zn2   S    
C11   C13   S    
O5    Zn1   S    
C6    H12   S    
C19   C20   A    
C1    O2    A    
O4    Zn2   S    
C4    C18   A    
C12   O4    A    
C22   H16   S    
C15   O8    A    
C21   H15   S    
N1    Zn2   S    
C8    N1    A    
C23   H18   S    
N2    Zn1   S    
O8    Zn2   S    
C13   H5    S    
C10   N2    A    
C3    C14   S    
O7    Zn1   S    
C14   O6    A    
C4    C5    S    
C11   H3    S    
C2    C3    A    
C21   C22   S    
C8    H13   S    
C23   H19   S    
C12   O3    A    
C5    C6    S    
C6    C18   S    
C7    N1    A    
C13   H6    S    
O1    Zn1   S    
C22   C23   S    
C1    C19   S    
C10   C11   S    
C14   O5    A    
C3    C4    A    
C17   H7    S    
C16   C17   D    
C12   C16   S    
C11   H4    S    
C7    C13   S    
C2    H9    S    
C1    O1    A    
C15   C17   S    
C9    H2    S    
C5    H10   S    
C23   H20   S    
C9    N2    A    
O6    Zn2   S    
O9    C21   S    
C18   C19   A    
C20   H8    S    
C6    O9    S    
C2    C20   A    
C21   H14   S    
C15   O7    A    
C8    C9    A    
C5    H11   S    
