data_mof_unit_52050.cif
_audit_creation_date              2012-12-10T16:42:57-0500
_audit_creation_method            fapswitch 2.2
_symmetry_space_group_name_H-M    P1
_symmetry_Int_Tables_number       1
_space_group_crystal_system       triclinic
_cell_length_a                    7.530241
_cell_length_b                    8.670006
_cell_length_c                    12.943887
_cell_angle_alpha                 88.246511
_cell_angle_beta                  79.709338
_cell_angle_gamma                 103.058041
_cell_volume                      807.753412659

loop_
_atom_site_label
_atom_site_type_symbol
_atom_type_description
_atom_site_fract_x
_atom_site_fract_y
_atom_site_fract_z
_atom_type_partial_charge
C1    C     C_R   0.452767 0.199947 0.503252 0.877940
C2    C     C_R   0.547233 0.800053 0.496747 0.877971
C3    C     C_R   0.470391 0.507704 0.700406 0.837668
C4    C     C_R   0.529599 0.492223 0.299601 0.837766
C5    C     C_R   0.537711 0.474273 0.187153 -0.141320
C6    C     C_R   0.462226 0.525366 0.812890 -0.141276
C7    C     C_R   0.296046 0.576774 0.981045 0.215439
C8    C     C_R   0.703800 0.422586 0.019067 0.215555
C9    C     C_R   0.311646 0.570192 0.872830 -0.192578
C10   C     C_R   0.688405 0.429566 0.127230 -0.192699
C11   C     C_R   0.612234 0.512639 0.860108 0.140725
C12   C     C_R   0.387552 0.486597 0.139967 0.140803
C13   C     C_R   0.580603 0.483598 0.969217 0.007549
C14   C     C_R   0.419112 0.515541 0.030870 0.007557
C15   C     C_2   0.426672 0.031648 0.504821 -0.334347
C16   C     C_2   0.573329 0.968352 0.495175 -0.334356
Cu1   Cu    Cu3+1 0.686350 0.517570 0.488220 1.009885
Cu2   Cu    Cu3+1 0.313650 0.482430 0.511780 1.009897
H1    H     H_    0.785605 0.389092 0.165826 0.211933
H2    H     H_    0.214791 0.611160 0.834216 0.211806
H3    H     H_    0.935255 0.376439 0.582981 0.242786
H4    H     H_    0.064744 0.623549 0.417011 0.242760
H5    H     H_    0.285614 0.959538 0.513940 0.189739
H6    H     H_    0.714387 0.040463 0.486057 0.189759
N1    N     N_2   0.033570 0.455950 0.529530 -0.196799
N2    N     N_2   0.966430 0.544050 0.470470 -0.196824
O1    O     O_R   0.621060 0.286250 0.492350 -0.585708
O2    O     O_R   0.378940 0.713750 0.507650 -0.585695
O3    O     O_R   0.306310 0.256580 0.512240 -0.574229
O4    O     O_R   0.693690 0.743420 0.487760 -0.574218
O5    O     O_R   0.631800 0.512400 0.642670 -0.569326
O6    O     O_R   0.368200 0.487600 0.357330 -0.569345
O7    O     O_R   0.317060 0.482730 0.662570 -0.565143
O8    O     O_R   0.682940 0.517270 0.337430 -0.565207
I1    I     I_    0.117397 0.355949 0.215764 -0.295600
I2    I     I_    0.882606 0.642835 0.784343 -0.295693
I3    I     I_    0.119603 0.715803 0.057602 -0.278739
I4    I     I_    0.880261 0.283438 0.942680 -0.278436

loop_
_geom_bond_atom_site_label_1
_geom_bond_atom_site_label_2
_ccdc_geom_bond_type
C8    C13   A    
C1    C15   S    
C2    C16   S    
C9    H2    S    
C10   H1    S    
C2    O4    A    
C3    C6    S    
C6    C9    A    
C15   H5    S    
Cu1   Cu2   S    
C7    I3    S    
C5    C10   A    
C16   H6    S    
Cu2   O3    S    
C13   C14   A    
C12   I1    S    
C3    O5    A    
Cu1   O4    S    
C11   C13   A    
C4    O6    A    
Cu2   N1    S    
C8    I4    S    
Cu1   N2    S    
C1    O3    A    
C11   I2    S    
C12   C14   A    
Cu1   O5    S    
Cu2   O7    S    
C4    O8    A    
Cu2   O6    S    
Cu1   O8    S    
C3    O7    A    
C15   C16   D    
Cu1   O1    S    
C7    C9    A    
Cu2   O2    S    
C5    C12   A    
C8    C10   A    
H4    N2    S    
C6    C11   A    
C1    O1    A    
H3    N1    S    
C2    O2    A    
N1    N2    D    
C7    C14   A    
C4    C5    S    
