data_mof_unit_27526.cif
_audit_creation_date              2013-03-05T16:09:06-0500
_audit_creation_method            fapswitch 2.2
_symmetry_space_group_name_H-M    P1
_symmetry_Int_Tables_number       1
_space_group_crystal_system       triclinic
_cell_length_a                    18.225268
_cell_length_b                    7.153789
_cell_length_c                    12.882081
_cell_angle_alpha                 90.0
_cell_angle_beta                  72.527843
_cell_angle_gamma                 89.99998
_cell_volume                      1602.07212205

loop_
_atom_site_label
_atom_site_type_symbol
_atom_site_description
_atom_site_fract_x
_atom_site_fract_y
_atom_site_fract_z
_atom_type_partial_charge
O1    O     O_R   0.453880 0.506200 0.150010 -0.593920
O2    O     O_R   0.546120 0.006200 0.849990 -0.593920
O3    O     O_R   0.604080 0.177770 0.007280 -0.550540
O4    O     O_R   0.395920 0.677770 0.992720 -0.550541
C1    C     C_R   0.636319 0.344258 0.999415 1.029682
C2    C     C_R   0.363681 0.844258 0.000585 1.029681
O5    O     O_R   0.458010 0.176640 0.159130 -0.560445
O6    O     O_R   0.541990 0.676640 0.840870 -0.560445
O7    O     O_R   0.399010 0.004010 0.002930 -0.572780
O8    O     O_R   0.600990 0.504010 0.997070 -0.572781
C3    C     C_R   0.443666 0.345177 0.202410 1.078020
C4    C     C_R   0.556334 0.845177 0.797589 1.078022
O9    O     O_3   0.480810 0.338440 0.948570 -0.256864
O10   O     O_3   0.519190 0.838440 0.051430 -0.256864
V1    V     V_3+5 0.503560 0.064490 0.009540 1.345327
V2    V     V_3+5 0.496440 0.564490 0.990460 1.345326
C5    C     C_R   0.578977 0.885850 0.493621 0.422473
C6    C     C_R   0.421023 0.385850 0.506379 0.422472
C7    C     C_R   0.590443 0.853370 0.677750 -0.280728
C8    C     C_R   0.409556 0.353370 0.322250 -0.280727
C9    C     C_R   0.952076 0.882579 0.392505 -0.104138
C10   C     C_R   0.047923 0.382574 0.607494 -0.104147
C11   C     C_R   0.915300 0.915036 0.503028 -0.068736
C12   C     C_R   0.084700 0.415030 0.496971 -0.068727
C13   C     C_R   0.835540 0.913668 0.544218 -0.100655
C14   C     C_R   0.164460 0.413665 0.455782 -0.100658
C15   C     C_R   0.788885 0.869862 0.477655 0.139389
C16   C     C_R   0.211115 0.369861 0.522345 0.139388
C17   C     C_R   0.825070 0.858214 0.364138 0.063697
C18   C     C_R   0.174929 0.358214 0.635862 0.063695
C19   C     C_R   0.706804 0.853353 0.520347 0.007056
C20   C     C_R   0.293195 0.353353 0.479653 0.007056
C21   C     C_R   0.660836 0.870566 0.448211 -0.133304
C22   C     C_R   0.339164 0.370567 0.551789 -0.133304
C23   C     C_R   0.699442 0.868756 0.333493 0.385446
C24   C     C_R   0.300558 0.368757 0.666507 0.385447
C25   C     C_R   0.779107 0.852739 0.294830 -0.325236
C26   C     C_R   0.220893 0.352741 0.705170 -0.325236
C27   C     C_R   0.669753 0.818042 0.632657 -0.126739
C28   C     C_R   0.330247 0.318041 0.367342 -0.126742
C29   C     C_R   0.544431 0.890058 0.608735 -0.180236
C30   C     C_R   0.455569 0.390058 0.391265 -0.180235
C31   C     C_R   0.906702 0.862020 0.321231 -0.215331
C32   C     C_R   0.093298 0.362020 0.678768 -0.215335
H1    H     H_    0.811231 0.953520 0.628386 0.125884
H2    H     H_    0.188769 0.453516 0.371614 0.125886
H3    H     H_    0.948471 0.941711 0.558601 0.161379
H4    H     H_    0.051529 0.441703 0.441397 0.161388
H5    H     H_    0.804916 0.845930 0.207439 0.157042
H6    H     H_    0.195084 0.345933 0.792561 0.157041
C33   C     C_1   0.215945 0.858904 0.001928 -0.200115
C34   C     C_1   0.784055 0.358904 0.998072 -0.200117
C35   C     C_1   0.283089 0.852493 0.001678 -0.141801
C36   C     C_1   0.716910 0.352493 0.998322 -0.141801
O11   O     O_R   0.899030 0.205490 0.002790 -0.568176
O12   O     O_R   0.100970 0.705490 0.997210 -0.568176
O13   O     O_R   0.042000 0.536370 0.840840 -0.601562
O14   O     O_R   0.958000 0.036370 0.159160 -0.601562
C37   C     C_R   0.056660 0.368301 0.797749 0.990187
C38   C     C_R   0.943340 0.868301 0.202251 0.990177
O15   O     O_R   0.895930 0.535070 0.992690 -0.593781
O16   O     O_R   0.104070 0.035070 0.007310 -0.593781
O17   O     O_R   0.953870 0.707520 0.150040 -0.570213
O18   O     O_R   0.046130 0.207520 0.849960 -0.570214
C39   C     C_R   0.864322 0.366845 0.998430 1.010888
C40   C     C_R   0.135678 0.866845 0.001571 1.010880
O19   O     O_3   0.019200 0.374340 0.051340 -0.279635
O20   O     O_3   0.980800 0.874340 0.948660 -0.279636
V3    V     V_3+5 0.996440 0.648350 0.990470 1.231590
V4    V     V_3+5 0.003560 0.148350 0.009530 1.231590
C41   C     C_2   0.459035 0.922084 0.656084 1.215569
O21   O     O_2   0.422620 0.000974 0.603331 -0.594950
O22   O     O_R   0.419077 0.856338 0.759527 -0.788061
H7    H     H_    0.361719 0.879739 0.778443 0.339333
C42   C     C_2   0.540965 0.422083 0.343917 1.215570
O23   O     O_2   0.577380 0.500973 0.396669 -0.594950
O24   O     O_R   0.580923 0.356337 0.240474 -0.788061
H8    H     H_    0.638281 0.379738 0.221558 0.339332
N1    N     N_R   0.661274 0.888946 0.251837 0.264716
O25   O     O_R   0.680828 0.027103 0.183488 -0.386539
O26   O     O_R   0.627214 0.745991 0.224649 -0.374407
N2    N     N_R   0.338726 0.388947 0.748162 0.264716
O27   O     O_R   0.319173 0.527106 0.816511 -0.386538
O28   O     O_R   0.372784 0.245990 0.775353 -0.374408
N3    N     N_R   0.530046 0.894521 0.424352 0.257400
O29   O     O_R   0.532383 0.039112 0.363229 -0.374018
O30   O     O_R   0.472596 0.779941 0.438418 -0.394335
N4    N     N_R   0.469953 0.394521 0.575648 0.257400
O31   O     O_R   0.467617 0.539113 0.636771 -0.374018
O32   O     O_R   0.527403 0.279942 0.561582 -0.394336
C43   C     C_2   0.710598 0.714414 0.699337 0.969486
O33   O     O_2   0.708715 0.770356 0.789865 -0.663419
O34   O     O_R   0.751600 0.552435 0.657229 -0.740580
H9    H     H_    0.775022 0.491411 0.710824 0.327946
C44   C     C_2   0.289402 0.214411 0.300663 0.969491
O35   O     O_2   0.291284 0.270352 0.210135 -0.663419
O36   O     O_R   0.248402 0.052431 0.342771 -0.740580
H10   H     H_    0.224980 0.991405 0.289176 0.327945
C45   C     C_2   0.037590 0.873581 0.354213 0.960816
O37   O     O_2   0.074979 0.949295 0.406917 -0.627134
O38   O     O_R   0.075548 0.772736 0.260526 -0.823612
H11   H     H_    0.133443 0.772383 0.245123 0.308674
C46   C     C_2   0.962409 0.373571 0.645785 0.960813
O39   O     O_2   0.925020 0.449265 0.593074 -0.627130
O40   O     O_R   0.924452 0.272742 0.739479 -0.823615
H12   H     H_    0.866556 0.272383 0.754880 0.308674

loop_
_geom_bond_atom_site_label_1
_geom_bond_atom_site_label_2
_geom_bond_distance
_ccdc_geom_bond_type
O34   H9    1.013146 S    
C15   C17   1.414631 A    
O22   H7    1.013533 S    
C44   O35   1.223647 D    
O1    C3    1.319768 A    
O2    C4    1.319768 A    
C2    O7    1.316530 A    
O36   H10   1.013149 S    
O24   H8    1.013534 S    
O5    C3    1.321112 A    
O19   V3    2.196513 S    
C18   C26   1.396253 A    
C37   O18   1.317056 A    
O38   H11   1.013423 S    
C38   O17   1.317056 A    
C5    N3    1.439856 S    
C23   C25   1.391052 A    
C12   C14   1.389802 A    
C6    C30   1.426774 A    
C9    C45   1.488223 S    
O13   C37   1.317595 A    
C32   C37   1.477348 S    
O14   C38   1.317594 A    
O16   V4    1.995405 S    
C42   O24   1.394468 S    
C9    C31   1.415782 A    
C10   C32   1.415783 A    
O17   V3    2.012192 S    
C24   N2    1.431994 S    
O20   V3    1.754194 S    
C19   C21   1.431103 A    
O18   V4    2.012189 S    
C29   C41   1.508892 S    
O5    V1    2.021303 S    
O6    V2    2.021305 S    
C17   C31   1.423329 A    
C18   C32   1.423330 A    
C5    C21   1.433842 A    
C27   C43   1.491825 S    
O11   C39   1.325533 A    
C34   C36   1.223621 T    
N3    O30   1.298876 A    
C3    C8    1.482189 S    
C11   H3    1.083659 S    
O16   C40   1.326657 A    
C15   C19   1.435338 A    
C12   H4    1.083661 S    
C1    C36   1.465815 S    
C16   C20   1.435339 A    
O4    C2    1.318437 A    
C43   O33   1.223647 D    
C41   O22   1.394468 S    
O14   V4    2.021274 S    
N3    O29   1.292902 A    
C6    N4    1.439857 S    
C10   C46   1.488227 S    
C33   C35   1.223620 T    
C33   C40   1.465385 S    
C20   C22   1.431102 A    
O4    V2    1.995439 S    
C42   O23   1.221315 D    
C43   O34   1.397127 S    
C25   H5    1.083061 S    
C45   O37   1.223306 D    
C8    C28   1.409392 A    
O6    C4    1.321112 A    
C30   C42   1.508892 S    
C46   O40   1.397939 S    
O1    V2    2.010628 S    
O2    V1    2.010628 S    
C6    C22   1.433842 A    
C7    C27   1.409393 A    
C31   C38   1.477348 S    
C45   O38   1.397936 S    
N4    O32   1.298874 A    
N2    O27   1.300254 A    
N2    O28   1.297858 A    
C9    C11   1.399011 A    
C10   C12   1.399013 A    
C28   C44   1.491825 S    
C13   H1    1.079222 S    
C20   C28   1.423505 A    
O3    V1    1.995439 S    
N1    O26   1.297858 A    
O15   V3    1.995409 S    
O3    C1    1.318438 A    
C8    C30   1.417815 A    
C44   O36   1.397127 S    
C26   H6    1.083062 S    
C13   C15   1.412200 A    
O40   H12   1.013427 S    
C14   C16   1.412199 A    
O19   V4    1.754194 S    
C24   C26   1.391052 A    
O7    V1    1.980560 S    
C1    O8    1.316528 A    
O8    V2    1.980562 S    
O12   C40   1.325533 A    
C4    C7    1.482188 S    
C23   N1    1.431994 S    
C21   C23   1.433439 A    
C16   C18   1.414631 A    
C22   C24   1.433439 A    
C11   C13   1.389804 A    
C5    C29   1.426775 A    
O11   V4    1.975680 S    
C14   H2    1.079222 S    
N1    O25   1.300254 A    
O15   C39   1.326657 A    
C41   O21   1.221317 D    
N4    O31   1.292902 A    
O20   V4    2.196514 S    
O12   V3    1.975681 S    
O9    V2    1.754911 S    
C17   C25   1.396254 A    
C46   O39   1.223311 D    
C19   C27   1.423506 A    
O10   V1    1.754910 S    
C2    C35   1.465813 S    
O13   V3    2.021271 S    
C34   C39   1.465385 S    
C7    C29   1.417814 A    
