data_mof_unit_52147.cif
_audit_creation_date              2012-12-10T17:33:41-0500
_audit_creation_method            fapswitch 2.2
_symmetry_space_group_name_H-M    P1
_symmetry_Int_Tables_number       1
_space_group_crystal_system       triclinic
_cell_length_a                    11.701389
_cell_length_b                    12.358928
_cell_length_c                    13.327313
_cell_angle_alpha                 116.910107
_cell_angle_beta                  77.396671
_cell_angle_gamma                 101.106608
_cell_volume                      1667.4521992

loop_
_atom_site_label
_atom_site_type_symbol
_atom_type_description
_atom_site_fract_x
_atom_site_fract_y
_atom_site_fract_z
_atom_type_partial_charge
C1    C     C_R   0.516409 0.854646 0.286396 0.767672
C2    C     C_R   0.496154 0.228501 0.831824 -0.081211
C3    C     C_R   0.480577 0.815893 0.095912 -0.184278
C4    C     C_R   0.464890 0.737306 0.984396 -0.156023
C5    C     C_R   0.479804 0.614283 0.941016 -0.182914
C6    C     C_R   0.514167 0.567416 0.007784 0.097784
C7    C     C_R   0.544766 0.651580 0.115513 0.090391
C8    C     C_R   0.521465 0.440627 0.970943 0.043980
C9    C     C_R   0.567705 0.401797 0.038371 0.124130
C10   C     C_R   0.616196 0.490694 0.133804 -0.232155
C11   C     C_R   0.606642 0.613300 0.170047 -0.201902
C12   C     C_R   0.715655 0.999742 0.499842 0.808477
C13   C     C_R   0.483996 0.351413 0.869244 -0.244914
C14   C     C_R   0.533729 0.190113 0.901716 -0.228238
C15   C     C_R   0.518218 0.773751 0.163634 -0.097031
C16   C     C_R   0.711776 0.367435 0.368163 -0.311309
C17   C     C_R   0.334158 0.759419 0.636231 0.039947
C18   C     C_R   0.294646 0.666875 0.670697 -0.290420
C19   C     C_R   0.356652 0.564863 0.628856 0.176803
C20   C     C_R   0.459169 0.553586 0.543741 -0.052306
C21   C     C_R   0.497400 0.655409 0.515359 0.256918
C22   C     C_R   0.528055 0.450436 0.486081 -0.027404
C23   C     C_R   0.486801 0.145327 0.712831 0.804188
C24   C     C_R   0.639330 0.461970 0.420358 0.176194
C25   C     C_R   0.675969 0.565448 0.402013 -0.299917
C26   C     C_R   0.602298 0.655050 0.441772 -0.165911
C27   C     C_R   0.491855 0.334206 0.485258 -0.004518
C28   C     C_R   0.674218 0.260200 0.379785 0.083401
C29   C     C_R   0.284329 0.000412 0.500356 0.822411
C30   C     C_1   0.837394 0.999685 0.500100 -0.183126
C31   C     C_1   0.939982 0.000053 0.500285 -0.001830
C32   C     C_1   0.059971 0.000587 0.500408 -0.004032
C33   C     C_1   0.162563 0.000752 0.500412 -0.188562
C34   C     C_R   0.568553 0.275228 0.005848 0.161815
Cu1   Cu    Cu3+1 0.526510 0.098270 0.475420 0.935437
Cu2   Cu    Cu3+1 0.473490 0.901730 0.524580 0.933285
H1    H     H_    0.541518 0.094156 0.872708 0.158164
H2    H     H_    0.759234 0.573660 0.349565 0.148480
H3    H     H_    0.796916 0.376569 0.318838 0.142175
H4    H     H_    0.404636 0.309266 0.518304 0.160014
H5    H     H_    0.285690 0.838075 0.672163 0.145425
H6    H     H_    0.216766 0.677404 0.734337 0.149981
H7    H     H_    0.629977 0.723193 0.412249 0.195817
H8    H     H_    0.664145 0.466658 0.179802 0.165381
H9    H     H_    0.447250 0.374921 0.815364 0.142098
H10   H     H_    0.461131 0.909343 0.129852 0.152474
H11   H     H_    0.467827 0.559246 0.853959 0.121917
H12   H     H_    0.437906 0.771150 0.932033 0.141647
H13   H     H_    0.652914 0.679628 0.237716 0.131000
H14   H     H_    0.731087 0.188032 0.342911 0.128608
N1    N     N_R   0.566700 0.246290 0.438210 -0.185322
N2    N     N_R   0.434010 0.754320 0.561170 -0.204972
O1    O     O_R   0.533340 0.972510 0.318140 -0.581025
O2    O     O_R   0.488570 0.806530 0.359650 -0.580770
O3    O     O_R   0.685190 0.083000 0.479260 -0.576346
O4    O     O_R   0.640410 0.917020 0.520770 -0.596685
O5    O     O_R   0.511430 0.193470 0.640350 -0.575736
O6    O     O_R   0.466660 0.027490 0.681860 -0.590234
O7    O     O_R   0.359590 0.082980 0.479230 -0.583521
O8    O     O_R   0.314810 0.917000 0.520740 -0.577972
C35   C     C_3   0.315273 0.484401 0.691130 -0.430376
C36   C     C_3   0.205439 0.398059 0.649722 -0.809868
H15   H     H_    0.128189 0.450482 0.678406 0.250218
H16   H     H_    0.216866 0.348962 0.555480 0.248249
H17   H     H_    0.186926 0.330158 0.685849 0.240631
H18   H     H_    0.386022 0.435775 0.689283 0.183694
H19   H     H_    0.291419 0.542838 0.783494 0.200495
C37   C     C_3   0.606430 0.227050 0.078496 -0.417012
C38   C     C_3   0.738943 0.218721 0.052176 -0.832862
H20   H     H_    0.763870 0.155725 0.961477 0.256985
H21   H     H_    0.788741 0.309815 0.069372 0.246355
H22   H     H_    0.763735 0.182859 0.106367 0.238926
H23   H     H_    0.579863 0.284220 0.170443 0.209136
H24   H     H_    0.560352 0.134378 0.062178 0.199993

loop_
_geom_bond_atom_site_label_1
_geom_bond_atom_site_label_2
_ccdc_geom_bond_type
C16   C28   A    
C23   O6    A    
C21   C26   A    
C8    C13   A    
Cu1   O1    S    
Cu1   Cu2   S    
C7    C11   A    
C5    H11   S    
C11   H13   S    
Cu2   O6    S    
C18   H6    S    
C5    C6    A    
C28   N1    A    
C37   H24   S    
C29   C33   S    
Cu1   O7    S    
C18   C19   A    
C38   H21   S    
C2    C13   A    
C1    O1    A    
C36   H16   S    
C28   H14   S    
C35   H18   S    
C19   C20   A    
C8    C9    A    
C1    C15   S    
C9    C10   A    
Cu2   N2    S    
C7    C15   A    
C16   C24   A    
C35   C36   S    
C17   N2    A    
C27   N1    A    
C26   H7    S    
C10   H8    S    
C29   O7    A    
C24   C25   A    
C34   C37   S    
C37   C38   S    
C6    C8    A    
C37   H23   S    
Cu1   O3    S    
C38   H22   S    
C1    O2    A    
C36   H15   S    
Cu2   O4    S    
C25   H2    S    
C35   H19   S    
C31   C32   S    
C29   O8    A    
C27   H4    S    
C17   C18   A    
C12   O4    A    
C20   C22   A    
C22   C27   A    
Cu1   N1    S    
C9    C34   A    
C22   C24   A    
C3    C4    A    
C3    C15   A    
C4    H12   S    
C23   O5    A    
C36   H17   S    
C12   C30   S    
C4    C5    A    
Cu2   O8    S    
C14   C34   A    
C6    C7    A    
C3    H10   S    
Cu1   O5    S    
C32   C33   T    
C25   C26   A    
C14   H1    S    
C13   H9    S    
C30   C31   T    
C19   C35   S    
C38   H20   S    
C2    C14   A    
C17   H5    S    
C12   O3    A    
Cu2   O2    S    
C10   C11   A    
C16   H3    S    
C20   C21   A    
C2    C23   S    
C21   N2    A    
