data_mof_unit_61427.cif
_audit_creation_date              2012-12-10T20:46:41-0500
_audit_creation_method            fapswitch 2.2
_symmetry_space_group_name_H-M    P1
_symmetry_Int_Tables_number       1
_space_group_crystal_system       triclinic
_cell_length_a                    15.527172
_cell_length_b                    19.208588
_cell_length_c                    19.209002
_cell_angle_alpha                 94.666375
_cell_angle_beta                  102.163687
_cell_angle_gamma                 97.03692
_cell_volume                      5524.35877817

loop_
_atom_site_label
_atom_site_type_symbol
_atom_type_description
_atom_site_fract_x
_atom_site_fract_y
_atom_site_fract_z
_atom_type_partial_charge
C1    C     C_R   0.509552 0.311633 0.493624 0.508530
C2    C     C_R   0.882053 0.522622 0.501628 -0.125437
C3    C     C_R   0.882672 0.567055 0.623465 -0.123439
C4    C     C_R   0.490435 0.688104 0.505830 0.506598
C5    C     C_R   0.160123 0.455025 0.448533 0.022171
C6    C     C_R   0.484189 0.763786 0.504892 0.029110
C7    C     C_R   0.547983 0.807755 0.480529 -0.152794
C8    C     C_R   0.541193 0.878997 0.477166 -0.093262
C9    C     C_R   0.469980 0.907709 0.498071 0.224002
C10   C     C_R   0.405733 0.863610 0.521416 -0.111968
C11   C     C_R   0.413085 0.792264 0.525556 -0.147881
C12   C     C_R   0.026076 0.432334 0.354238 -0.142364
C13   C     C_R   0.445396 0.114033 0.458596 -0.092864
C14   C     C_R   0.441140 0.186051 0.456739 -0.154411
C15   C     C_R   0.523822 0.091039 0.494905 0.223806
C16   C     C_R   0.509582 0.508868 0.690857 0.503749
C17   C     C_R   0.514502 0.235747 0.491771 0.029792
C18   C     C_R   0.592903 0.212536 0.526820 -0.146669
C19   C     C_R   0.597697 0.140711 0.527444 -0.111121
C20   C     C_R   0.490623 0.485187 0.232178 0.027925
C21   C     C_R   0.532004 0.541900 0.203842 -0.153036
C22   C     C_R   0.535126 0.536649 0.131809 -0.093702
C23   C     C_R   0.977897 0.459866 0.400593 -0.117728
C24   C     C_R   0.496813 0.474200 0.086456 0.223647
C25   C     C_R   0.456612 0.417299 0.114970 -0.112586
C26   C     C_R   0.452644 0.422841 0.187172 -0.149677
C27   C     C_R   0.542809 0.462620 0.881028 -0.093255
C28   C     C_R   0.490889 0.490676 0.309033 0.508091
C29   C     C_R   0.545007 0.460112 0.808554 -0.154000
C30   C     C_R   0.509263 0.518567 0.913832 0.223412
C31   C     C_R   0.512740 0.512756 0.767994 0.029894
C32   C     C_R   0.480710 0.568880 0.801236 -0.148926
C33   C     C_R   0.480206 0.572096 0.873768 -0.112736
C34   C     C_R   0.018873 0.483726 0.473151 0.033964
C35   C     C_R   0.741062 0.534920 0.535601 0.499525
C36   C     C_R   0.258212 0.465250 0.466754 0.490787
C37   C     C_R   0.972340 0.561225 0.644479 -0.128899
C38   C     C_R   0.837448 0.546757 0.552447 0.035569
C39   C     C_R   0.116563 0.430766 0.377527 -0.125668
C40   C     C_R   0.110208 0.477082 0.498041 0.028912
C41   C     C_R   0.972250 0.513385 0.522038 0.030406
C42   C     C_R   0.016803 0.532822 0.595049 0.047839
C43   C     C_R   0.104005 0.520682 0.619118 -0.137716
C44   C     C_R   0.149290 0.491759 0.571849 -0.116527
H1    H     H_    0.847444 0.584476 0.663245 0.113959
H2    H     H_    0.567667 0.421347 0.911357 0.135704
H3    H     H_    0.427568 0.368783 0.080935 0.120745
H4    H     H_    0.137051 0.532470 0.675250 0.110552
H5    H     H_    0.421163 0.378082 0.207966 0.136024
H6    H     H_    0.456281 0.610493 0.771168 0.134920
H7    H     H_    0.568297 0.581188 0.111865 0.136698
H8    H     H_    0.455520 0.615858 0.898681 0.120418
H9    H     H_    0.562276 0.590448 0.237405 0.137842
H10   H     H_    0.005896 0.575837 0.700171 0.109333
H11   H     H_    0.842825 0.507263 0.448038 0.099542
H12   H     H_    0.387918 0.076515 0.431506 0.135739
H13   H     H_    0.153239 0.413038 0.338953 0.137181
H14   H     H_    0.908618 0.460992 0.377829 0.104830
H15   H     H_    0.993479 0.414160 0.299044 0.120228
H16   H     H_    0.214734 0.479587 0.594648 0.145032
H17   H     H_    0.380137 0.202879 0.429201 0.132190
H18   H     H_    0.350262 0.884807 0.537058 0.121424
H19   H     H_    0.362489 0.759247 0.543827 0.138644
H20   H     H_    0.650695 0.249956 0.553571 0.136836
H21   H     H_    0.591116 0.911339 0.457529 0.136768
H22   H     H_    0.658702 0.123602 0.554601 0.121477
H23   H     H_    0.603225 0.787103 0.463908 0.137806
H24   H     H_    0.570157 0.416442 0.783945 0.133449
N1    N     N_2   0.460393 0.980041 0.495213 -0.247689
N2    N     N_2   0.532028 0.018716 0.498273 -0.251458
N3    N     N_2   0.498760 0.466749 0.012652 -0.248118
N4    N     N_2   0.506251 0.524326 0.987218 -0.251794
O1    O     O_3   0.500000 0.500000 0.500000 -0.433955
O2    O     O_R   0.703360 0.489010 0.567610 -0.539965
O3    O     O_R   0.300660 0.429640 0.429680 -0.547367
O4    O     O_R   0.695340 0.566530 0.487850 -0.541332
O5    O     O_R   0.300650 0.514820 0.514850 -0.546561
O6    O     O_R   0.453370 0.540700 0.651360 -0.549331
O7    O     O_R   0.442100 0.444740 0.334100 -0.546204
O8    O     O_R   0.561930 0.354050 0.543340 -0.544100
O9    O     O_R   0.542600 0.660510 0.471200 -0.546514
O10   O     O_R   0.453390 0.335660 0.446330 -0.544751
O11   O     O_R   0.442080 0.649780 0.539130 -0.543786
O12   O     O_R   0.561920 0.473910 0.663190 -0.544533
O13   O     O_R   0.542610 0.540650 0.351350 -0.544411
Zn1   Zn    Zn3+2 0.425320 0.550450 0.550460 0.929532
Zn2   Zn    Zn3+2 0.580410 0.455020 0.567370 0.935760
Zn3   Zn    Zn3+2 0.568940 0.565780 0.453410 0.934867
Zn4   Zn    Zn3+2 0.425330 0.428750 0.428760 0.933304

loop_
_geom_bond_atom_site_label_1
_geom_bond_atom_site_label_2
_ccdc_geom_bond_type
C23   H14   S    
C35   O2    A    
C27   C29   A    
C41   C42   A    
O12   Zn2   S    
C7    C8    A    
C33   H8    S    
C15   C19   A    
C12   C23   A    
O10   Zn4   S    
C34   C40   A    
C9    N1    S    
O8    Zn2   S    
C11   H19   S    
C2    H11   S    
C2    C41   A    
C39   H13   S    
C5    C36   S    
C16   O12   A    
C19   H22   S    
C18   C19   A    
C37   C42   A    
C28   O7    A    
O1    Zn2   S    
C12   H15   S    
C4    O9    A    
C3    C38   A    
C8    C9    A    
O2    Zn2   S    
C9    C10   A    
O4    Zn3   S    
C13   H12   S    
O6    Zn1   S    
C8    H21   S    
C13   C14   A    
C27   C30   A    
C14   C17   A    
C10   H18   S    
C34   C41   A    
C35   O4    A    
C35   C38   S    
C24   C25   A    
C4    C6    S    
C26   H5    S    
C6    C11   A    
C20   C28   S    
C25   C26   A    
C14   H17   S    
C3    H1    S    
C16   C31   S    
C43   C44   A    
O1    Zn3   S    
C36   O3    A    
C29   H24   S    
C2    C38   A    
C31   C32   A    
C23   C34   A    
C17   C18   A    
C32   H6    S    
C37   H10   S    
C27   H2    S    
O5    Zn1   S    
C13   C15   A    
C22   C24   A    
C42   C43   A    
C43   H4    S    
O13   Zn3   S    
C15   N2    S    
C25   H3    S    
C30   C33   A    
C30   N4    S    
C6    C7    A    
C1    C17   S    
C36   O5    A    
C32   C33   A    
C12   C39   A    
C5    C39   A    
C1    O10   A    
O1    Zn4   S    
N3    N4    D    
C29   C31   A    
C21   H9    S    
C18   H20   S    
C4    O11   A    
C20   C26   A    
C44   H16   S    
C16   O6    A    
N1    N2    D    
O1    Zn1   S    
O7    Zn4   S    
O9    Zn3   S    
C10   C11   A    
O3    Zn4   S    
C7    H23   S    
C40   C44   A    
O11   Zn1   S    
C20   C21   A    
C3    C37   A    
C5    C40   A    
C28   O13   A    
C1    O8    A    
C21   C22   A    
C24   N3    S    
C22   H7    S    
