data_mof_unit_33810.cif
_audit_creation_date              2012-12-10T17:45:33-0500
_audit_creation_method            fapswitch 2.2
_symmetry_space_group_name_H-M    P1
_symmetry_Int_Tables_number       1
_space_group_crystal_system       triclinic
_cell_length_a                    11.534956
_cell_length_b                    10.713102
_cell_length_c                    9.927854
_cell_angle_alpha                 86.873487
_cell_angle_beta                  89.978774
_cell_angle_gamma                 92.225948
_cell_volume                      1224.0818853

loop_
_atom_site_label
_atom_site_type_symbol
_atom_type_description
_atom_site_fract_x
_atom_site_fract_y
_atom_site_fract_z
_atom_type_partial_charge
C1    C     C_R   0.506522 0.259670 0.504419 0.876072
C2    C     C_R   0.485814 0.871973 0.488498 -0.291938
C3    C     C_R   0.334902 0.349164 0.147604 -0.115942
C4    C     C_R   0.282058 0.499570 0.500084 0.928145
C5    C     C_R   0.246156 0.283538 0.081591 0.254425
C6    C     C_R   0.247101 0.286130 0.941168 -0.226025
C7    C     C_R   0.335089 0.351337 0.868465 -0.132036
C8    C     C_R   0.418640 0.426575 0.931935 0.077806
C9    C     C_R   0.418662 0.426091 0.076123 -0.023005
C10   C     C_R   0.575990 0.573260 0.067780 0.608584
C11   C     C_R   0.577472 0.572231 0.924138 0.109245
C12   C     C_R   0.372591 0.012585 0.844019 0.163782
C13   C     C_R   0.494714 0.739390 0.496210 1.033383
C14   C     C_R   0.717959 0.501182 0.499930 0.910141
C15   C     C_1   0.161597 0.500601 0.500329 -0.130684
C16   C     C_1   0.059397 0.501240 0.500424 0.010562
C17   C     C_1   0.940711 0.501546 0.500205 0.004137
C18   C     C_1   0.838490 0.501551 0.499980 -0.174819
C19   C     C_R   0.439619 0.088873 0.751195 -0.178958
C20   C     C_3   0.763309 0.173199 0.377683 -0.695898
C21   C     C_3   0.777451 0.612063 0.858630 -0.676014
C22   C     C_3   0.465117 0.059521 0.056625 -0.692852
C23   C     C_R   0.315871 0.905016 0.799914 -0.292477
C24   C     C_3   0.105975 0.257198 0.267829 -0.788242
C25   C     C_R   0.342021 0.862859 0.674118 0.657148
C26   C     C_R   0.426626 0.928352 0.591294 -0.116130
C27   C     C_R   0.460233 0.050743 0.618981 -0.050527
C28   C     C_R   0.518417 0.125547 0.514980 -0.197598
C29   C     C_R   0.574394 0.068520 0.408956 0.074127
C30   C     C_R   0.559860 0.941214 0.398942 0.573006
F1    F     F_    0.285838 0.757529 0.634447 -0.678855
F2    F     F_    0.622236 0.884497 0.305059 -0.612441
F3    F     F_    0.651631 0.649689 0.131865 -0.615491
H1    H     H_    0.183365 0.230867 0.887693 0.141265
H2    H     H_    0.651696 0.743979 0.866727 0.241108
H3    H     H_    0.813244 0.628575 0.960229 0.259896
H4    H     H_    0.831360 0.667221 0.782280 0.231354
H5    H     H_    0.782852 0.511266 0.839195 0.236508
H6    H     H_    0.295377 0.993152 0.033605 0.233529
H7    H     H_    0.512879 0.971290 0.060534 0.281531
H8    H     H_    0.521233 0.137556 0.012131 0.222988
H9    H     H_    0.443107 0.082382 0.161026 0.230918
H10   H     H_    0.106410 0.153960 0.096257 0.229431
H11   H     H_    0.037677 0.189902 0.309226 0.242815
H12   H     H_    0.337983 0.336551 0.763267 0.196885
H13   H     H_    0.064902 0.345841 0.234766 0.249852
H14   H     H_    0.168505 0.273719 0.350283 0.230185
H15   H     H_    0.481906 0.171508 0.787645 0.188691
H16   H     H_    0.256470 0.849864 0.865844 0.165118
H17   H     H_    0.338110 0.335180 0.254061 0.202669
H18   H     H_    0.619456 0.200508 0.252331 0.246637
H19   H     H_    0.820287 0.219873 0.298427 0.227709
H20   H     H_    0.807461 0.090281 0.421957 0.252578
H21   H     H_    0.749371 0.239724 0.457402 0.204925
N1    N     N_R   0.498930 0.498800 0.142780 -0.174280
N2    N     N_R   0.498900 0.498720 0.857170 -0.148695
N3    N     N_2   0.654023 0.134773 0.318579 -0.259334
N4    N     N_2   0.658698 0.650639 0.848786 -0.244032
N5    N     N_2   0.359210 0.044803 0.980255 -0.307752
N6    N     N_2   0.162722 0.204624 0.155068 -0.309733
O1    O     O_R   0.500000 0.316780 0.614690 -0.659469
O2    O     O_R   0.499990 0.316750 0.385360 -0.659617
O3    O     O_R   0.334450 0.500030 0.614670 -0.590441
O4    O     O_R   0.334440 0.500000 0.385330 -0.650570
O5    O     O_R   0.500010 0.683250 0.614640 -0.589789
O6    O     O_R   0.500000 0.683220 0.385310 -0.532385
O7    O     O_R   0.665560 0.500000 0.614670 -0.607817
O8    O     O_R   0.665550 0.499970 0.385330 -0.554651
Zn1   Zn    Zn3+2 0.500010 0.500020 0.653130 0.970695
Zn2   Zn    Zn3+2 0.499990 0.499980 0.346870 1.010644

loop_
_geom_bond_atom_site_label_1
_geom_bond_atom_site_label_2
_ccdc_geom_bond_type
C25   F1    S    
C1    C28   S    
C14   O7    A    
C6    C7    A    
C3    C9    A    
O4    Zn2   S    
C11   N4    S    
C19   C27   A    
C14   C18   S    
C12   C23   A    
C2    C30   A    
C24   N6    S    
C24   H13   S    
H6    N5    S    
C1    O2    A    
C8    N2    A    
C4    C15   S    
C17   C18   T    
C25   C26   A    
C3    C5    A    
C22   H7    S    
C7    C8    A    
C20   H19   S    
C21   H3    S    
C13   O5    A    
C30   F2    S    
C10   N1    A    
C12   N5    S    
C4    O3    A    
C26   C27   A    
C22   H9    S    
H10   N6    S    
H2    N4    S    
H18   N3    S    
C7    H12   S    
C12   C19   A    
C20   H21   S    
C28   C29   A    
C3    H17   S    
C29   N3    S    
C10   F3    S    
C13   O6    A    
C23   C25   A    
C5    C6    A    
C24   H11   S    
O5    Zn1   S    
C23   H16   S    
C22   H8    S    
C16   C17   S    
C10   C11   A    
C21   H5    S    
C29   C30   A    
C15   C16   T    
N1    Zn2   S    
O3    Zn1   S    
C21   N4    S    
C21   H4    S    
O6    Zn2   S    
O2    Zn2   S    
C2    C26   A    
N2    Zn1   S    
O1    Zn1   S    
C22   N5    S    
C2    C13   S    
O8    Zn2   S    
C4    O4    A    
C19   H15   S    
C8    C9    A    
C14   O8    A    
C5    N6    S    
O7    Zn1   S    
C20   N3    S    
C24   H14   S    
C11   N2    A    
C6    H1    S    
C9    N1    A    
C20   H20   S    
C27   C28   A    
C1    O1    A    
