data_mof_unit_13482.cif
_audit_creation_date              2012-12-11T17:15:59-0500
_audit_creation_method            fapswitch 2.2
_symmetry_space_group_name_H-M    P1
_symmetry_Int_Tables_number       1
_space_group_crystal_system       triclinic
_cell_length_a                    14.578105
_cell_length_b                    7.2279
_cell_length_c                    13.492267
_cell_angle_alpha                 89.999907
_cell_angle_beta                  99.442473
_cell_angle_gamma                 89.999959
_cell_volume                      1402.405394

loop_
_atom_site_label
_atom_site_type_symbol
_atom_type_description
_atom_site_fract_x
_atom_site_fract_y
_atom_site_fract_z
_atom_type_partial_charge
O1    O     O_R   0.398210 0.494340 0.401550 -0.532936
O2    O     O_R   0.601790 0.994340 0.598450 -0.532936
O3    O     O_R   0.586310 0.821730 0.403360 -0.545457
O4    O     O_R   0.413690 0.321730 0.596640 -0.545458
C1    C     C_R   0.614550 0.655519 0.380954 0.655079
C2    C     C_R   0.385450 0.155519 0.619045 0.655082
O5    O     O_R   0.397970 0.823900 0.389580 -0.534072
O6    O     O_R   0.602030 0.323900 0.610420 -0.534072
O7    O     O_R   0.412100 0.996500 0.584560 -0.542933
O8    O     O_R   0.587900 0.496500 0.415440 -0.542933
C3    C     C_R   0.365048 0.655227 0.363028 0.724963
C4    C     C_R   0.634952 0.155227 0.636972 0.724966
O9    O     O_3   0.504860 0.661550 0.563990 -0.376074
O10   O     O_3   0.495140 0.161550 0.436010 -0.376074
V1    V     V_3+5 0.499100 0.935510 0.488130 1.378573
V2    V     V_3+5 0.500900 0.435510 0.511870 1.378572
C5    C     C_1   0.716088 0.144688 0.716743 -0.184079
C6    C     C_1   0.283913 0.644688 0.283256 -0.184074
C7    C     C_1   0.784016 0.134200 0.783098 -0.194575
C8    C     C_1   0.215984 0.634200 0.216901 -0.194570
C9    C     C_3   0.221231 0.336392 0.800573 -0.319331
C10   C     C_3   0.778749 0.836384 0.199404 -0.319345
H1    H     H_    0.160832 0.423974 0.768318 0.145527
H2    H     H_    0.839139 0.923999 0.231638 0.145537
H3    H     H_    0.251058 0.396353 0.874924 0.134476
H4    H     H_    0.748908 0.896300 0.125049 0.134470
C11   C     C_3   0.294996 0.343726 0.730749 -0.313465
C12   C     C_3   0.704994 0.843722 0.269240 -0.313464
H5    H     H_    0.358611 0.411443 0.770346 0.128381
H6    H     H_    0.641376 0.911434 0.229650 0.128377
H7    H     H_    0.268721 0.435724 0.666092 0.136623
H8    H     H_    0.731273 0.935727 0.333890 0.136627
H9    H     H_    0.083966 0.133608 0.676389 0.127100
H10   H     H_    0.916026 0.633695 0.323609 0.127110
H11   H     H_    0.192767 0.170615 0.572254 0.138813
H12   H     H_    0.807227 0.670645 0.427747 0.138810
C13   C     C_3   0.148484 0.057282 0.707831 -0.332423
C14   C     C_3   0.851521 0.557327 0.292174 -0.332433
C15   C     C_3   0.276522 0.020504 0.857754 -0.346176
C16   C     C_3   0.723487 0.520468 0.142259 -0.346176
C17   C     C_3   0.188629 0.134456 0.813731 0.104014
C18   C     C_3   0.811369 0.634457 0.186268 0.104012
H13   H     H_    0.256290 0.877648 0.876208 0.127940
H14   H     H_    0.743732 0.377611 0.123828 0.127951
H15   H     H_    0.310088 0.084292 0.929581 0.134368
H16   H     H_    0.689920 0.584213 0.070422 0.134362
C19   C     C_3   0.315248 0.147084 0.691041 0.112842
C20   C     C_3   0.684751 0.647085 0.308958 0.112849
C21   C     C_3   0.220257 0.074754 0.634670 -0.375956
C22   C     C_3   0.779745 0.574779 0.365332 -0.375955
C23   C     C_3   0.345608 0.009589 0.780981 -0.019098
C24   C     C_3   0.654396 0.509571 0.219027 -0.019096
H17   H     H_    0.336405 0.867841 0.748074 0.114030
H18   H     H_    0.663600 0.367832 0.251944 0.114026
H19   H     H_    0.129256 0.909247 0.714087 0.143755
H20   H     H_    0.870772 0.409306 0.285933 0.143751
H21   H     H_    0.229051 0.937598 0.599914 0.135156
H22   H     H_    0.770959 0.437622 0.400088 0.135155
O11   O     O_R   0.912140 0.786650 0.084610 -0.539422
O12   O     O_R   0.087860 0.286650 0.915390 -0.539422
O13   O     O_R   0.102040 0.454810 0.110430 -0.534928
O14   O     O_R   0.897960 0.954810 0.889570 -0.534928
C25   C     C_R   0.134980 0.623585 0.136946 0.722846
C26   C     C_R   0.865020 0.123585 0.863053 0.722848
O15   O     O_R   0.913690 0.457060 0.096650 -0.542959
O16   O     O_R   0.086310 0.957060 0.903350 -0.542959
O17   O     O_R   0.898200 0.284560 0.901540 -0.530259
O18   O     O_R   0.101800 0.784560 0.098460 -0.530259
C27   C     C_R   0.884181 0.625564 0.117180 0.651537
C28   C     C_R   0.115818 0.125564 0.882819 0.651537
O19   O     O_3   0.995160 0.617270 0.936040 -0.374690
O20   O     O_3   0.004840 0.117270 0.063960 -0.374690
V3    V     V_3+5 0.000900 0.343280 0.011870 1.390157
V4    V     V_3+5 0.999100 0.843280 0.988130 1.390157
C29   C     C_3   0.449388 0.009983 0.831596 -0.388874
C30   C     C_3   0.488911 0.196096 0.873516 -0.285155
C31   C     C_3   0.582728 0.169863 0.941312 -0.808105
H23   H     H_    0.573531 0.095699 0.011131 0.218131
H24   H     H_    0.630783 0.089536 0.901935 0.234686
H25   H     H_    0.614486 0.306983 0.961844 0.215780
H26   H     H_    0.500060 0.287133 0.810297 0.187625
H27   H     H_    0.440694 0.264581 0.917683 0.193727
H28   H     H_    0.457569 0.906544 0.893335 0.190715
H29   H     H_    0.492888 0.959303 0.776834 0.174126
C32   C     C_3   0.550619 0.509955 0.168407 -0.388870
C33   C     C_3   0.511095 0.696060 0.126477 -0.285155
C34   C     C_3   0.417283 0.669818 0.058676 -0.808162
H30   H     H_    0.426490 0.595665 0.988861 0.218146
H31   H     H_    0.369228 0.589480 0.098044 0.234692
H32   H     H_    0.385519 0.806929 0.038143 0.215785
H33   H     H_    0.499938 0.787102 0.189690 0.187628
H34   H     H_    0.559316 0.764543 0.082314 0.193735
H35   H     H_    0.542442 0.406508 0.106673 0.190716
H36   H     H_    0.507116 0.459283 0.223168 0.174128

loop_
_geom_bond_atom_site_label_1
_geom_bond_atom_site_label_2
_ccdc_geom_bond_type
C15   C23   S    
C34   H30   S    
C3    C6    S    
C11   H5    S    
O1    C3    A    
O2    C4    A    
C2    O7    A    
O3    V1    S    
C15   C17   S    
C10   C18   S    
C31   H23   S    
C20   C22   S    
O5    C3    A    
C24   C32   S    
C23   C29   S    
C14   C18   S    
C33   H33   S    
C29   H29   S    
O18   V4    S    
O16   V4    S    
O12   V3    S    
O15   V3    S    
O13   C25   A    
O14   C26   A    
C32   H35   S    
C4    C5    S    
H11   C21   S    
O17   V3    S    
C16   H14   S    
C15   H15   S    
C16   C18   S    
C9    C11   S    
O6    V2    S    
C10   C12   S    
C24   H18   S    
C31   H24   S    
C1    C20   S    
C2    C19   S    
C11   H7    S    
C22   H22   S    
C26   O17   A    
C12   H8    S    
C30   C31   S    
C19   C21   S    
C30   H27   S    
C33   C34   S    
C15   H13   S    
O13   V3    S    
C32   C33   S    
C18   C27   S    
H9    C13   S    
C23   H17   S    
O4    V2    S    
C16   H16   S    
C29   C30   S    
C13   C21   S    
C32   H36   S    
O12   C28   A    
C7    C26   S    
O6    C4    A    
O1    V2    S    
O2    V1    S    
O11   V4    S    
O11   C27   A    
C9    C17   S    
O4    C2    A    
C9    H1    S    
C10   H2    S    
O9    V2    S    
C33   H34   S    
H12   C22   S    
C31   H25   S    
C11   C19   S    
C9    H3    S    
C25   O18   A    
C12   C20   S    
H10   C14   S    
O20   V3    S    
O3    C1    A    
C30   H26   S    
O19   V4    S    
C19   C23   S    
C14   C22   S    
C8    C25   S    
C12   H6    S    
O7    V1    S    
C1    O8    A    
C16   C24   S    
C29   H28   S    
O16   C28   A    
O15   C27   A    
O5    V1    S    
C5    C7    T    
C6    C8    T    
C13   C17   S    
C13   H19   S    
C21   H21   S    
C20   C24   S    
C14   H20   S    
C10   H4    S    
C34   H32   S    
C34   H31   S    
O10   V1    S    
O14   V4    S    
O8    V2    S    
C17   C28   S    
