data_mof_unit_9917.cif
_audit_creation_date              2012-12-10T18:22:27-0500
_audit_creation_method            fapswitch 2.2
_symmetry_space_group_name_H-M    P1
_symmetry_Int_Tables_number       1
_space_group_crystal_system       triclinic
_cell_length_a                    23.506536
_cell_length_b                    10.621387
_cell_length_c                    9.404797
_cell_angle_alpha                 89.587006
_cell_angle_beta                  90.081823
_cell_angle_gamma                 90.019357
_cell_volume                      2348.05110572

loop_
_atom_site_label
_atom_site_type_symbol
_atom_type_description
_atom_site_fract_x
_atom_site_fract_y
_atom_site_fract_z
_atom_type_partial_charge
C1    C     C_R   0.500018 0.259349 0.500487 0.790143
C2    C     C_R   0.499982 0.740650 0.499515 0.790189
C3    C     C_R   0.238754 0.496581 0.630913 0.401616
C4    C     C_R   0.761338 0.505143 0.631345 0.402468
C5    C     C_R   0.298303 0.496599 0.629388 -0.280243
C6    C     C_R   0.701784 0.505119 0.629668 -0.279977
C7    C     C_R   0.328274 0.499920 0.500193 -0.113818
C8    C     C_R   0.671724 0.500100 0.500530 -0.113233
C9    C     C_R   0.297940 0.503201 0.371574 -0.192433
C10   C     C_R   0.701968 0.495134 0.372128 -0.192386
C11   C     C_R   0.238721 0.503267 0.372137 -0.132187
C12   C     C_R   0.761183 0.495090 0.372846 -0.133055
C13   C     C_R   0.208901 0.499944 0.500785 0.230674
C14   C     C_R   0.791096 0.500100 0.501430 0.230772
C15   C     C_3   0.500094 0.039381 0.635501 -0.137809
C16   C     C_3   0.499908 0.960619 0.364512 -0.137933
C17   C     C_3   0.546779 0.957365 0.566959 -0.158288
C18   C     C_3   0.453223 0.042633 0.433055 -0.158031
C19   C     C_3   0.499988 0.877602 0.498587 0.011663
C20   C     C_3   0.500013 0.122398 0.501424 0.011697
C21   C     C_3   0.453303 0.957335 0.567013 -0.160110
C22   C     C_3   0.546699 0.042664 0.433001 -0.160517
C23   C     C_R   0.390946 0.499943 0.499993 0.823198
C24   C     C_R   0.609053 0.500062 0.500075 0.823155
C25   C     C_3   0.505716 0.613067 0.049503 -0.041054
C26   C     C_3   0.494283 0.386933 0.950495 -0.039234
C27   C     C_3   0.458640 0.567458 0.948598 -0.030724
C28   C     C_3   0.541359 0.432541 0.051398 -0.030805
C29   C     C_3   0.547118 0.545559 0.949329 -0.029040
C30   C     C_3   0.452882 0.454441 0.050669 -0.028886
C31   C     C_R   0.880418 0.612589 0.493840 0.624930
C32   C     C_R   0.119572 0.387396 0.496507 0.624381
C33   C     C_R   0.880358 0.387539 0.496625 0.603026
C34   C     C_R   0.119632 0.612439 0.492638 0.603686
C35   C     C_R   0.940007 0.385096 0.495229 -0.004405
C36   C     C_R   0.059980 0.614870 0.491486 -0.004281
C37   C     C_R   0.969981 0.500003 0.493638 -0.008267
C38   C     C_R   0.030006 0.499965 0.493452 -0.008278
C39   C     C_R   0.940069 0.614946 0.492152 -0.019228
C40   C     C_R   0.059919 0.385022 0.495165 -0.019085
C41   C     C_R   0.970254 0.271036 0.496039 -0.132493
C42   C     C_R   0.029732 0.728922 0.489144 -0.132194
C43   C     C_R   0.029609 0.271000 0.496069 -0.130798
C44   C     C_R   0.970377 0.728961 0.489537 -0.130577
Cu1   Cu    Cu3+1 0.500010 0.499990 0.643150 0.941759
Cu2   Cu    Cu3+1 0.499990 0.500010 0.356850 0.940657
H1    H     H_    0.948194 0.181486 0.497198 0.191343
H2    H     H_    0.051791 0.818470 0.487560 0.191172
H3    H     H_    0.423888 0.624218 0.900261 0.124517
H4    H     H_    0.576106 0.375762 0.099729 0.122656
H5    H     H_    0.510616 0.708420 0.095440 0.118422
H6    H     H_    0.489382 0.291582 0.904554 0.118200
H7    H     H_    0.586737 0.584159 0.901934 0.129752
H8    H     H_    0.413261 0.415854 0.098065 0.127822
H9    H     H_    0.051620 0.181422 0.497250 0.191806
H10   H     H_    0.948366 0.818538 0.488226 0.191760
H11   H     H_    0.321329 0.493823 0.729120 0.196080
H12   H     H_    0.678828 0.509253 0.729212 0.192776
H13   H     H_    0.319894 0.505820 0.270427 0.178662
H14   H     H_    0.679944 0.491131 0.271023 0.180318
H15   H     H_    0.215776 0.505824 0.272210 0.194790
H16   H     H_    0.784054 0.491225 0.273081 0.194498
H17   H     H_    0.585041 0.919255 0.621581 0.143991
H18   H     H_    0.414960 0.080741 0.378434 0.143466
H19   H     H_    0.500176 0.074159 0.746540 0.133921
H20   H     H_    0.499826 0.925842 0.253473 0.133872
H21   H     H_    0.415107 0.919199 0.621682 0.141428
H22   H     H_    0.584895 0.080800 0.378333 0.141681
N1    N     N_R   0.852031 0.500093 0.498194 -0.453255
N2    N     N_R   0.147963 0.499920 0.497437 -0.453341
N3    N     N_3   0.500040 0.499970 0.858290 -0.160023
N4    N     N_3   0.499960 0.500030 0.141710 -0.160028
O1    O     O_R   0.500030 0.316850 0.620870 -0.586721
O2    O     O_R   0.499970 0.683150 0.379130 -0.586904
O3    O     O_R   0.500000 0.316860 0.379090 -0.582500
O4    O     O_R   0.500000 0.683140 0.620910 -0.582353
O5    O     O_R   0.417890 0.499960 0.620920 -0.582538
O6    O     O_R   0.582110 0.500040 0.379080 -0.583025
O7    O     O_R   0.417870 0.499970 0.379140 -0.585120
O8    O     O_R   0.582130 0.500030 0.620860 -0.584549
O9    O     O_2   0.850933 0.721580 0.491572 -0.497760
O10   O     O_2   0.149056 0.278398 0.497359 -0.498271
O11   O     O_2   0.850817 0.278576 0.497300 -0.525533
O12   O     O_2   0.149172 0.721391 0.489926 -0.525432
S1    S     S_3+6 0.202493 0.491945 0.795756 0.031079
O13   O     O_2   0.169023 0.371737 0.806278 -0.211398
O14   O     O_2   0.243712 0.497366 0.917968 -0.317111
O15   O     O_3   0.157247 0.613995 0.806480 -0.488466
H23   H     H_    0.181497 0.689820 0.796493 0.360707
S2    S     S_3+6 0.797724 0.511859 0.796082 0.031084
O16   O     O_2   0.831033 0.632395 0.802997 -0.211153
O17   O     O_2   0.756610 0.507527 0.918358 -0.317176
O18   O     O_3   0.843150 0.390254 0.810603 -0.488754
H24   H     H_    0.818976 0.314160 0.803330 0.360963

loop_
_geom_bond_atom_site_label_1
_geom_bond_atom_site_label_2
_ccdc_geom_bond_type
O18   H24   S    
C3    S1    S    
C18   C21   S    
C6    H12   S    
C36   C42   A    
C2    O4    A    
Cu1   Cu2   S    
C30   H8    S    
C34   O12   S    
Cu1   O4    S    
C6    C8    A    
C28   C29   S    
C19   C21   S    
Cu2   O7    S    
C33   C35   A    
Cu1   N3    S    
C13   N2    S    
C15   H19   S    
C18   C20   S    
Cu1   O1    S    
C17   C19   S    
C28   H4    S    
C24   O8    A    
C40   C43   A    
C34   N2    A    
Cu2   N4    S    
C3    C13   A    
C33   N1    A    
C21   H21   S    
C27   C30   S    
C26   N3    S    
C41   C43   A    
C28   N4    S    
C42   C44   A    
Cu2   O3    S    
C4    S2    S    
S1    O14   D    
C25   C29   S    
C15   C20   S    
C1    O3    A    
C4    C6    A    
C5    C7    A    
C32   N2    A    
C3    C5    A    
S1    O13   D    
C9    H13   S    
C10   H14   S    
C25   H5    S    
C37   C38   A    
C26   H6    S    
C12   H16   S    
C44   H10   S    
S2    O17   D    
C15   C21   S    
C41   H1    S    
C25   N4    S    
C42   H2    S    
C23   O5    A    
C33   O11   S    
C22   H22   S    
C10   C12   A    
C43   H9    S    
C20   C22   S    
C26   C30   S    
C9    C11   A    
C14   N1    S    
C16   H20   S    
Cu2   O2    S    
C27   N3    S    
S2    O18   S    
Cu2   O6    S    
S1    O15   S    
C24   O6    A    
C15   C17   S    
C1    C20   S    
C16   C22   S    
C35   C37   A    
C2    C19   S    
C8    C10   A    
C12   C14   A    
C11   H15   S    
C2    O2    A    
C30   N4    S    
C39   C44   A    
C25   C27   S    
C32   O10   S    
C26   C28   S    
C17   C22   S    
C31   O9    S    
C5    H11   S    
C1    O1    A    
C36   C38   A    
C37   C39   A    
C17   H17   S    
C38   C40   A    
C11   C13   A    
C18   H18   S    
S2    O16   D    
C29   H7    S    
C16   C19   S    
C7    C23   S    
C8    C24   S    
C31   C39   A    
Cu1   O8    S    
C34   C36   A    
C32   C40   A    
C4    C14   A    
C35   C41   A    
C7    C9    A    
C31   N1    A    
O15   H23   S    
C16   C18   S    
Cu1   O5    S    
C23   O7    A    
C27   H3    S    
C29   N3    S    
