data_mof_unit_68350.cif
_audit_creation_date              2013-03-05T16:01:59-0500
_audit_creation_method            fapswitch 2.2
_symmetry_space_group_name_H-M    P1
_symmetry_Int_Tables_number       1
_space_group_crystal_system       triclinic
_cell_length_a                    8.485905
_cell_length_b                    14.724418
_cell_length_c                    15.276123
_cell_angle_alpha                 96.73958
_cell_angle_beta                  97.228902
_cell_angle_gamma                 92.280762
_cell_volume                      1877.60849949

loop_
_atom_site_label
_atom_site_type_symbol
_atom_site_description
_atom_site_fract_x
_atom_site_fract_y
_atom_site_fract_z
_atom_type_partial_charge
P1    P     P_3+3 0.018620 0.416870 0.295980 0.599661
O1    O     O_2   0.841250 0.444240 0.280450 -0.267814
O2    O     O_3   0.112870 0.447390 0.393710 -0.352363
O3    O     O_3   0.597960 0.615760 0.327700 -0.312543
O4    O     O_2   0.671283 0.555634 0.171705 -0.360159
O5    O     O_3   0.940499 0.302701 0.278898 -0.506010
O6    O     O_3   0.585051 0.724855 0.187096 -0.539989
C1    C     C_3   0.357720 0.816197 0.196848 -0.058564
H1    H     H_    0.279118 0.753602 0.181043 0.037969
P2    P     P_3+3 0.635650 0.716500 0.560900 0.545310
P3    P     P_3+3 0.053886 0.782330 0.372983 0.516525
O7    O     O_2   0.802240 0.729720 0.532850 -0.363098
O8    O     O_3   0.017190 0.664840 0.371090 -0.411849
O9    O     O_2   0.915868 0.828561 0.414989 -0.299488
O10   O     O_3   0.701885 0.754391 0.674801 -0.588586
O11   O     O_3   0.024570 0.806960 0.262214 -0.491463
C2    C     C_3   0.971374 0.725580 0.206583 0.354693
H2    H     H_    0.858800 0.698841 0.224989 0.173995
H3    H     H_    0.059452 0.672780 0.213792 -0.041856
C3    C     C_3   0.947586 0.739750 0.108329 0.029872
H4    H     H_    0.062991 0.749342 0.083148 0.143215
C4    C     C_3   0.189352 0.784331 0.706859 0.546097
C5    C     C_3   0.099271 0.854396 0.761084 -0.663520
H5    H     H_    0.145538 0.859891 0.832936 0.314669
H6    H     H_    0.112125 0.924031 0.740399 0.238492
H7    H     H_    0.970822 0.835178 0.748983 0.252317
Ba1   Ba    Ba6+2 0.833410 0.543320 0.453520 1.725207
C6    C     C_3   0.036868 0.229409 0.289106 0.025810
H8    H     H_    0.161730 0.247975 0.286608 0.058452
C7    C     C_3   0.971387 0.153167 0.211980 0.348400
H9    H     H_    0.840854 0.143046 0.210546 0.144753
C8    C     C_3   0.655670 0.695310 0.733325 0.519890
H10   H     H_    0.524988 0.687222 0.725611 0.108254
C9    C     C_3   0.717891 0.733178 0.832264 0.107096
P4    P     P_3+3 0.171070 0.583210 0.704020 0.566832
O12   O     O_2   0.348460 0.555790 0.719610 -0.351767
O13   O     O_3   0.076820 0.552690 0.606290 -0.351935
O14   O     O_3   0.591740 0.384320 0.672310 -0.319182
O15   O     O_3   0.206302 0.702826 0.750016 -0.555829
P5    P     P_3+3 0.137540 0.216638 0.629365 0.568600
O16   O     O_3   0.629090 0.386360 0.459240 -0.322681
O17   O     O_3   0.172500 0.335240 0.628910 -0.336054
O18   O     O_2   0.238458 0.169317 0.561713 -0.270912
O19   O     O_3   0.227216 0.187941 0.731108 -0.473072
Ba2   Ba    Ba6+2 0.356410 0.456750 0.546480 1.714720
P6    P     P_3+3 0.543661 0.613279 0.211835 0.501105
C10   C     C_3   0.514361 0.789536 0.243867 0.670353
H11   H     H_    0.491903 0.764827 0.307264 -0.030885
H12   H     H_    0.303485 0.867391 0.241514 0.170551
O20   O     O_3   0.560600 0.613720 0.540760 -0.323380
C11   C     C_3   0.505636 0.250212 0.243931 0.613633
C12   C     C_3   0.418450 0.165392 0.187251 -0.695361
H13   H     H_    0.304656 0.149735 0.209859 0.250319
H14   H     H_    0.388837 0.176154 0.116306 0.273903
H15   H     H_    0.492792 0.105071 0.190060 0.291087
P7    P     P_3+3 0.563217 0.269693 0.437631 0.531547
O21   O     O_2   0.387470 0.270310 0.467210 -0.320624
O22   O     O_3   0.586580 0.224109 0.324773 -0.585800
H16   H     H_    0.885135 0.677399 0.069347 0.154052
C13   C     C_3   0.129148 0.213979 0.796031 0.207119
H17   H     H_    0.093465 0.285536 0.793518 0.024336
H18   H     H_    0.022116 0.166395 0.786310 0.064876
C14   C     C_3   0.218695 0.209260 0.888074 -0.018094
H19   H     H_    0.330948 0.252602 0.897702 0.184946
H20   H     H_    0.144407 0.235728 0.939119 0.132619
P8    P     P_3+3 0.644743 0.388044 0.786035 0.552940
C15   C     C_3   0.676077 0.212878 0.789061 0.407406
H21   H     H_    0.782512 0.236825 0.760606 -0.133678
O23   O     O_2   0.532788 0.456950 0.826837 -0.319768
O24   O     O_3   0.586084 0.284658 0.822251 -0.513505
H22   H     H_    0.785815 0.092875 0.836895 0.240202
C16   C     C_3   0.734654 0.156918 0.863957 -0.733092
H23   H     H_    0.635818 0.139178 0.901253 0.298401
H24   H     H_    0.830750 0.196512 0.910216 0.266046
C17   C     C_R   0.334337 0.563354 0.167662 0.117216
H25   H     H_    0.429368 0.650108 0.037572 0.230864
C18   C     C_R   0.106603 0.474924 0.205858 0.246467
C19   C     C_R   0.961085 0.449857 0.766390 -0.397930
C20   C     C_R   0.857791 0.425882 0.826683 0.175694
C21   C     C_R   0.907012 0.440873 0.918752 -0.250213
C22   C     C_R   0.058032 0.485623 0.952758 0.012172
C23   C     C_R   0.141054 0.529322 0.889758 -0.008206
C24   C     C_R   0.123081 0.496185 0.047254 0.039741
C25   C     C_R   0.265921 0.552304 0.076266 -0.084502
C26   C     C_R   0.331328 0.600738 0.014899 -0.105089
C27   C     C_R   0.268723 0.590568 0.924779 0.008816
C28   C     C_R   0.055771 0.451644 0.114327 -0.250789
C29   C     C_R   0.241836 0.534182 0.229824 0.030012
C30   C     C_R   0.089378 0.514482 0.794072 0.292476
H26   H     H_    0.969646 0.395561 0.099151 0.204236
H27   H     H_    0.924052 0.431696 0.695881 0.162044
H28   H     H_    0.318726 0.632989 0.881809 0.212640
C31   C     C_R   0.704865 0.943252 0.553230 -0.040677
C32   C     C_R   0.516907 0.804548 0.507146 0.264703
C33   C     C_R   0.365628 0.772183 0.467817 -0.425585
C34   C     C_R   0.252058 0.827595 0.431781 0.253585
C35   C     C_R   0.290236 0.919510 0.438086 -0.170491
C36   C     C_R   0.445650 0.956611 0.471225 -0.047074
C37   C     C_R   0.558666 0.900603 0.511291 -0.029774
H29   H     H_    0.334611 0.703633 0.473386 0.235479
C38   C     C_R   0.633914 0.092881 0.504048 -0.077136
C39   C     C_R   0.741804 0.038108 0.551605 0.036793
C40   C     C_R   0.676571 0.189770 0.505632 0.331381
C41   C     C_R   0.820079 0.226678 0.554577 -0.380163
C42   C     C_R   0.929756 0.170918 0.594374 0.202965
C43   C     C_R   0.889672 0.077657 0.594251 -0.215990
C44   C     C_R   0.488216 0.047681 0.460602 0.361327
H30   H     H_    0.194620 0.960939 0.415722 0.228151
H31   H     H_    0.976399 0.035311 0.625382 0.165005
H32   H     H_    0.853603 0.298396 0.554577 0.151543
H33   H     H_    0.789335 0.903541 0.588940 0.201089
Br1   Br    Br    0.654764 0.898424 0.279340 -0.388805
C45   C     C_2   0.021915 0.204880 0.380268 1.037278
O25   O     O_2   0.070085 0.262616 0.442471 -0.546227
O26   O     O_R   0.950302 0.122766 0.397674 -0.772863
H34   H     H_    0.872370 0.090584 0.347191 0.326372
Br2   Br    Br    0.050521 0.031477 0.215100 -0.366031
Br3   Br    Br    0.005748 0.190412 0.098136 -0.418983
Br4   Br    Br    0.733018 0.578976 0.702353 -0.411722
Br5   Br    Br    0.379544 0.866566 0.086798 -0.287313
Br6   Br    Br    0.939879 0.719077 0.870278 -0.523833
Br7   Br    Br    0.629266 0.659096 0.909823 -0.453458
C46   C     C_2   0.680578 0.832024 0.855535 1.187957
O27   O     O_2   0.752990 0.893108 0.826898 -0.604893
O28   O     O_R   0.561621 0.854248 0.908706 -0.682122
H35   H     H_    0.547747 0.922612 0.918724 0.385730
C47   C     C_2   0.405021 0.329089 0.251752 0.842855
O29   O     O_2   0.297077 0.335005 0.192534 -0.664814
O30   O     O_R   0.452104 0.403443 0.314436 -0.695883
H36   H     H_    0.374451 0.408177 0.359211 0.336582
Br8   Br    Br    0.651032 0.288119 0.166221 -0.406755
Br9   Br    Br    0.266749 0.084168 0.904324 -0.388198
C48   C     C_2   0.570659 0.155217 0.716491 1.020160
O31   O     O_2   0.514176 0.191573 0.653218 -0.594094
O32   O     O_R   0.532301 0.062875 0.721049 -0.746513
H37   H     H_    0.455796 0.034457 0.667654 0.354411
Br10  Br    Br    0.297206 0.580682 0.349056 -0.478526
C49   C     C_2   0.785092 0.420103 0.975424 1.094744
O33   O     O_2   0.756297 0.341066 0.987695 -0.604324
O34   O     O_R   0.690454 0.488826 0.005756 -0.712662
H38   H     H_    0.593190 0.462810 0.028609 0.355585
Br11  Br    Br    0.353545 0.092908 0.368850 -0.542572
Br12  Br    Br    0.825365 0.844254 0.085191 -0.218283
Br13  Br    Br    0.390985 0.847940 0.707238 -0.581184
C50   C     C_2   0.117424 0.772966 0.613963 0.932253
O35   O     O_2   0.053677 0.836653 0.581992 -0.640198
O36   O     O_R   0.145089 0.695913 0.560640 -0.781116
H39   H     H_    0.050956 0.676557 0.516141 0.393321

loop_
_geom_bond_atom_site_label_1
_geom_bond_atom_site_label_2
_geom_bond_distance
_ccdc_geom_bond_type
P2    Ba1   3.472896 S    
C38   C44   1.427017 A    
C24   C28   1.442706 A    
C14   H20   1.108727 S    
C9    C46   1.512801 S    
P1    C18   1.915098 S    
C33   C34   1.389978 A    
C22   C23   1.454817 A    
O32   H37   1.013356 S    
O3    P6    1.767675 S    
C26   C27   1.400407 A    
P8    C20   1.876327 S    
Ba2   O21   2.903399 S    
C38   C39   1.430163 A    
C23   C30   1.460383 A    
C13   C14   1.522341 S    
Ba2   O20   2.849356 S    
C6    H8    1.090158 S    
C15   C48   1.489676 S    
O19   C13   1.402505 S    
C15   C16   1.531587 S    
P2    O10   1.776435 S    
C7    H9    1.108903 S    
C21   C22   1.425228 A    
P3    O9    1.548205 D    
C17   C25   1.431093 A    
C46   O28   1.398596 S    
P8    O23   1.548481 D    
P2    C32   1.875114 S    
C10   Br1   1.940449 S    
C35   C36   1.415535 A    
C2    C3    1.528952 S    
P7    O21   1.611882 D    
C13   H18   1.108546 S    
P1    O1    1.570036 D    
C5    H7    1.102189 S    
P3    C34   1.862559 S    
C41   C42   1.394813 A    
O14   Ba2   2.916301 S    
O36   H39   0.990523 S    
C22   C24   1.467182 A    
C35   H30   1.079693 S    
P5    O18   1.545354 D    
O5    C6    1.391161 S    
O14   P8    1.732765 S    
C18   C29   1.397094 A    
O11   C2    1.408276 S    
C5    H5    1.110699 S    
O1    Ba1   2.875649 S    
C31   C37   1.409782 A    
C12   H15   1.111504 S    
Ba1   Ba2   4.635379 S    
P5    O17   1.760660 S    
C38   C40   1.454475 A    
C3    Br12  1.931542 S    
P6    C17   1.904987 S    
C50   O36   1.363182 S    
C12   H14   1.112532 S    
C50   O35   1.221437 D    
C19   C30   1.405975 A    
O7    Ba1   2.903332 S    
C15   H21   1.112874 S    
O6    P6    1.760253 S    
C46   O27   1.222264 D    
O34   H38   1.014192 S    
C16   H24   1.106648 S    
C6    C45   1.498263 S    
C11   Br8   1.926747 S    
C19   C20   1.412849 A    
C1    H1    1.100453 S    
C7    Br3   1.936226 S    
C23   C27   1.391527 A    
O2    Ba2   2.902485 S    
C36   C44   1.407925 A    
P1    O5    1.760223 S    
C13   H17   1.111423 S    
C3    H16   1.109896 S    
O17   Ba2   2.832569 S    
O6    C10   1.414746 S    
P4    O15   1.816574 S    
C47   O30   1.377685 S    
O16   P7    1.765358 S    
P3    O11   1.761244 S    
Ba1   O16   2.849878 S    
C10   H11   1.109158 S    
C4    C50   1.460325 S    
C34   C35   1.368413 A    
C2    H2    1.100142 S    
O12   Ba2   2.876354 S    
C11   O22   1.436517 S    
C14   Br9   1.939636 S    
C25   C26   1.397091 A    
C44   Br11  1.894868 S    
P2    O7    1.539506 D    
C31   H33   1.078471 S    
P4    C30   1.976865 S    
C9    Br6   1.926928 S    
C48   O31   1.214842 D    
C20   C21   1.404725 A    
C24   C25   1.430941 A    
C8    Br4   1.888458 S    
O13   Ba2   2.994808 S    
C47   O29   1.217087 D    
P4    Ba2   3.444772 S    
O3    Ba1   2.916904 S    
C12   H13   1.090783 S    
C1    Br5   1.941816 S    
C48   O32   1.397219 S    
C45   O25   1.215601 D    
C42   C43   1.401242 A    
P4    O13   1.607452 S    
C33   H29   1.048794 S    
P7    C40   1.874791 S    
C16   H23   1.110870 S    
O10   C8    1.397673 S    
C31   C39   1.422992 A    
Ba1   O20   2.975434 S    
C49   O34   1.389936 S    
C7    Br2   1.942053 S    
C19   H27   1.082098 S    
O4    P6    1.545072 D    
P8    O24   1.754399 S    
C15   O24   1.411809 S    
C11   C47   1.471124 S    
C8    H10   1.100520 S    
C6    C7    1.559576 S    
O30   H36   1.006393 S    
C1    C10   1.518002 S    
C11   C12   1.538930 S    
C27   H28   1.070658 S    
C41   H32   1.082658 S    
P3    O8    1.741763 S    
O28   H35   1.014088 S    
C32   C37   1.436461 A    
Ba1   O13   2.901802 S    
C21   C49   1.475056 S    
C4    O15   1.439162 S    
C1    H12   1.109742 S    
O2    Ba1   2.993802 S    
C2    H3    1.104900 S    
P7    O22   1.813043 S    
C39   C43   1.408931 A    
C5    H6    1.113044 S    
C32   C33   1.387824 A    
C29   Br10  1.863695 S    
C49   O33   1.220374 D    
C14   H19   1.109335 S    
C17   C29   1.399601 A    
P5    O19   1.747950 S    
H22   C16   1.111253 S    
C3    H4    1.106133 S    
C18   C28   1.408040 A    
C9    Br7   1.903022 S    
C36   C37   1.417096 A    
C28   H26   1.064994 S    
C4    Br13  1.916658 S    
C40   C41   1.400073 A    
P1    Ba1   3.444077 S    
O16   Ba2   2.974450 S    
C4    C5    1.535045 S    
O8    Ba1   2.832024 S    
P4    O12   1.570484 D    
P1    O2    1.607452 S    
H25   C26   1.077403 S    
O26   H34   1.008731 S    
C8    C9    1.565880 S    
P5    C42   1.852505 S    
C45   O26   1.399836 S    
C43   H31   1.083794 S    
P2    O20   1.598517 S    
