data_mof_unit_65403.cif
_audit_creation_date              2012-12-10T19:01:18-0500
_audit_creation_method            fapswitch 2.2
_symmetry_space_group_name_H-M    P1
_symmetry_Int_Tables_number       1
_space_group_crystal_system       triclinic
_cell_length_a                    15.856796
_cell_length_b                    14.259794
_cell_length_c                    13.381365
_cell_angle_alpha                 90.000249
_cell_angle_beta                  90.006555
_cell_angle_gamma                 90.000145
_cell_volume                      3025.72256952

loop_
_atom_site_label
_atom_site_type_symbol
_atom_type_description
_atom_site_fract_x
_atom_site_fract_y
_atom_site_fract_z
_atom_type_partial_charge
C1    C     C_R   0.500000 0.326570 0.500000 0.923001
C2    C     C_1   0.500001 0.499963 0.950478 -0.053455
C3    C     C_R   0.336001 0.500537 0.499990 0.935086
C4    C     C_R   0.663999 0.500540 0.500009 0.935066
C5    C     C_R   0.500000 0.673453 0.500000 0.923634
C6    C     C_3   0.050054 0.445893 0.596106 0.012015
C7    C     C_3   0.048478 0.439700 0.406714 -0.018766
C8    C     C_3   0.951522 0.438688 0.592559 -0.018755
C9    C     C_3   0.949946 0.446943 0.403257 0.012032
C10   C     C_1   0.752145 0.498976 0.500093 -0.215549
C11   C     C_1   0.247855 0.498976 0.499905 -0.215553
C12   C     C_1   0.500001 0.141353 0.500000 -0.012151
C13   C     C_3   0.082260 0.495891 0.499282 0.156857
C14   C     C_3   0.917740 0.495883 0.500693 0.156860
C15   C     C_3   0.951642 0.598028 0.504565 -0.434800
C16   C     C_3   0.048358 0.598072 0.496674 -0.434802
C17   C     C_1   0.826843 0.497404 0.500495 -0.018831
C18   C     C_1   0.173157 0.497410 0.499495 -0.018865
C19   C     C_1   0.500001 0.225919 0.499999 -0.230837
C20   C     C_3   0.147702 0.405247 0.267808 -0.795632
C21   C     C_3   0.099558 0.434595 0.771142 -0.760521
C22   C     C_3   0.900436 0.437551 0.228095 -0.760479
C23   C     C_1   0.500001 0.042294 0.500000 0.003635
C24   C     C_3   0.852275 0.402741 0.731013 -0.795656
C25   C     C_1   0.500001 0.957733 0.500001 0.003864
C26   C     C_1   0.500001 0.858673 0.500001 -0.011283
C27   C     C_1   0.500001 0.774106 0.500001 -0.228811
C28   C     C_1   0.499998 0.499970 0.169448 0.066333
C29   C     C_1   0.500002 0.499970 0.830552 0.066362
C30   C     C_1   0.499999 0.499963 0.049522 -0.053458
H1    H     H_    0.936511 0.363339 0.578515 0.109743
H2    H     H_    0.166703 0.432159 0.193277 0.239878
H3    H     H_    0.118977 0.334856 0.257488 0.238405
H4    H     H_    0.204669 0.399309 0.315576 0.247478
H5    H     H_    0.053022 0.556357 0.703215 0.238118
H6    H     H_    0.126604 0.478095 0.832045 0.232302
H7    H     H_    0.146591 0.380121 0.750790 0.236385
H8    H     H_    0.041151 0.400427 0.798793 0.256692
H9    H     H_    0.946983 0.558563 0.297519 0.238115
H10   H     H_    0.873387 0.481711 0.167737 0.232299
H11   H     H_    0.853402 0.382859 0.247777 0.236403
H12   H     H_    0.924232 0.374045 0.403467 0.109839
H13   H     H_    0.958840 0.403684 0.200017 0.256685
H14   H     H_    0.898297 0.536610 0.696349 0.232255
H15   H     H_    0.833303 0.428818 0.805889 0.239903
H16   H     H_    0.880964 0.332221 0.740416 0.238403
H17   H     H_    0.795295 0.397383 0.683189 0.247386
H18   H     H_    0.075768 0.373002 0.594993 0.109828
H19   H     H_    0.063489 0.364202 0.419825 0.109751
H20   H     H_    0.075530 0.640331 0.558652 0.182241
H21   H     H_    0.067555 0.634379 0.426930 0.168511
H22   H     H_    0.932445 0.633573 0.574753 0.168530
H23   H     H_    0.924470 0.640958 0.443114 0.182223
H24   H     H_    0.101727 0.538741 0.304156 0.232236
N1    N     N_1   0.500000 0.499980 0.261870 -0.064405
N2    N     N_1   0.500000 0.499980 0.738130 -0.064397
N3    N     N_2   0.087340 0.468780 0.312492 -0.277107
N4    N     N_2   0.081244 0.493348 0.685652 -0.268979
N5    N     N_2   0.918757 0.495370 0.314304 -0.268994
N6    N     N_2   0.912660 0.466740 0.687134 -0.277096
O1    O     O_R   0.500000 0.373720 0.576470 -0.596956
O2    O     O_R   0.500000 0.373720 0.423530 -0.596968
O3    O     O_R   0.377150 0.500010 0.576490 -0.602619
O4    O     O_R   0.377150 0.500010 0.423510 -0.612025
O5    O     O_R   0.622850 0.500010 0.576490 -0.611977
O6    O     O_R   0.622850 0.500010 0.423510 -0.602641
O7    O     O_R   0.500000 0.626290 0.576440 -0.596632
O8    O     O_R   0.500000 0.626290 0.423560 -0.596612
Zn1   Zn    Zn3+2 0.500000 0.500010 0.602090 0.968645
Zn2   Zn    Zn3+2 0.500000 0.500010 0.397910 0.968614

loop_
_geom_bond_atom_site_label_1
_geom_bond_atom_site_label_2
_ccdc_geom_bond_type
C6    C8    S    
C9    C14   S    
C11   C18   T    
C29   N2    T    
O4    Zn2   S    
C6    N4    S    
C22   H13   S    
C12   C23   S    
C16   H21   S    
C2    C30   T    
H9    N5    S    
C24   N6    S    
C22   H10   S    
C1    O2    A    
C28   C30   S    
C26   C27   T    
C24   H16   S    
C21   N4    S    
C21   H6    S    
C5    C27   S    
C15   H22   S    
C8    N6    S    
C6    C13   S    
C4    O6    A    
C24   H17   S    
C14   C17   S    
O2    Zn2   S    
C9    H12   S    
O6    Zn2   S    
C6    H18   S    
C13   C18   S    
H14   N6    S    
C2    C29   S    
O5    Zn1   S    
C20   H3    S    
C15   H23   S    
C12   C19   T    
C25   C26   S    
C28   N1    T    
C16   H20   S    
C3    O3    A    
H5    N4    S    
C4    O5    A    
C1    C19   S    
N1    Zn2   S    
C3    C11   S    
C24   H15   S    
C10   C17   T    
C4    C10   S    
C15   C16   S    
C22   H11   S    
C5    O8    A    
C7    C13   S    
C23   C25   T    
C21   H7    S    
C7    H19   S    
O8    Zn2   S    
N2    Zn1   S    
C20   H2    S    
C13   C16   S    
O1    Zn1   S    
C22   N5    S    
C7    C9    S    
C14   C15   S    
C8    C14   S    
O7    Zn1   S    
C20   N3    S    
C3    O4    A    
C8    H1    S    
C7    N3    S    
C21   H8    S    
O3    Zn1   S    
C1    O1    A    
C20   H4    S    
C9    N5    S    
H24   N3    S    
C5    O7    A    
