data_mof_unit_12177.cif
_audit_creation_date              2012-12-10T17:23:10-0500
_audit_creation_method            fapswitch 2.2
_symmetry_space_group_name_H-M    P1
_symmetry_Int_Tables_number       1
_space_group_crystal_system       triclinic
_cell_length_a                    15.85884
_cell_length_b                    10.838811
_cell_length_c                    9.631486
_cell_angle_alpha                 89.319568
_cell_angle_beta                  89.984122
_cell_angle_gamma                 93.519191
_cell_volume                      1652.3261931

loop_
_atom_site_label
_atom_site_type_symbol
_atom_type_description
_atom_site_fract_x
_atom_site_fract_y
_atom_site_fract_z
_atom_type_partial_charge
C1    C     C_R   0.506032 0.262676 0.502005 0.809880
C2    C     C_3   0.082537 0.496405 0.498923 0.158052
C3    C     C_3   0.975681 0.605786 0.542246 -0.120798
C4    C     C_3   0.916646 0.495441 0.498063 0.120023
C5    C     C_3   0.031332 0.586064 0.412748 -0.212445
C6    C     C_3   0.970563 0.475894 0.367988 -0.219315
C7    C     C_1   0.174337 0.496149 0.499210 -0.011503
C8    C     C_1   0.825064 0.497055 0.498837 -0.023035
C9    C     C_R   0.500411 0.107410 0.768068 -0.306550
C10   C     C_R   0.464694 0.043137 0.883537 0.255232
C11   C     C_R   0.420527 0.928187 0.863610 0.373726
C12   C     C_R   0.339925 0.498456 0.499963 0.829007
C13   C     C_R   0.419267 0.875524 0.731547 0.413940
C14   C     C_R   0.466790 0.933217 0.620776 -0.107639
C15   C     C_R   0.493762 0.058337 0.632701 -0.055697
C16   C     C_R   0.513633 0.127789 0.508708 -0.167711
C17   C     C_R   0.531728 0.064894 0.386093 0.487271
C18   C     C_R   0.518966 0.937002 0.382595 -0.292316
C19   C     C_R   0.488219 0.870491 0.498969 -0.141877
C20   C     C_R   0.620651 0.648118 0.148283 -0.296925
C21   C     C_R   0.694059 0.699093 0.087198 0.255752
C22   C     C_R   0.701415 0.694811 0.944023 0.302804
C23   C     C_R   0.493898 0.736634 0.499361 0.859044
C24   C     C_R   0.631506 0.650286 0.864304 0.360606
C25   C     C_R   0.562850 0.573024 0.926274 0.088582
C26   C     C_R   0.560498 0.572895 0.075495 0.027187
C27   C     C_R   0.442782 0.428531 0.075156 0.536506
C28   C     C_R   0.442741 0.429909 0.926539 -0.168656
C29   C     C_R   0.659950 0.499893 0.499932 0.806803
C30   C     C_3   0.967357 0.405341 0.584623 -0.223190
C31   C     C_3   0.022441 0.388735 0.455747 0.453081
C32   C     C_1   0.250009 0.496835 0.499679 -0.156577
C33   C     C_1   0.749580 0.498570 0.499574 -0.153571
C34   C     C_3   0.028135 0.515903 0.628317 -0.209746
Cu1   Cu    Cu3+1 0.499990 0.499990 0.640660 1.010024
Cu2   Cu    Cu3+1 0.500010 0.500010 0.359340 1.011061
H1    H     H_    0.534746 0.889825 0.288335 0.180346
H2    H     H_    0.614195 0.669086 0.254180 0.222324
H3    H     H_    0.396309 0.372455 0.870727 0.141580
H4    H     H_    0.940288 0.329983 0.653250 0.147726
H5    H     H_    0.946167 0.457709 0.261687 0.151513
H6    H     H_    0.058652 0.660456 0.343073 0.154913
H7    H     H_    0.954499 0.695855 0.577943 0.159401
H8    H     H_    0.052859 0.533058 0.734617 0.155071
H9    H     H_    0.537581 0.191912 0.788114 0.188481
N1    N     N_R   0.500800 0.501210 0.147910 -0.176523
N2    N     N_R   0.500830 0.501290 0.852040 -0.171811
O1    O     O_R   0.499990 0.319640 0.618810 -0.613668
O2    O     O_R   0.500000 0.319660 0.381240 -0.487353
O3    O     O_R   0.379070 0.499980 0.618770 -0.557971
O4    O     O_R   0.379080 0.500000 0.381190 -0.523923
O5    O     O_R   0.500000 0.680340 0.618760 -0.474487
O6    O     O_R   0.500010 0.680360 0.381190 -0.626013
O7    O     O_R   0.620920 0.500000 0.618810 -0.522170
O8    O     O_R   0.620930 0.500020 0.381230 -0.620111
O9    O     O_3   0.049211 0.275441 0.410603 -0.720317
H10   H     H_    0.996715 0.224362 0.390662 0.317460
O10   O     O_3   0.377933 0.864103 0.969850 -0.712063
H11   H     H_    0.383603 0.911554 0.056886 0.368828
O11   O     O_3   0.365095 0.772715 0.709204 -0.561670
C35   C     C_3   0.291151 0.809195 0.641217 0.054316
H12   H     H_    0.285025 0.759508 0.541235 0.139223
H13   H     H_    0.291209 0.910173 0.615321 0.127390
C36   C     C_3   0.214205 0.773321 0.731868 -0.299104
H14   H     H_    0.207290 0.671080 0.743708 0.221934
H15   H     H_    0.223396 0.813931 0.836565 0.254883
C37   C     C_3   0.133754 0.819958 0.668710 -0.926058
H16   H     H_    0.137542 0.922609 0.664518 0.269667
H17   H     H_    0.078624 0.788101 0.733642 0.258810
H18   H     H_    0.124509 0.784051 0.562036 0.260694
O12   O     O_3   0.384830 0.353547 0.148605 -0.671261
H19   H     H_    0.348012 0.306206 0.082305 0.309705
O13   O     O_3   0.757015 0.759601 0.164620 -0.739154
H20   H     H_    0.742783 0.752099 0.264766 0.321842
O14   O     O_3   0.773316 0.742888 0.875940 -0.738500
H21   H     H_    0.818715 0.763894 0.943738 0.376103
O15   O     O_3   0.629243 0.693274 0.730560 -0.678616
H22   H     H_    0.665509 0.770380 0.717348 0.341029
O16   O     O_3   0.559311 0.128967 0.267622 -0.565648
C38   C     C_3   0.645385 0.109443 0.241297 0.060637
H23   H     H_    0.654710 0.111919 0.126937 0.179270
H24   H     H_    0.665417 0.017639 0.277877 0.135917
C39   C     C_3   0.702124 0.213097 0.305126 -0.361354
H25   H     H_    0.685463 0.303288 0.260228 0.245182
H26   H     H_    0.691840 0.214584 0.419214 0.196034
C40   C     C_3   0.795240 0.195489 0.276705 -0.900196
H27   H     H_    0.813700 0.106444 0.322204 0.264226
H28   H     H_    0.834560 0.271714 0.324583 0.249562
H29   H     H_    0.807579 0.196545 0.163157 0.262072
O17   O     O_3   0.469663 0.092787 0.014786 -0.703711
H30   H     H_    0.501129 0.174631 0.009963 0.344511

loop_
_geom_bond_atom_site_label_1
_geom_bond_atom_site_label_2
_ccdc_geom_bond_type
C5    H6    S    
C28   N2    A    
C9    H9    S    
C29   C33   S    
O13   H20   S    
Cu1   Cu2   S    
C4    C8    S    
Cu1   N2    S    
C23   O5    A    
C13   O11   S    
O15   H22   S    
C3    H7    S    
C18   H1    S    
C30   C31   S    
C40   H28   S    
C29   O7    A    
C15   C16   A    
C21   O13   S    
C17   O16   S    
O9    H10   S    
C18   C19   A    
C35   H13   S    
Cu2   O6    S    
C2    C7    S    
C16   C17   A    
C6    H5    S    
Cu2   N1    S    
C31   O9    S    
C11   O10   S    
C9    C10   A    
C25   N2    A    
C2    C34   S    
C6    C31   S    
C13   C14   A    
C12   C32   S    
Cu1   O7    S    
C22   O14   S    
C38   C39   S    
Cu1   O1    S    
C25   C26   A    
C23   O6    A    
C30   C34   S    
C37   H16   S    
C36   C37   S    
C34   H8    S    
C24   C25   A    
C4    C6    S    
C40   H27   S    
C29   O8    A    
C28   H3    S    
O10   H11   S    
O11   C35   S    
C37   H17   S    
C36   H15   S    
C35   C36   S    
C19   C23   S    
O14   H21   S    
C20   H2    S    
C39   H25   S    
Cu1   O3    S    
C17   C18   A    
C30   H4    S    
C1    C16   S    
Cu2   O4    S    
C27   N1    A    
C38   H24   S    
C39   H26   S    
C22   C24   A    
C2    C5    S    
C3    C4    S    
Cu1   O5    S    
C12   O4    A    
C27   O12   S    
C7    C32   T    
C14   C19   A    
C38   H23   S    
C3    C5    S    
C40   H29   S    
C12   O3    A    
C1    O1    A    
C3    C34   S    
C37   H18   S    
C36   H14   S    
C9    C15   A    
O12   H19   S    
Cu2   O8    S    
C11   C13   A    
O17   H30   S    
C5    C6    S    
C20   C26   A    
C8    C33   T    
C35   H12   S    
C10   C11   A    
C26   N1    A    
O16   C38   S    
C24   O15   S    
C39   C40   S    
C20   C21   A    
C10   O17   S    
C27   C28   A    
C14   C15   A    
C2    C31   S    
C21   C22   A    
C1    O2    A    
C4    C30   S    
Cu2   O2    S    
