data_mof_unit_47227.cif
_audit_creation_date              2012-12-10T17:00:49-0500
_audit_creation_method            fapswitch 2.2
_symmetry_space_group_name_H-M    P1
_symmetry_Int_Tables_number       1
_space_group_crystal_system       triclinic
_cell_length_a                    10.837864
_cell_length_b                    10.628856
_cell_length_c                    10.206519
_cell_angle_alpha                 87.005566
_cell_angle_beta                  104.233688
_cell_angle_gamma                 92.391263
_cell_volume                      1137.57425969

loop_
_atom_site_label
_atom_site_type_symbol
_atom_type_description
_atom_site_fract_x
_atom_site_fract_y
_atom_site_fract_z
_atom_type_partial_charge
C1    C     C_R   0.505749 0.263513 0.505791 0.911282
C2    C     C_2   0.493530 0.870109 0.473208 0.027617
C3    C     C_2   0.613122 0.069851 0.494773 0.179284
C4    C     C_2   0.520759 0.131815 0.526877 -0.402017
C5    C     C_2   0.567232 0.580713 0.937921 0.072450
C6    C     C_2   0.554044 0.588646 0.083343 0.542924
C7    C     C_R   0.261230 0.511880 0.442852 0.814671
C8    C     C_R   0.496619 0.736918 0.494415 0.861991
C9    C     C_R   0.740679 0.500296 0.557437 0.898631
C10   C     C_2   0.126085 0.536167 0.408147 0.272081
C11   C     C_2   0.067729 0.568651 0.503892 0.098862
C12   C     C_2   0.877955 0.517215 0.590302 -0.416107
C13   C     C_2   0.936245 0.523454 0.489085 -0.130716
C14   C     C_2   0.604597 0.933688 0.517415 -0.216377
H1    H     H_    0.885925 0.489735 0.391378 0.200080
H2    H     H_    0.517019 0.409111 0.885410 0.157640
H3    H     H_    0.927825 0.537113 0.693323 0.173346
H4    H     H_    0.688786 0.885203 0.574576 0.122802
H5    H     H_    0.457351 0.083387 0.582072 0.161484
N1    N     N_2   0.501330 0.501330 0.852460 -0.247146
N2    N     N_2   0.501370 0.501360 0.148130 -0.095514
O1    O     O_R   0.499980 0.319060 0.613030 -0.603604
O2    O     O_R   0.500020 0.319100 0.386910 -0.614118
O3    O     O_R   0.317800 0.500000 0.570840 -0.635254
O4    O     O_R   0.317840 0.500040 0.344720 -0.585325
O5    O     O_R   0.499980 0.680900 0.613090 -0.640499
O6    O     O_R   0.500020 0.680940 0.386970 -0.576425
O7    O     O_R   0.682160 0.499960 0.655280 -0.611964
O8    O     O_R   0.682200 0.500000 0.429160 -0.621980
Zn1   Zn    Zn3+2 0.499970 0.499970 0.650990 0.908531
Zn2   Zn    Zn3+2 0.500030 0.500030 0.349010 0.955732
O9    O     O_3   0.589518 0.702155 0.145702 -0.612349
C15   C     C_3   0.716131 0.700414 0.224918 -0.228075
H6    H     H_    0.775570 0.769834 0.180926 0.139221
H7    H     H_    0.760370 0.607270 0.234971 0.149568
H8    H     H_    0.718575 0.731084 0.327709 0.196931
C16   C     C_3   0.413697 0.405042 0.071915 -0.354561
C17   C     C_3   0.296838 0.362473 0.122800 -0.681011
H9    H     H_    0.317911 0.309143 0.220341 0.281396
H10   H     H_    0.234612 0.442971 0.120947 0.267810
H11   H     H_    0.239068 0.295348 0.050434 0.184102
H12   H     H_    0.361003 0.445167 0.973081 0.173732
H13   H     H_    0.467373 0.319959 0.064434 0.174868
C18   C     C_3   0.132088 0.651810 0.621172 -0.387863
C19   C     C_3   0.059154 0.772637 0.619137 -0.915127
H14   H     H_    0.039622 0.820422 0.517070 0.268923
H15   H     H_    0.967490 0.753094 0.647140 0.260954
H16   H     H_    0.117113 0.837995 0.693190 0.254747
H17   H     H_    0.140816 0.598483 0.719377 0.211496
H18   H     H_    0.229264 0.683979 0.615610 0.227065
O10   O     O_3   0.057095 0.511458 0.278461 -0.625942
C20   C     C_3   0.068747 0.619032 0.194269 -0.373660
H19   H     H_    0.165154 0.665916 0.217637 0.174954
H20   H     H_    0.997051 0.688845 0.200069 0.172647
H21   H     H_    0.051892 0.589406 0.088884 0.197255
C21   C     C_3   0.382024 0.920777 0.362070 -0.378740
C22   C     C_3   0.257982 0.912774 0.407442 -0.945392
H22   H     H_    0.228867 0.812607 0.419849 0.250717
H23   H     H_    0.268760 0.959706 0.504381 0.272658
H24   H     H_    0.181669 0.959171 0.329191 0.257834
H25   H     H_    0.398019 0.018271 0.324662 0.223882
H26   H     H_    0.368864 0.863796 0.271087 0.227737
C23   C     C_3   0.718921 0.135615 0.440407 -0.329749
C24   C     C_3   0.819914 0.047060 0.420743 -0.908862
H27   H     H_    0.869129 0.001582 0.519108 0.259390
H28   H     H_    0.775750 0.973696 0.348692 0.264411
H29   H     H_    0.892037 0.101837 0.378786 0.257717
H30   H     H_    0.676586 0.183578 0.341093 0.220053
H31   H     H_    0.766986 0.208395 0.511578 0.192567
C25   C     C_3   0.677318 0.655551 0.902451 -0.304962
C26   C     C_3   0.798259 0.579949 0.943368 -0.926390
H32   H     H_    0.825583 0.561535 0.053857 0.265875
H33   H     H_    0.784398 0.486954 0.896680 0.288640
H34   H     H_    0.876367 0.633310 0.910344 0.236551
H35   H     H_    0.661910 0.680427 0.794865 0.257713
H36   H     H_    0.692656 0.747212 0.951734 0.198909

loop_
_geom_bond_atom_site_label_1
_geom_bond_atom_site_label_2
_ccdc_geom_bond_type
C12   H3    S    
C16   H13   S    
C7    C10   S    
C6    O9    S    
O4    Zn2   S    
C16   C17   S    
O10   C20   S    
O1    Zn1   S    
C3    C23   S    
C26   H34   S    
C8    O5    A    
C14   H4    S    
C7    O4    A    
C20   H21   S    
C9    O8    A    
H2    N1    S    
C1    C4    S    
C24   H27   S    
C15   H8    S    
C16   H12   S    
O7    Zn1   S    
C15   H6    S    
C3    C4    D    
C1    O1    A    
O8    Zn2   S    
C5    N1    D    
N1    Zn1   S    
C19   H14   S    
C12   C13   D    
C17   H10   S    
N2    Zn2   S    
C22   H22   S    
C5    C25   S    
C3    C14   S    
C5    C6    S    
C10   O10   S    
C15   H7    S    
C20   H20   S    
C1    O2    A    
C21   H26   S    
C6    N2    D    
C13   H1    S    
C25   H36   S    
C17   H9    S    
C2    C14   D    
C9    C12   S    
O3    Zn1   S    
C22   H23   S    
C21   C22   S    
O6    Zn2   S    
C23   C24   S    
C24   H29   S    
C11   C18   S    
C11   C13   S    
C25   C26   S    
N2    C16   S    
C20   H19   S    
C9    O7    A    
C17   H11   S    
C7    O3    A    
C10   C11   D    
C19   H15   S    
C18   H18   S    
C25   H35   S    
C26   H33   S    
C8    O6    A    
C23   H30   S    
C22   H24   S    
C2    C21   S    
C19   H16   S    
C26   H32   S    
C21   H25   S    
C4    H5    S    
C18   H17   S    
C2    C8    S    
C18   C19   S    
C23   H31   S    
O9    C15   S    
C24   H28   S    
O5    Zn1   S    
O2    Zn2   S    
