data_mof_unit_5570.cif
_audit_creation_date              2012-12-10T16:57:47-0500
_audit_creation_method            fapswitch 2.2
_symmetry_space_group_name_H-M    P1
_symmetry_Int_Tables_number       1
_space_group_crystal_system       triclinic
_cell_length_a                    8.134011
_cell_length_b                    8.692288
_cell_length_c                    19.293503
_cell_angle_alpha                 100.694094
_cell_angle_beta                  85.216111
_cell_angle_gamma                 90.306172
_cell_volume                      1335.67869916

loop_
_atom_site_label
_atom_site_type_symbol
_atom_type_description
_atom_site_fract_x
_atom_site_fract_y
_atom_site_fract_z
_atom_type_partial_charge
C1    C     C_R   0.540240 0.792716 0.500446 0.915327
C2    C     C_R   0.616099 0.424552 0.171445 -0.179668
C3    C     C_R   0.517673 0.513104 0.855234 0.021706
C4    C     C_R   0.482192 0.486710 0.144760 0.021679
C5    C     C_R   0.654657 0.450050 0.809397 -0.031168
C6    C     C_R   0.345263 0.549860 0.190608 -0.031150
C7    C     C_R   0.649272 0.439560 0.735880 0.061280
C8    C     C_R   0.350710 0.560431 0.264127 0.061301
C9    C     C_R   0.507600 0.495869 0.709364 -0.040261
C10   C     C_R   0.492378 0.504094 0.290634 -0.040247
C11   C     C_R   0.490933 0.492652 0.069385 0.275058
C12   C     C_R   0.459760 0.207284 0.499555 0.915327
C13   C     C_R   0.508905 0.507140 0.930606 0.275062
C14   C     C_R   0.808531 0.411589 0.839232 0.122362
C15   C     C_R   0.864587 0.256193 0.830803 -0.140556
C16   C     C_R   0.003103 0.221493 0.863832 -0.129652
C17   C     C_R   0.083983 0.340790 0.906347 -0.099017
C18   C     C_R   0.026894 0.495012 0.915815 -0.159658
C19   C     C_R   0.891381 0.530934 0.881749 -0.152004
C20   C     C_R   0.191373 0.588336 0.160789 0.122369
C21   C     C_R   0.108464 0.468988 0.118299 -0.151995
C22   C     C_R   0.972933 0.504915 0.084245 -0.159574
C23   C     C_2   0.555529 0.956849 0.512257 -0.120783
C24   C     C_R   0.915881 0.659147 0.093700 -0.099004
C25   C     C_R   0.996825 0.778449 0.136184 -0.129690
C26   C     C_R   0.135360 0.743742 0.169199 -0.140547
C27   C     C_R   0.994380 0.338604 0.415365 0.237250
C28   C     C_R   0.868018 0.257876 0.376652 -0.131578
C29   C     C_R   0.893177 0.170815 0.307821 -0.231166
C30   C     C_R   0.049894 0.152832 0.274238 -0.106470
C31   C     C_R   0.180370 0.204290 0.313047 -0.201487
C32   C     C_R   0.151376 0.286118 0.382657 -0.094412
C33   C     C_R   0.005620 0.661389 0.584637 0.237256
C34   C     C_2   0.444471 0.043152 0.487744 -0.120784
C35   C     C_R   0.131982 0.742110 0.623351 -0.131579
C36   C     C_R   0.106827 0.829140 0.692189 -0.231171
C37   C     C_R   0.950110 0.847109 0.725773 -0.106513
C38   C     C_R   0.819632 0.795674 0.686961 -0.201489
C39   C     C_R   0.848625 0.713872 0.617346 -0.094385
C40   C     C_R   0.500840 0.497434 0.633615 0.829399
C41   C     C_R   0.499158 0.502564 0.366384 0.829405
C42   C     C_R   0.376279 0.562182 0.756408 -0.257164
C43   C     C_R   0.623635 0.437674 0.243581 -0.257171
C44   C     C_R   0.383756 0.575229 0.828542 -0.179678
H1    H     H_    0.267999 0.606347 0.737624 0.181255
H2    H     H_    0.151536 0.348749 0.110178 0.125245
H3    H     H_    0.912699 0.412957 0.049972 0.154605
H4    H     H_    0.810456 0.686413 0.067271 0.142997
H5    H     H_    0.953417 0.897853 0.142192 0.117239
H6    H     H_    0.201416 0.837635 0.199663 0.116897
H7    H     H_    0.893422 0.437327 0.702525 0.208986
H8    H     H_    0.804344 0.257789 0.692663 0.177394
H9    H     H_    0.106583 0.562801 0.297528 0.209006
H10   H     H_    0.195750 0.742299 0.307328 0.177376
H11   H     H_    0.777648 0.066237 0.526077 0.238188
H12   H     H_    0.731904 0.393479 0.262360 0.181229
H13   H     H_    0.632827 0.109066 0.597538 0.198542
H14   H     H_    0.222355 0.933761 0.473921 0.238192
H15   H     H_    0.367182 0.890937 0.402462 0.198549
H16   H     H_    0.744987 0.255912 0.395854 0.205778
H17   H     H_    0.789646 0.118746 0.280462 0.137517
H18   H     H_    0.071124 0.091839 0.220234 0.124474
H19   H     H_    0.305315 0.175938 0.290233 0.131897
H20   H     H_    0.257843 0.290471 0.406604 0.205401
H21   H     H_    0.255010 0.744090 0.604146 0.205776
H22   H     H_    0.210359 0.881197 0.719551 0.137536
H23   H     H_    0.283244 0.632785 0.863502 0.155041
H24   H     H_    0.928881 0.908079 0.779781 0.124488
H25   H     H_    0.694688 0.824021 0.709776 0.131895
H26   H     H_    0.742159 0.709535 0.593397 0.205390
H27   H     H_    0.716561 0.366917 0.136480 0.155000
H28   H     H_    0.798582 0.162302 0.800312 0.116911
H29   H     H_    0.046546 0.102098 0.857811 0.117241
H30   H     H_    0.189396 0.313528 0.932784 0.143008
H31   H     H_    0.087100 0.586971 0.950100 0.154643
H32   H     H_    0.848279 0.651165 0.889881 0.125260
N1    N     N_R   0.563646 0.378166 0.952334 -0.167282
N2    N     N_3   0.317217 0.978012 0.443551 -0.472047
N3    N     N_R   0.436194 0.621626 0.047656 -0.167290
N4    N     N_R   0.555615 0.371161 0.020670 -0.192593
N5    N     N_R   0.444223 0.628631 0.979321 -0.192595
N6    N     N_2   0.950330 0.457950 0.481240 -0.110886
N7    N     N_2   0.049670 0.542050 0.518760 -0.110885
N8    N     N_3   0.787487 0.374542 0.688390 -0.420326
N9    N     N_3   0.212558 0.625556 0.311628 -0.420352
N10   N     N_3   0.682787 0.021988 0.556449 -0.472052
O1    O     O_R   0.389250 0.738570 0.504600 -0.666862
O2    O     O_R   0.610750 0.261430 0.495400 -0.666867
O3    O     O_R   0.678400 0.711620 0.492580 -0.629305
O4    O     O_R   0.321600 0.288380 0.507420 -0.629305
O5    O     O_R   0.355380 0.513500 0.607880 -0.644097
O6    O     O_R   0.644620 0.486500 0.392120 -0.644092
O7    O     O_R   0.644530 0.486550 0.595850 -0.615221
O8    O     O_R   0.355470 0.513450 0.404150 -0.615230
Zn1   Zn    Zn3+2 0.306930 0.517990 0.508030 0.909784
Zn2   Zn    Zn3+2 0.693070 0.482010 0.491970 0.909786

loop_
_geom_bond_atom_site_label_1
_geom_bond_atom_site_label_2
_ccdc_geom_bond_type
C1    O1    A    
O2    Zn2   S    
C18   H31   S    
C35   C36   A    
C40   O7    A    
O4    Zn1   S    
C15   H28   S    
C9    C42   A    
C33   C39   A    
C12   O4    A    
C28   C29   A    
C37   C38   A    
C8    N9    S    
C26   H6    S    
C30   C31   A    
C36   H22   S    
C35   H21   S    
C15   C16   A    
C37   H24   S    
C13   N5    A    
O6    Zn2   S    
H13   N10   S    
C18   C19   A    
H8    N8    S    
C31   C32   A    
C16   C17   A    
C23   N10   S    
O1    Zn1   S    
C3    C13   S    
C22   H3    S    
C10   C43   A    
C38   H25   S    
C21   C22   A    
C10   C41   S    
C42   C44   A    
H15   N2    S    
C13   N1    A    
C28   H16   S    
C29   H17   S    
C3    C44   A    
N6    Zn2   S    
C12   O2    A    
C16   H29   S    
C24   H4    S    
C31   H19   S    
C24   C25   A    
C32   H20   S    
C4    C6    A    
N3    N5    A    
C6    C8    A    
C25   C26   A    
C9    C40   S    
C42   H1    S    
C2    C4    A    
C29   C30   A    
C41   O8    A    
C2    C43   A    
C23   C34   D    
N7    Zn1   S    
C17   C18   A    
C4    C11   S    
C33   N7    S    
C5    C14   S    
C11   N3    A    
C8    C10   A    
C1    C23   S    
O7    Zn2   S    
C30   H18   S    
C17   H30   S    
C22   C24   A    
C12   C34   S    
C2    H27   S    
C5    C7    A    
C21   H2    S    
N1    N4    A    
C7    C9    A    
C19   H32   S    
C1    O3    A    
C27   C32   A    
C14   C19   A    
C27   N6    S    
C3    C5    A    
H10   N9    S    
C6    C20   S    
O3    Zn2   S    
C34   N2    S    
C38   C39   A    
C20   C26   A    
H11   N10   S    
C33   C35   A    
C39   H26   S    
C7    N8    S    
C40   O5    A    
O8    Zn1   S    
C25   H5    S    
C11   N4    A    
H14   N2    S    
O5    Zn1   S    
C43   H12   S    
C41   O6    A    
C20   C21   A    
C36   C37   A    
N6    N7    D    
C27   C28   A    
C14   C15   A    
C44   H23   S    
H9    N9    S    
H7    N8    S    
