data_mof_unit_21891.cif
_audit_creation_date              2012-12-10T20:31:52-0500
_audit_creation_method            fapswitch 2.2
_symmetry_space_group_name_H-M    P1
_symmetry_Int_Tables_number       1
_space_group_crystal_system       triclinic
_cell_length_a                    9.865327
_cell_length_b                    10.675171
_cell_length_c                    15.506994
_cell_angle_alpha                 90.033529
_cell_angle_beta                  66.720238
_cell_angle_gamma                 89.958194
_cell_volume                      1500.14580824

loop_
_atom_site_label
_atom_site_type_symbol
_atom_type_description
_atom_site_fract_x
_atom_site_fract_y
_atom_site_fract_z
_atom_type_partial_charge
C1    C     C_R   0.501560 0.740063 0.497336 0.877451
C2    C     C_R   0.423506 0.522646 0.908491 0.116488
C3    C     C_R   0.305530 0.606605 0.955052 0.176562
C4    C     C_R   0.529126 0.495524 0.947187 0.062152
C5    C     C_R   0.505426 0.541252 0.037433 0.094492
C6    C     C_R   0.386501 0.625297 0.081922 -0.199312
C7    C     C_R   0.288533 0.656886 0.041359 -0.179791
C8    C     C_R   0.658979 0.426612 0.897556 -0.304721
C9    C     C_R   0.760810 0.397135 0.936218 -0.017996
C10   C     C_R   0.737232 0.439882 0.027633 -0.016162
C11   C     C_R   0.603182 0.504486 0.079858 0.047861
C12   C     C_R   0.407119 0.501041 0.676156 0.863688
C13   C     C_R   0.841514 0.422197 0.069359 0.337104
C14   C     C_R   0.801508 0.449005 0.165389 -0.103554
C15   C     C_R   0.564002 0.523754 0.175681 -0.247993
C16   C     C_R   0.385311 0.936288 0.486069 0.147041
C17   C     C_R   0.509703 0.871466 0.482784 -0.108953
C18   C     C_R   0.643371 0.935097 0.461704 -0.209308
C19   C     C_R   0.643541 0.064675 0.461475 -0.199570
C20   C     C_R   0.510005 0.128599 0.482427 -0.107381
C21   C     C_R   0.385475 0.064020 0.485856 0.124145
C22   C     C_3   0.229297 0.071626 0.555841 -0.449412
C23   C     C_R   0.501809 0.259973 0.497122 0.885588
C24   C     C_3   0.229207 0.929636 0.556201 -0.500656
C25   C     C_R   0.901134 0.592996 0.544743 0.223118
C26   C     C_R   0.959413 0.414145 0.449620 -0.090322
C27   C     C_R   0.103433 0.414203 0.449500 -0.112247
C28   C     C_R   0.043758 0.593014 0.544643 0.207112
C29   C     C_3   0.986741 0.623352 0.646669 -0.516926
C30   C     C_3   0.832704 0.623151 0.647020 -0.487798
C31   C     C_R   0.593825 0.498888 0.323154 0.889572
C32   C     C_R   0.348699 0.517611 0.777284 -0.034956
C33   C     C_R   0.657328 0.492368 0.219768 -0.202052
C34   C     C_R   0.208656 0.642441 0.913010 -0.138443
C35   C     C_R   0.232241 0.600098 0.823135 -0.150512
C36   C     C_R   0.434185 0.471674 0.822972 -0.214023
H1    H     H_    0.200250 0.722593 0.077201 0.165703
H2    H     H_    0.744561 0.885876 0.451754 0.175836
H3    H     H_    0.744824 0.113710 0.451355 0.170972
H4    H     H_    0.219383 0.113392 0.623824 0.220562
H5    H     H_    0.154712 0.112515 0.525100 0.205545
H6    H     H_    0.219624 0.888778 0.624342 0.197735
H7    H     H_    0.154363 0.888413 0.525816 0.208036
H8    H     H_    0.929217 0.343135 0.410738 0.142405
H9    H     H_    0.182124 0.343394 0.410193 0.147050
H10   H     H_    0.005536 0.546400 0.688963 0.254101
H11   H     H_    0.454882 0.556313 0.219272 0.176329
H12   H     H_    0.022541 0.717411 0.659953 0.192799
H13   H     H_    0.762684 0.546048 0.689801 0.224490
H14   H     H_    0.779716 0.717101 0.660533 0.202381
H15   H     H_    0.119213 0.707510 0.947792 0.143403
H16   H     H_    0.165454 0.636814 0.787799 0.141826
H17   H     H_    0.513926 0.400721 0.786575 0.138259
H18   H     H_    0.370282 0.673410 0.146448 0.152675
H19   H     H_    0.685613 0.393280 0.827245 0.153155
N1    N     N_R   0.856900 0.500860 0.500610 -0.100519
N2    N     N_R   0.142540 0.500820 0.500610 -0.100668
O1    O     O_R   0.385310 0.683210 0.499990 -0.616954
O2    O     O_R   0.614650 0.683240 0.500000 -0.615951
O3    O     O_R   0.319830 0.499970 0.632240 -0.594494
O4    O     O_R   0.549170 0.500000 0.632250 -0.622411
O5    O     O_R   0.385350 0.316760 0.500000 -0.612438
O6    O     O_R   0.614690 0.316790 0.500010 -0.626229
O7    O     O_R   0.450830 0.500000 0.367750 -0.615510
O8    O     O_R   0.680170 0.500030 0.367760 -0.587632
Zn1   Zn    Zn3+2 0.346870 0.499980 0.499990 0.960961
Zn2   Zn    Zn3+2 0.653130 0.500020 0.500010 0.968540
Cl1   Cl    Cl    0.028351 0.380822 0.002638 -0.583450
C37   C     C_2   0.911277 0.428599 0.207169 1.006652
O9    O     O_2   0.958823 0.517826 0.236111 -0.630324
O10   O     O_R   0.964117 0.307831 0.209991 -0.767062
H20   H     H_    0.042195 0.306194 0.237152 0.328430
C38   C     C_2   0.877146 0.306299 0.882528 0.995997
O11   O     O_2   0.958602 0.328516 0.801061 -0.653033
O12   O     O_R   0.888738 0.192608 0.923859 -0.755072
H21   H     H_    0.970914 0.137632 0.879929 0.347621

loop_
_geom_bond_atom_site_label_1
_geom_bond_atom_site_label_2
_ccdc_geom_bond_type
C8    C9    A    
C16   C21   A    
C24   H6    S    
C38   O11   D    
C19   C20   A    
C25   N1    A    
C15   H11   S    
N2    Zn1   S    
C4    C8    A    
C14   C33   A    
C26   H8    S    
C28   N2    A    
C25   C28   A    
C26   C27   A    
C32   C36   A    
C28   C29   S    
C5    C11   A    
C3    C7    A    
C1    O2    A    
C5    C6    A    
C22   H5    S    
C34   C35   A    
C37   O10   S    
C36   H17   S    
O2    Zn2   S    
C11   C15   A    
O1    Zn1   S    
C23   O5    A    
C16   C17   A    
O8    Zn2   S    
C31   C33   S    
C9    C10   A    
C27   H9    S    
C23   O6    A    
C30   H14   S    
O3    Zn1   S    
C16   C24   S    
C13   C14   A    
C12   C32   S    
C38   O12   S    
C9    C38   S    
C6    H18   S    
C8    H19   S    
O6    Zn2   S    
O5    Zn1   S    
C29   H12   S    
C32   C35   A    
C27   N2    A    
C18   C19   A    
C3    C34   A    
C34   H15   S    
O7    Zn1   S    
C2    C4    A    
O12   H21   S    
C29   C30   S    
O4    Zn2   S    
C20   C23   S    
C22   H4    S    
C17   C18   A    
C7    H1    S    
C19   H3    S    
C30   H13   S    
C14   C37   S    
C22   C24   S    
C2    C36   A    
C25   C30   S    
C31   O8    A    
C31   O7    A    
C4    C5    A    
C10   C13   A    
C26   N1    A    
C6    C7    A    
N1    Zn2   S    
C1    C17   S    
C29   H10   S    
C2    C3    A    
C18   H2    S    
O10   H20   S    
C1    O1    A    
C12   O4    A    
C37   O9    D    
C10   C11   A    
C12   O3    A    
C20   C21   A    
C35   H16   S    
C24   H7    S    
C21   C22   S    
C15   C33   A    
C13   Cl1   S    
