data_mof_unit_55406.cif
_audit_creation_date              2012-10-26T20:05:57-0400
_audit_creation_method            fapswitch 2.2
_symmetry_space_group_name_H-M    P1
_symmetry_Int_Tables_number       1
_space_group_crystal_system       triclinic
_cell_length_a                    9.520755
_cell_length_b                    10.800717
_cell_length_c                    13.447767
_cell_angle_alpha                 90.198542
_cell_angle_beta                  72.49002
_cell_angle_gamma                 90.095136
_cell_volume                      1318.76404038

loop_
_atom_site_label
_atom_site_type_symbol
_atom_type_description
_atom_site_fract_x
_atom_site_fract_y
_atom_site_fract_z
_atom_type_partial_charge
C1    C     C_R   0.500041 0.737927 0.500101 0.624419
C2    C     C_R   0.373509 0.496975 0.814897 -0.030936
C3    C     C_R   0.569826 0.937778 0.562974 0.196829
C4    C     C_R   0.421271 0.495542 0.700179 0.546470
C5    C     C_R   0.571113 0.066043 0.561158 -0.097981
C6    C     C_R   0.499706 0.129189 0.500053 -0.058567
C7    C     C_R   0.428116 0.065165 0.439138 -0.100356
C8    C     C_R   0.429535 0.936852 0.437404 0.195899
C9    C     C_R   0.499969 0.872182 0.500082 0.035562
C10   C     C_R   0.895699 0.568870 0.571011 0.044979
C11   C     C_R   0.044492 0.568914 0.570953 0.042532
C12   C     C_R   0.434662 0.492447 0.979244 0.001357
C13   C     C_R   0.104254 0.430777 0.429170 0.033503
C14   C     C_R   0.955465 0.430912 0.429130 0.030367
C15   C     C_R   0.499896 0.262440 0.499945 0.537455
C16   C     C_R   0.578659 0.497896 0.300052 0.560172
C17   C     C_R   0.778921 0.382267 0.031593 -0.085610
C18   C     C_R   0.622802 0.480308 0.187156 0.022274
C19   C     C_R   0.237335 0.551314 0.866637 -0.090419
C20   C     C_R   0.197703 0.573780 0.973121 0.236318
C21   C     C_R   0.295574 0.546860 0.028834 -0.080504
C22   C     C_R   0.468035 0.458184 0.872700 0.021324
C23   C     C_R   0.541307 0.469985 0.031996 0.037974
C24   C     C_R   0.672928 0.405097 0.980495 0.059639
C25   C     C_R   0.695756 0.360765 0.879590 -0.121215
C26   C     C_R   0.593962 0.385048 0.827062 -0.101649
C27   C     C_R   0.521553 0.510222 0.134538 -0.107859
C28   C     C_R   0.753413 0.418837 0.134887 -0.077303
Cl1   Cl    Cl    0.348181 0.861984 0.351555 -0.548601
Cl2   Cl    Cl    0.027380 0.643064 0.036287 -0.577486
Cl3   Cl    Cl    0.649724 0.864265 0.649717 -0.589333
Cu1   Cu    Cu3+1 0.359340 0.499980 0.500000 1.000525
Cu2   Cu    Cu3+1 0.640660 0.500020 0.500000 1.005393
H1    H     H_    0.374502 0.115104 0.390858 0.162977
H2    H     H_    0.076587 0.624212 0.627752 0.129305
H3    H     H_    0.923307 0.375460 0.372444 0.115680
H4    H     H_    0.879567 0.332892 0.992583 0.126446
H5    H     H_    0.614187 0.342983 0.751053 0.143192
H6    H     H_    0.815760 0.623854 0.628100 0.177817
H7    H     H_    0.184099 0.375027 0.372563 0.114937
H8    H     H_    0.792766 0.306642 0.841013 0.121952
H9    H     H_    0.426791 0.563487 0.176737 0.147292
H10   H     H_    0.163154 0.580171 0.823814 0.159183
H11   H     H_    0.257794 0.567696 0.110939 0.148056
H12   H     H_    0.832639 0.394681 0.174957 0.139520
H13   H     H_    0.624370 0.116657 0.609607 0.161802
N1    N     N_R   0.147940 0.499970 0.499970 -0.226409
N2    N     N_R   0.852060 0.500060 0.499990 -0.236635
O1    O     O_R   0.381250 0.680340 0.500010 -0.456244
O2    O     O_R   0.618820 0.680370 0.500010 -0.448543
O3    O     O_R   0.323240 0.499950 0.650980 -0.518507
O4    O     O_R   0.560810 0.499980 0.650980 -0.504302
O5    O     O_R   0.381180 0.319630 0.499990 -0.506856
O6    O     O_R   0.618750 0.319660 0.499990 -0.516969
O7    O     O_R   0.439190 0.500020 0.349020 -0.502728
O8    O     O_R   0.676760 0.500050 0.349020 -0.496139

loop_
_geom_bond_atom_site_label_1
_geom_bond_atom_site_label_2
_ccdc_geom_bond_type
C2    C22   A    
C2    C4    S    
C23   C24   A    
C16   O8    A    
Cu1   O3    S    
C6    C7    A    
C3    C9    A    
C1    O2    A    
C23   C27   A    
C21   H11   S    
C5    H13   S    
Cu1   O7    S    
C11   N1    A    
C19   C20   A    
C12   C23   A    
Cu1   Cu2   S    
Cu2   O8    S    
C11   H2    S    
C6    C15   S    
C16   O7    A    
C1    C9    S    
C7    C8    A    
C25   C26   A    
C17   H4    S    
C13   C14   A    
C24   C25   A    
Cu2   O4    S    
C3    Cl3   S    
C20   Cl2   S    
C27   H9    S    
C4    O4    A    
C8    Cl1   S    
C15   O5    A    
C7    H1    S    
C19   H10   S    
C10   N2    A    
C5    C6    A    
C28   H12   S    
Cu1   N1    S    
Cu1   O1    S    
C17   C24   A    
C10   C11   A    
C4    O3    A    
C15   O6    A    
C12   C22   A    
Cu1   O5    S    
C18   C28   A    
C20   C21   A    
C8    C9    A    
C16   C18   S    
C22   C26   A    
C25   H8    S    
Cu2   O6    S    
C13   N1    A    
Cu2   N2    S    
C26   H5    S    
C14   H3    S    
C14   N2    A    
Cu2   O2    S    
C3    C5    A    
C2    C19   A    
C17   C28   A    
C1    O1    A    
C12   C21   A    
C18   C27   A    
C10   H6    S    
C13   H7    S    
