data_mof_unit_46902.cif
_audit_creation_date              2012-12-10T19:13:33-0500
_audit_creation_method            fapswitch 2.2
_symmetry_space_group_name_H-M    P1
_symmetry_Int_Tables_number       1
_space_group_crystal_system       triclinic
_cell_length_a                    9.796985
_cell_length_b                    10.683545
_cell_length_c                    16.807427
_cell_angle_alpha                 88.73468
_cell_angle_beta                  85.829535
_cell_angle_gamma                 88.458041
_cell_volume                      1753.52423918

loop_
_atom_site_label
_atom_site_type_symbol
_atom_type_description
_atom_site_fract_x
_atom_site_fract_y
_atom_site_fract_z
_atom_type_partial_charge
C1    C     C_R   0.498461 0.742088 0.497844 0.913992
C2    C     C_R   0.359649 0.513407 0.787856 0.532279
C3    C     C_R   0.447740 0.547633 0.132773 0.510850
C4    C     C_R   0.435472 0.555491 0.216001 -0.260738
C5    C     C_R   0.647709 0.434174 0.224118 -0.219092
C6    C     C_R   0.661637 0.426950 0.141906 -0.269558
C7    C     C_R   0.561685 0.482173 0.096641 -0.058666
C8    C     C_2   0.467519 0.397567 0.982904 -0.282717
C9    C     C_2   0.569739 0.461044 0.010802 0.567616
C10   C     C_R   0.533340 0.496312 0.261239 -0.088860
C11   C     C_3   0.353960 0.936322 0.473870 0.435590
C12   C     C_R   0.481293 0.496384 0.652793 0.906184
C13   C     C_3   0.355740 0.078370 0.477466 -0.442061
C14   C     C_3   0.537472 0.923050 0.578091 -0.598905
C15   C     C_3   0.608545 0.926329 0.432149 0.318865
C16   C     C_3   0.496383 0.878443 0.496258 -0.064312
C17   C     C_3   0.500464 0.121201 0.496736 -0.033166
C18   C     C_3   0.537625 0.067359 0.579614 0.421449
C19   C     C_3   0.604397 0.071280 0.429933 -0.597416
C20   C     C_3   0.911063 0.622008 0.528201 -0.429665
C21   C     C_3   0.072075 0.621319 0.531274 -0.302242
C22   C     C_3   0.917012 0.394249 0.553151 0.987524
C23   C     C_R   0.501247 0.257847 0.497900 0.920906
C24   C     C_3   0.926814 0.485424 0.419724 -0.452343
C25   C     C_3   0.082419 0.398558 0.552656 0.263637
C26   C     C_3   0.090385 0.488810 0.418763 0.424270
C27   C     C_R   0.518845 0.500335 0.347274 0.893636
C28   C     C_R   0.469710 0.466743 0.737520 -0.142096
C29   C     C_R   0.564946 0.381140 0.767193 -0.304376
C30   C     C_R   0.556952 0.347416 0.847108 -0.120692
C31   C     C_R   0.452595 0.398763 0.897967 0.134499
C32   C     C_R   0.350134 0.476058 0.868205 -0.261926
H1    H     H_    0.645223 0.339251 0.728381 0.219919
H2    H     H_    0.748131 0.375560 0.113556 0.165699
H3    H     H_    0.347253 0.915128 0.409759 0.150836
H4    H     H_    0.275353 0.113408 0.521580 0.206706
H5    H     H_    0.471717 0.882515 0.627598 0.191067
H6    H     H_    0.574580 0.107176 0.370776 0.217768
H7    H     H_    0.352079 0.609055 0.245307 0.195879
H8    H     H_    0.642811 0.097482 0.588729 0.092630
H9    H     H_    0.111813 0.700260 0.494025 0.261078
H10   H     H_    0.102307 0.639881 0.592084 0.205959
H11   H     H_    0.724563 0.388714 0.258815 0.158140
H12   H     H_    0.879267 0.555210 0.380298 0.190647
H13   H     H_    0.268850 0.514570 0.908338 0.160900
H14   H     H_    0.381789 0.366736 0.022629 0.119969
H15   H     H_    0.635904 0.286701 0.870142 0.153428
N1    N     N_3   0.861190 0.500250 0.501720 -0.096384
N2    N     N_3   0.138550 0.503270 0.501080 -0.129334
O1    O     O_R   0.383960 0.685090 0.500020 -0.577040
O2    O     O_R   0.616040 0.685320 0.499960 -0.652092
O3    O     O_R   0.370240 0.499890 0.615830 -0.519830
O4    O     O_R   0.602330 0.500120 0.615770 -0.595074
O5    O     O_R   0.383960 0.314680 0.500040 -0.646283
O6    O     O_R   0.616040 0.314910 0.499980 -0.565387
O7    O     O_R   0.397670 0.499880 0.384230 -0.566263
O8    O     O_R   0.629760 0.500110 0.384170 -0.642365
Zn1   Zn    Zn3+2 0.345040 0.499850 0.500040 1.017684
Zn2   Zn    Zn3+2 0.654960 0.500150 0.499960 0.967260
O9    O     O_3   0.230751 0.886780 0.510559 -0.623769
C33   C     C_3   0.216840 0.890040 0.594574 -0.372704
H16   H     H_    0.253671 0.976348 0.619752 0.212015
H17   H     H_    0.266294 0.805501 0.620136 0.204059
H18   H     H_    0.106269 0.885903 0.613710 0.164729
H19   H     H_    0.328890 0.119471 0.418889 0.140410
O10   O     O_3   0.443982 0.114828 0.640725 -0.630693
C34   C     C_3   0.493246 0.093727 0.717007 -0.385185
H20   H     H_    0.483967 0.994248 0.736455 0.163714
H21   H     H_    0.428357 0.149519 0.760664 0.202623
H22   H     H_    0.600851 0.122901 0.719704 0.159676
H23   H     H_    0.711081 0.895112 0.451876 0.098759
O11   O     O_3   0.584401 0.880083 0.355851 -0.612212
C35   C     C_3   0.708831 0.847845 0.312779 -0.330752
H24   H     H_    0.759255 0.765701 0.341282 0.162337
H25   H     H_    0.778803 0.928422 0.307240 0.160078
H26   H     H_    0.686529 0.820979 0.251772 0.196289
H27   H     H_    0.708469 0.106033 0.437020 0.192975
H28   H     H_    0.642387 0.886931 0.588946 0.138108
H29   H     H_    0.856948 0.650902 0.585036 0.177315
H30   H     H_    0.880256 0.698181 0.486597 0.181817
O12   O     O_3   0.843874 0.391615 0.630576 -0.619026
C36   C     C_3   0.876222 0.476514 0.689854 -0.287594
H31   H     H_    0.958907 0.541309 0.674135 0.191998
H32   H     H_    0.903338 0.422087 0.743659 0.194984
H33   H     H_    0.784632 0.534897 0.707947 0.181987
O13   O     O_3   0.131092 0.407875 0.629842 -0.565648
C37   C     C_3   0.148874 0.290542 0.668323 -0.245092
H34   H     H_    0.200481 0.305107 0.723823 0.193890
H35   H     H_    0.215449 0.226024 0.631528 0.191280
H36   H     H_    0.049181 0.248094 0.686232 0.139687
H37   H     H_    0.897119 0.395891 0.394180 0.179708
O14   O     O_3   0.159537 0.575108 0.364398 -0.557938
C38   C     C_3   0.079549 0.668933 0.328322 -0.370395
H38   H     H_    0.014810 0.723678 0.372380 0.158690
H39   H     H_    0.019103 0.628421 0.282219 0.151064
H40   H     H_    0.149695 0.736712 0.297129 0.188948
H41   H     H_    0.127554 0.395107 0.397555 0.072467
O15   O     O_3   0.885788 0.280299 0.515548 -0.649147
C39   C     C_3   0.909183 0.169667 0.561409 -0.368094
H42   H     H_    0.856139 0.171890 0.622002 0.192900
H43   H     H_    0.019338 0.146584 0.564336 0.144180
H44   H     H_    0.868413 0.089625 0.530720 0.172387
H45   H     H_    0.127180 0.312541 0.524108 0.061958
O16   O     O_3   0.678713 0.500732 0.958899 -0.608678
C40   C     C_3   0.733286 0.612967 0.983974 -0.322965
H46   H     H_    0.795600 0.595400 0.035908 0.164044
H47   H     H_    0.651562 0.685339 0.997808 0.177975
H48   H     H_    0.802377 0.650857 0.934543 0.184188
O17   O     O_3   0.357160 0.609760 0.084534 -0.622886
C41   C     C_3   0.219937 0.585203 0.110304 -0.368390
H49   H     H_    0.182592 0.650978 0.157643 0.177592
H50   H     H_    0.205344 0.486223 0.130869 0.159827
H51   H     H_    0.155819 0.601991 0.059185 0.188296
O18   O     O_3   0.260666 0.592849 0.758371 -0.587047
C42   C     C_3   0.282755 0.715578 0.782980 -0.392479
H52   H     H_    0.383043 0.749742 0.757009 0.146318
H53   H     H_    0.276256 0.722423 0.849102 0.180935
H54   H     H_    0.201143 0.778518 0.761149 0.182503

loop_
_geom_bond_atom_site_label_1
_geom_bond_atom_site_label_2
_ccdc_geom_bond_type
C10   C27   S    
C22   N1    S    
C37   H34   S    
C38   H38   S    
C22   O15   S    
O6    Zn2   S    
C2    O18   S    
C35   H24   S    
C14   C18   S    
C21   N2    S    
O18   C42   S    
O4    Zn2   S    
C13   H19   S    
C15   C19   S    
C15   O11   S    
C40   H47   S    
C17   C23   S    
C12   C28   S    
C28   C29   A    
C24   C26   S    
C3    C7    A    
C23   O5    A    
C5    C6    A    
O8    Zn2   S    
C26   O14   S    
C15   C16   S    
C29   H1    S    
C2    C32   A    
C32   H13   S    
C19   H27   S    
C18   H8    S    
C41   H49   S    
C25   O13   S    
C41   H50   S    
C39   H42   S    
C8    C9    D    
C42   H53   S    
C22   C25   S    
C1    O1    A    
C12   O4    A    
O10   C34   S    
C5    H11   S    
C38   H39   S    
C11   O9    S    
C35   H25   S    
O16   C40   S    
C12   O3    A    
O12   C36   S    
C8    H14   S    
C40   H48   S    
C20   H30   S    
C34   H20   S    
O1    Zn1   S    
C22   O12   S    
C30   H15   S    
C13   H4    S    
C27   O8    A    
C26   N2    S    
C27   O7    A    
C25   H45   S    
N2    Zn1   S    
C6    H2    S    
O9    C33   S    
C34   H21   S    
C24   N1    S    
C33   H18   S    
C29   C30   A    
C19   H6    S    
C11   C16   S    
C31   C32   A    
C4    H7    S    
C42   H54   S    
C33   H17   S    
C17   C18   S    
C1    C16   S    
C1    O2    A    
C41   H51   S    
C20   N1    S    
O3    Zn1   S    
C21   H9    S    
C39   H43   S    
O15   C39   S    
C38   H40   S    
C36   H32   S    
C37   H35   S    
C24   H12   S    
C35   H26   S    
C14   C16   S    
O2    Zn2   S    
C4    C10   A    
C3    C4    A    
C24   H37   S    
N1    Zn2   S    
O5    Zn1   S    
C7    C9    S    
C20   H29   S    
O13   C37   S    
C8    C31   S    
O11   C35   S    
C23   O6    A    
C6    C7    A    
C18   O10   S    
C36   H33   S    
C15   H23   S    
C40   H46   S    
C13   C17   S    
C34   H22   S    
C11   H3    S    
C5    C10   A    
O17   C41   S    
C14   H5    S    
C11   C13   S    
C30   C31   A    
C3    O17   S    
C9    O16   S    
O14   C38   S    
C17   C19   S    
O7    Zn1   S    
C14   H28   S    
C33   H16   S    
C25   N2    S    
C26   H41   S    
C21   H10   S    
C39   H44   S    
C20   C21   S    
C36   H31   S    
C37   H36   S    
C2    C28   A    
C42   H52   S    
