data_mof_unit_43922.cif
_audit_creation_date              2012-12-11T15:23:54-0500
_audit_creation_method            fapswitch 2.2
_symmetry_space_group_name_H-M    P1
_symmetry_Int_Tables_number       1
_space_group_crystal_system       triclinic
_cell_length_a                    17.300888
_cell_length_b                    24.42207
_cell_length_c                    14.985481
_cell_angle_alpha                 90.407003
_cell_angle_beta                  125.537627
_cell_angle_gamma                 89.513657
_cell_volume                      5152.13007358

loop_
_atom_site_label
_atom_site_type_symbol
_atom_type_description
_atom_site_fract_x
_atom_site_fract_y
_atom_site_fract_z
_atom_type_partial_charge
C1    C     C_R   0.350253 0.349048 0.907914 -0.127318
C2    C     C_R   0.541150 0.497779 0.714710 0.043253
C3    C     C_R   0.961881 0.998390 0.288545 0.043374
C4    C     C_R   0.934467 0.998681 0.633786 0.048349
C5    C     C_R   0.188131 0.498292 0.645790 0.137264
C6    C     C_R   0.824402 0.497228 0.276569 0.134501
C7    C     C_R   0.688949 0.998184 0.645008 0.137668
C8    C     C_R   0.324622 0.996905 0.278141 0.133514
C9    C     C_2   0.978084 0.452351 0.369219 -0.116335
C10   C     C_2   0.075519 0.456326 0.467474 -0.119614
C11   C     C_2   0.478035 0.951605 0.370127 -0.116171
C12   C     C_R   0.645673 0.347316 0.090186 -0.144389
C13   C     C_2   0.575915 0.955725 0.467419 -0.117230
C14   C     C_2   0.925136 0.497511 0.324415 -0.182579
C15   C     C_2   0.101139 0.498673 0.536787 -0.188363
C16   C     C_2   0.425194 0.996793 0.325380 -0.182339
C17   C     C_2   0.602243 0.998497 0.535960 -0.188876
C18   C     C_R   0.147379 0.680360 0.903969 0.067813
C19   C     C_R   0.841609 0.691382 0.096994 0.076684
C20   C     C_R   0.647744 0.183301 0.900355 0.068227
C21   C     C_R   0.344862 0.186715 0.093553 0.075848
C22   C     C_R   0.600144 0.228885 0.902491 -0.227188
C23   C     C_R   0.853090 0.848236 0.907887 -0.126212
C24   C     C_R   0.392566 0.231326 0.091065 -0.225689
C25   C     C_R   0.103392 0.728316 0.904537 -0.226935
C26   C     C_R   0.895089 0.731751 0.092786 -0.225612
C27   C     C_R   0.638956 0.257722 0.000811 0.124591
C28   C     C_R   0.351898 0.261040 0.994212 0.124254
C29   C     C_R   0.144848 0.758791 0.001577 0.125702
C30   C     C_R   0.858190 0.759573 0.994753 0.122335
C31   C     C_R   0.711537 0.233711 0.099701 -0.170091
C32   C     C_R   0.275260 0.239386 0.895316 -0.168972
C33   C     C_R   0.218523 0.735614 0.100932 -0.170335
C34   C     C_R   0.147499 0.847788 0.090045 -0.144792
C35   C     C_R   0.781066 0.737998 0.896378 -0.168089
C36   C     C_R   0.262991 0.688671 0.100567 -0.179448
C37   C     C_R   0.727034 0.698248 0.899519 -0.182462
C38   C     C_R   0.759668 0.188997 0.097898 -0.180419
C39   C     C_R   0.227269 0.195334 0.896933 -0.180644
C40   C     C_R   0.399278 0.621859 0.090251 -0.123890
C41   C     C_R   0.589686 0.634736 0.910447 -0.124749
C42   C     C_R   0.903135 0.129723 0.088213 -0.121056
C43   C     C_R   0.097042 0.124976 0.908655 -0.125597
C44   C     C_R   0.235740 0.665015 0.000682 0.076816
C45   C     C_R   0.309106 0.635423 0.998404 0.051705
C46   C     C_R   0.750118 0.679837 0.000947 0.076285
C47   C     C_R   0.736687 0.168873 0.997251 0.078117
C48   C     C_R   0.254960 0.172912 0.997513 0.074393
C49   C     C_R   0.601174 0.546608 0.622632 -0.166471
C50   C     C_R   0.606454 0.546994 0.534070 -0.169879
C51   C     C_R   0.893087 0.047587 0.467407 -0.168034
C52   C     C_R   0.900975 0.047445 0.380794 -0.167260
C53   C     C_R   0.596009 0.497812 0.479519 0.141969
C54   C     C_R   0.583952 0.497155 0.655033 0.144881
C55   C     C_R   0.918756 0.997973 0.347775 0.145330
C56   C     C_R   0.676546 0.651585 0.002230 0.055868
C57   C     C_R   0.902427 0.998183 0.519977 0.142143
C58   C     C_R   0.600573 0.447850 0.527998 -0.169321
C59   C     C_R   0.594368 0.447526 0.615733 -0.167504
C60   C     C_R   0.906705 0.948287 0.384298 -0.166489
C61   C     C_R   0.898381 0.948399 0.470453 -0.170285
C62   C     C_R   0.546912 0.453369 0.301304 -0.121193
C63   C     C_R   0.515804 0.452482 0.747321 -0.128652
C64   C     C_R   0.985838 0.952851 0.253985 -0.126674
C65   C     C_R   0.952067 0.953331 0.697770 -0.122760
C66   C     C_R   0.239130 0.544449 0.702400 -0.144731
C67   C     C_R   0.812034 0.141277 0.996166 0.051764
C68   C     C_R   0.770022 0.543527 0.255994 -0.139691
C69   C     C_R   0.739563 0.044376 0.701840 -0.143411
C70   C     C_R   0.270405 0.043336 0.257646 -0.138687
C71   C     C_R   0.548752 0.544569 0.303280 -0.142774
C72   C     C_R   0.509408 0.543953 0.739098 -0.121684
C73   C     C_R   0.993510 0.044246 0.264415 -0.126361
C74   C     C_R   0.950647 0.044531 0.696997 -0.139031
C75   C     C_R   0.240357 0.452859 0.705156 -0.117024
C76   C     C_R   0.766736 0.452196 0.247705 -0.118012
C77   C     C_R   0.740809 0.952802 0.704767 -0.117636
C78   C     C_R   0.183487 0.142808 0.000025 0.056544
C79   C     C_R   0.266721 0.952032 0.248509 -0.116251
C80   C     C_R   0.309275 0.624416 0.907099 -0.120806
C81   C     C_R   0.679399 0.635969 0.092654 -0.131472
C82   C     C_R   0.810673 0.126538 0.905651 -0.124881
C83   C     C_R   0.183219 0.132374 0.090940 -0.128027
C84   C     C_R   0.441206 0.348316 0.090895 -0.125399
C85   C     C_R   0.555419 0.347153 0.908187 -0.138963
C86   C     C_R   0.944945 0.847175 0.090389 -0.139663
C87   C     C_R   0.058364 0.847993 0.907759 -0.123527
C88   C     C_R   0.378882 0.317446 0.998023 0.058011
C89   C     C_R   0.564038 0.498702 0.365672 0.046875
C90   C     C_R   0.615236 0.315196 0.999489 0.066593
C91   C     C_R   0.884653 0.815912 0.997800 0.064019
C92   C     C_R   0.119573 0.816209 0.999286 0.059870
C93   C     C_1   0.100735 0.648647 0.804018 0.008927
C94   C     C_1   0.883472 0.664881 0.201290 -0.001274
C95   C     C_1   0.603444 0.153147 0.798819 0.007631
C96   C     C_1   0.389475 0.158560 0.196613 0.001941
H1    H     H_    0.312493 0.336041 0.823457 0.082675
H2    H     H_    0.457538 0.244839 0.166388 0.116766
H3    H     H_    0.040184 0.742939 0.828526 0.115738
H4    H     H_    0.961136 0.744356 0.167851 0.117604
H5    H     H_    0.738657 0.252303 0.178290 0.107431
H6    H     H_    0.245106 0.259428 0.817542 0.109374
H7    H     H_    0.249021 0.756056 0.178677 0.108265
H8    H     H_    0.754924 0.755768 0.817689 0.107966
H9    H     H_    0.601511 0.585460 0.657890 0.106121
H10   H     H_    0.609434 0.586147 0.503079 0.106660
H11   H     H_    0.889450 0.086704 0.498946 0.105962
H12   H     H_    0.681524 0.333705 0.173880 0.082764
H13   H     H_    0.901938 0.086361 0.347496 0.104213
H14   H     H_    0.598867 0.408865 0.492453 0.107564
H15   H     H_    0.588138 0.408417 0.644227 0.109267
H16   H     H_    0.913072 0.909178 0.354928 0.109416
H17   H     H_    0.899206 0.909367 0.504453 0.106889
H18   H     H_    0.562935 0.411065 0.326499 0.083926
H19   H     H_    0.526683 0.409800 0.738647 0.094237
H20   H     H_    0.975200 0.910251 0.262088 0.094323
H21   H     H_    0.935685 0.911124 0.671658 0.082272
H22   H     H_    0.224195 0.585810 0.670974 0.098236
H23   H     H_    0.815156 0.835543 0.823225 0.080532
H24   H     H_    0.796324 0.584389 0.280067 0.108479
H25   H     H_    0.724881 0.085681 0.670174 0.096586
H26   H     H_    0.297154 0.084126 0.282961 0.106756
H27   H     H_    0.567204 0.586351 0.331819 0.086438
H28   H     H_    0.506613 0.584980 0.712267 0.083336
H29   H     H_    0.998603 0.085145 0.294119 0.083677
H30   H     H_    0.932078 0.086399 0.669348 0.084533
H31   H     H_    0.254075 0.632532 0.822346 0.109078
H32   H     H_    0.725956 0.651109 0.175112 0.102689
H33   H     H_    0.755705 0.133314 0.820410 0.110382
H34   H     H_    0.182902 0.833839 0.173459 0.084753
H35   H     H_    0.230700 0.148826 0.172187 0.102215
H36   H     H_    0.485220 0.334665 0.175065 0.085835
H37   H     H_    0.509327 0.333429 0.824092 0.084565
H38   H     H_    0.990805 0.833191 0.174193 0.086389
H39   H     H_    0.014133 0.834595 0.823277 0.084349
H40   H     H_    0.946392 0.411988 0.348712 0.118644
H41   H     H_    0.121237 0.420688 0.490490 0.119686
H42   H     H_    0.446227 0.911291 0.350563 0.118274
H43   H     H_    0.621297 0.919908 0.490765 0.117967
H44   H     H_    0.325259 0.675478 0.178432 0.114643
H45   H     H_    0.958289 0.537252 0.339902 0.146002
H46   H     H_    0.663204 0.686219 0.822099 0.111404
H47   H     H_    0.820535 0.174570 0.175724 0.110514
H48   H     H_    0.162866 0.183636 0.819710 0.115177
H49   H     H_    0.425808 0.624846 0.175286 0.094813
H50   H     H_    0.555981 0.647538 0.827277 0.082340
H51   H     H_    0.933998 0.143031 0.170616 0.083241
H52   H     H_    0.070425 0.127278 0.823551 0.094376
H53   H     H_    0.226447 0.410479 0.679399 0.084500
H54   H     H_    0.786082 0.409607 0.253609 0.092419
H55   H     H_    0.727187 0.910404 0.679117 0.083014
H56   H     H_    0.055479 0.533990 0.517049 0.139449
H57   H     H_    0.285951 0.909432 0.254447 0.092319
H58   H     H_    0.458593 0.036289 0.340105 0.148127
H59   H     H_    0.556998 0.034023 0.516081 0.139009
H60   H     H_    0.536891 0.243487 0.826528 0.116427
N1    N     N_R   0.395440 0.396300 0.944370 -0.038307
N2    N     N_R   0.474910 0.470990 0.794360 -0.040796
N3    N     N_R   0.025090 0.970990 0.205640 -0.040658
N4    N     N_R   0.974910 0.970990 0.794360 -0.038391
N5    N     N_R   0.320240 0.527820 0.794510 -0.042786
N6    N     N_R   0.679760 0.527820 0.205490 -0.042947
N7    N     N_R   0.820240 0.027820 0.794510 -0.041401
N8    N     N_R   0.179760 0.027820 0.205490 -0.044241
N9    N     N_R   0.524580 0.527810 0.205160 -0.038778
N10   N     N_R   0.475420 0.527810 0.794840 -0.039305
N11   N     N_R   0.024580 0.027810 0.205160 -0.039324
N12   N     N_R   0.604560 0.396300 0.055630 -0.037233
N13   N     N_R   0.975420 0.027810 0.794840 -0.038134
N14   N     N_R   0.320750 0.470990 0.794990 -0.044579
N15   N     N_R   0.679250 0.470990 0.205010 -0.045713
N16   N     N_R   0.820750 0.970990 0.794990 -0.043650
N17   N     N_R   0.179250 0.970990 0.205010 -0.046629
N18   N     N_R   0.393580 0.602500 0.942610 -0.044660
N19   N     N_R   0.606420 0.602500 0.057390 -0.040909
N20   N     N_R   0.893580 0.102500 0.942610 -0.044024
N21   N     N_R   0.106420 0.102500 0.057390 -0.042125
N22   N     N_R   0.451750 0.396300 0.057540 -0.038680
N23   N     N_R   0.895440 0.896300 0.944370 -0.038043
N24   N     N_R   0.548250 0.396300 0.942460 -0.037154
N25   N     N_R   0.951750 0.896300 0.057540 -0.037911
N26   N     N_R   0.048250 0.896300 0.942460 -0.038198
N27   N     N_1   0.062853 0.623243 0.723795 -0.093186
N28   N     N_1   0.919359 0.644459 0.286166 -0.114945
N29   N     N_1   0.567177 0.129018 0.717221 -0.095075
N30   N     N_1   0.427148 0.136933 0.280547 -0.114993
N31   N     N_R   0.104560 0.896300 0.055630 -0.037541
N32   N     N_R   0.449890 0.602500 0.055780 -0.043339
N33   N     N_R   0.550110 0.602500 0.944220 -0.039676
N34   N     N_R   0.949890 0.102500 0.055780 -0.041374
N35   N     N_R   0.050110 0.102500 0.944220 -0.042305
N36   N     N_R   0.525090 0.470990 0.205640 -0.038573
Ni1   Ni    Ni4+2 0.435420 0.434250 0.870220 0.208480
Ni2   Ni    Ni4+2 0.564580 0.434250 0.129780 0.208092
Ni3   Ni    Ni4+2 0.935420 0.934250 0.870220 0.206478
Ni4   Ni    Ni4+2 0.064580 0.934250 0.129780 0.210407
Ni5   Ni    Ni4+2 0.563400 0.564580 0.128670 0.213448
Ni6   Ni    Ni4+2 0.436600 0.564580 0.871330 0.215318
Ni7   Ni    Ni4+2 0.063400 0.064580 0.128670 0.217179
Ni8   Ni    Ni4+2 0.936600 0.064580 0.871330 0.211742

loop_
_geom_bond_atom_site_label_1
_geom_bond_atom_site_label_2
_ccdc_geom_bond_type
N33   Ni6   S    
C64   H20   S    
N31   Ni4   S    
C93   N27   T    
C38   H47   S    
C79   N17   A    
C73   N11   A    
C77   H55   S    
C87   N26   A    
C19   C46   A    
C56   C81   A    
C77   N16   A    
C22   H60   S    
C3    C64   A    
C44   C45   S    
C43   C78   A    
C4    C74   A    
N22   Ni2   S    
N6    Ni5   S    
C95   N29   T    
C40   H49   S    
C13   C17   D    
N21   N35   A    
C13   H43   S    
C12   C90   A    
C35   C37   A    
C11   H42   S    
C75   H53   S    
C62   H18   S    
C18   C44   A    
C86   C91   A    
C65   N4    A    
C23   H23   S    
C4    C65   A    
C6    C14   S    
C49   C54   A    
C62   C89   A    
C29   C33   A    
C33   C36   A    
C27   C90   S    
C32   C39   A    
C48   C78   S    
N25   Ni4   S    
C19   C26   A    
C42   N34   A    
N19   Ni5   S    
C74   N13   A    
C43   H52   S    
N18   N32   A    
C3    C55   S    
C78   C83   A    
C86   H38   S    
N6    N15   A    
N1    Ni1   S    
N26   N31   A    
C7    C17   S    
C4    C57   S    
C28   C88   S    
C86   N25   A    
C59   H15   S    
N4    N13   A    
C51   C57   A    
C10   H41   S    
C69   H25   S    
C9    C10   S    
C23   N23   A    
N8    Ni7   S    
C7    C77   A    
C21   C48   A    
C63   H19   S    
C1    C88   A    
C6    C68   A    
N21   Ni7   S    
C14   H45   S    
C43   N35   A    
C8    C16   S    
N12   Ni2   S    
C87   C92   A    
C72   H28   S    
C40   C45   A    
C18   C25   A    
C94   N28   T    
N20   Ni8   S    
N15   Ni2   S    
C2    C72   A    
C42   H51   S    
C47   C67   S    
C15   H56   S    
C25   H3    S    
N34   Ni7   S    
C54   C59   A    
C25   C29   A    
N3    Ni4   S    
N18   Ni6   S    
C50   C53   A    
C37   H46   S    
C41   H50   S    
C27   C31   A    
C51   C52   A    
N2    Ni1   S    
C87   H39   S    
C28   C32   A    
N35   Ni8   S    
C96   N30   T    
C85   H37   S    
C35   H8    S    
C2    C54   S    
C1    H1    S    
N9    N36   A    
C12   H12   S    
C83   N21   A    
C5    C66   A    
C49   H9    S    
C58   C59   A    
N12   N24   A    
C84   H36   S    
C66   N5    A    
C60   C61   A    
N36   Ni2   S    
C5    C75   A    
C76   N15   A    
C9    C14   D    
N10   Ni6   S    
C41   C56   A    
C83   H35   S    
C60   H16   S    
N9    Ni5   S    
C79   H57   S    
C11   C16   D    
C70   H26   S    
N20   N34   A    
C71   C89   A    
C76   H54   S    
C53   C58   A    
N17   Ni4   S    
N8    N17   A    
C82   H33   S    
C84   N22   A    
N7    N16   A    
C36   H44   S    
C33   H7    S    
C38   C47   A    
C75   N14   A    
N13   Ni8   S    
N5    N14   A    
N5    Ni6   S    
C21   C96   S    
C20   C95   S    
C82   N20   A    
N7    Ni8   S    
C26   C30   A    
C52   H13   S    
C22   C27   A    
N4    Ni3   S    
C81   H32   S    
C53   C89   S    
C42   C67   A    
C49   C50   A    
C23   C91   A    
C36   C44   A    
C17   H59   S    
C81   N19   A    
C2    C63   A    
N2    N10   A    
C71   H27   S    
N11   Ni7   S    
C69   N7    A    
C10   C15   D    
C58   H14   S    
C72   N10   A    
C6    C76   A    
C24   C28   A    
C20   C22   A    
C30   C91   S    
C70   N8    A    
N19   N33   A    
N14   Ni1   S    
C62   N36   A    
C85   C90   A    
C52   C55   A    
C57   C61   A    
C40   N32   A    
C80   H31   S    
C68   N6    A    
C30   C35   A    
C8    C70   A    
C31   C38   A    
C41   N33   A    
N23   Ni3   S    
C1    N1    A    
C7    C69   A    
C80   N18   A    
C8    C79   A    
C32   H6    S    
C68   H24   S    
C16   H58   S    
C11   C13   S    
C74   H30   S    
C84   C88   A    
N32   Ni5   S    
C31   H5    S    
C85   N24   A    
C73   H29   S    
C64   N3    A    
N3    N11   A    
C45   C80   A    
C71   N9    A    
N1    N22   A    
C34   N31   A    
C3    C73   A    
C34   C92   A    
C5    C15   S    
C20   C47   A    
C61   H17   S    
C24   H2    S    
C9    H40   S    
C39   H48   S    
C34   H34   S    
C67   C82   A    
C51   H11   S    
C12   N12   A    
C66   H22   S    
C21   C24   A    
C46   C56   S    
C50   H10   S    
C18   C93   S    
C65   H21   S    
N16   Ni3   S    
N26   Ni3   S    
C63   N2    A    
C37   C46   A    
C55   C60   A    
C19   C94   S    
C29   C92   S    
N24   Ni1   S    
C26   H4    S    
C39   C48   A    
N23   N25   A    
