data_mof_unit_6938.cif
_audit_creation_date              2013-03-05T15:47:42-0500
_audit_creation_method            fapswitch 2.2
_symmetry_space_group_name_H-M    P1
_symmetry_Int_Tables_number       1
_space_group_crystal_system       triclinic
_cell_length_a                    8.249297
_cell_length_b                    19.071605
_cell_length_c                    22.978371
_cell_angle_alpha                 95.595963
_cell_angle_beta                  89.689172
_cell_angle_gamma                 94.762146
_cell_volume                      3585.46393909

loop_
_atom_site_label
_atom_site_type_symbol
_atom_site_description
_atom_site_fract_x
_atom_site_fract_y
_atom_site_fract_z
_atom_type_partial_charge
P1    P     P_3+3 0.067040 0.441110 0.370020 0.477068
O1    O     O_2   0.896730 0.461690 0.361000 -0.354304
O2    O     O_3   0.137170 0.462400 0.432040 -0.408396
O3    O     O_3   0.657500 0.588540 0.395070 -0.382862
O4    O     O_2   0.784197 0.544734 0.293019 -0.314876
O5    O     O_3   0.048167 0.349052 0.355333 -0.568917
O6    O     O_3   0.702641 0.675194 0.301988 -0.488142
H1    H     H_    0.648540 0.717625 0.385445 0.091772
C1    C     C_3   0.663144 0.798406 0.327366 -0.100985
H2    H     H_    0.795343 0.811551 0.334263 0.151984
P2    P     P_3+3 0.640420 0.660110 0.543790 0.468300
P3    P     P_3+3 0.100053 0.716218 0.422455 0.457949
O7    O     O_2   0.816140 0.670340 0.526560 -0.361646
O8    O     O_3   0.069580 0.624410 0.423530 -0.351252
O9    O     O_2   0.981136 0.748820 0.467442 -0.379873
O10   O     O_3   0.642862 0.681137 0.619641 -0.567161
O11   O     O_3   0.026950 0.738734 0.356149 -0.510089
C2    C     C_3   0.147333 0.733617 0.312950 0.273572
H3    H     H_    0.195297 0.680492 0.309582 0.070315
H4    H     H_    0.247269 0.775793 0.323182 0.070012
C3    C     C_3   0.068038 0.744287 0.254530 -0.391600
H5    H     H_    0.982567 0.697527 0.240686 0.254904
H6    H     H_    0.995899 0.791021 0.261242 0.224915
C4    C     C_3   0.199471 0.681420 0.593958 0.446982
H7    H     H_    0.318328 0.662299 0.581108 0.087944
H8    H     H_    0.111674 0.668533 0.557328 0.134842
C5    C     C_3   0.219422 0.761296 0.607833 -0.986077
H9    H     H_    0.312190 0.775799 0.642732 0.265631
H10   H     H_    0.258833 0.787102 0.568426 0.232168
H11   H     H_    0.101685 0.780982 0.622768 0.266438
Ba1   Ba    Ba6+2 0.850680 0.532880 0.472010 1.563155
C6    C     C_3   0.995859 0.317505 0.405179 0.435398
H12   H     H_    0.876566 0.335426 0.418787 0.086893
H13   H     H_    0.084489 0.330544 0.441488 0.132204
C7    C     C_3   0.979954 0.237784 0.389949 -0.975315
H14   H     H_    0.884529 0.223090 0.356015 0.271220
H15   H     H_    0.946618 0.210365 0.429041 0.226621
H16   H     H_    0.097680 0.219887 0.373143 0.268023
C8    C     C_3   0.695564 0.624957 0.647297 0.441708
H17   H     H_    0.815744 0.611455 0.630300 0.097773
H18   H     H_    0.606512 0.577918 0.640669 0.122486
C9    C     C_3   0.710920 0.648099 0.712464 -0.974303
H19   H     H_    0.798821 0.695482 0.719830 0.266079
H20   H     H_    0.754817 0.605553 0.736192 0.222620
H21   H     H_    0.590633 0.661145 0.730449 0.271385
P4    P     P_3+3 0.122660 0.558950 0.629980 0.472621
O12   O     O_2   0.292960 0.538340 0.639040 -0.356509
O13   O     O_3   0.052540 0.537650 0.567960 -0.401713
O14   O     O_3   0.532200 0.411510 0.604930 -0.353277
O15   O     O_3   0.143351 0.651132 0.644066 -0.567303
P5    P     P_3+3 0.099006 0.283742 0.579246 0.443771
O16   O     O_3   0.629030 0.416090 0.471500 -0.394248
O17   O     O_3   0.120120 0.375640 0.576470 -0.401719
O18   O     O_2   0.240477 0.252051 0.544114 -0.368208
O19   O     O_3   0.132944 0.264461 0.650874 -0.527524
Ba2   Ba    Ba6+2 0.339140 0.467180 0.527990 1.559397
P6    P     P_3+3 0.647766 0.589007 0.319297 0.510129
C10   C     C_3   0.616368 0.721812 0.339145 0.345687
H22   H     H_    0.483306 0.709928 0.332800 -0.062944
H23   H     H_    0.599515 0.833795 0.359419 0.067580
O20   O     O_3   0.560670 0.583970 0.528500 -0.401657
C11   C     C_3   0.503070 0.365702 0.352081 0.423629
H24   H     H_    0.380198 0.378170 0.367516 0.092815
H25   H     H_    0.590714 0.412790 0.361755 0.125005
C12   C     C_3   0.496525 0.347820 0.286147 -0.952459
H26   H     H_    0.406002 0.302178 0.274779 0.264273
H27   H     H_    0.460823 0.393823 0.264623 0.226288
H28   H     H_    0.618021 0.334334 0.269663 0.272668
P7    P     P_3+3 0.555810 0.327803 0.454226 0.440700
O21   O     O_2   0.373560 0.329680 0.473470 -0.356757
O22   O     O_3   0.552548 0.307466 0.378267 -0.569291
C13   C     C_3   0.076559 0.318582 0.689646 0.536915
H29   H     H_    0.151609 0.369051 0.686158 0.158239
H30   H     H_    0.947524 0.326020 0.680576 -0.047210
C14   C     C_3   0.090145 0.299076 0.751937 -0.973622
H31   H     H_    0.043995 0.340964 0.783120 0.223824
H32   H     H_    0.017647 0.248342 0.756757 0.245187
H33   H     H_    0.219117 0.293291 0.762765 0.290340
P8    P     P_3+3 0.544591 0.417228 0.681106 0.488614
C15   C     C_3   0.606734 0.287852 0.688721 0.310830
H34   H     H_    0.698781 0.294867 0.724278 0.050818
O23   O     O_2   0.403721 0.460307 0.704566 -0.331396
O24   O     O_3   0.485484 0.333846 0.703134 -0.514504
H35   H     H_    0.666762 0.297091 0.646276 0.057691
C16   C     C_3   0.527169 0.212098 0.683454 -0.419427
H36   H     H_    0.453738 0.203827 0.642530 0.225505
H37   H     H_    0.441912 0.204665 0.720452 0.212042
H38   H     H_    0.747172 0.460355 0.086024 0.215323
H39   H     H_    0.676160 0.448370 0.982573 0.168818
C17   C     C_R   0.338284 0.523270 0.333360 -0.484658
C18   C     C_R   0.201577 0.500711 0.926669 -0.073609
C19   C     C_R   0.156565 0.493849 0.866608 0.521003
O25   O     O_2   0.263439 0.494545 0.829676 -0.557786
N1    N     N_R   0.993402 0.485310 0.849717 -0.163184
C20   C     C_R   0.875270 0.480741 0.893334 0.516213
O26   O     O_2   0.731477 0.481106 0.881347 -0.608345
C21   C     C_R   0.918363 0.478470 0.952463 -0.041614
C22   C     C_R   0.081545 0.491380 0.969559 -0.011897
C23   C     C_R   0.363870 0.517149 0.945109 -0.082634
C24   C     C_R   0.405541 0.521367 0.004484 -0.163621
C25   C     C_R   0.287598 0.507408 0.047191 -0.041077
C26   C     C_R   0.124518 0.495175 0.029886 -0.008600
C27   C     C_R   0.800535 0.464714 0.995219 -0.157709
C28   C     C_R   0.841870 0.470510 0.054513 -0.088511
C29   C     C_R   0.004018 0.487226 0.072721 -0.064692
C30   C     C_R   0.047806 0.496485 0.132686 0.509999
N2    N     N_R   0.210725 0.502331 0.150065 -0.163803
C31   C     C_R   0.329610 0.504649 0.106555 0.513728
C32   C     C_2   0.804049 0.446818 0.766994 -0.241631
C33   C     C_3   0.738875 0.464538 0.709793 0.178685
C34   C     C_1   0.004413 0.514090 0.685884 0.284173
C35   C     C_2   0.045387 0.522390 0.742863 -0.184796
C36   C     C_2   0.945153 0.483046 0.787480 0.108528
C37   C     C_R   0.402027 0.546680 0.233914 -0.240881
C38   C     C_R   0.445943 0.550942 0.292973 0.183236
C39   C     C_R   0.193872 0.484948 0.314988 0.294841
C40   C     C_R   0.156518 0.474370 0.254748 -0.185302
C41   C     C_R   0.256093 0.507764 0.212742 0.106198
O27   O     O_2   0.939896 0.501030 0.169086 -0.560708
O28   O     O_2   0.472507 0.502200 0.118812 -0.610347
C42   C     C_2   0.873262 0.474342 0.666531 -0.502510
H40   H     H_    0.529908 0.537357 0.017327 0.166682
H41   H     H_    0.483108 0.574661 0.205479 0.202550
H42   H     H_    0.458555 0.528077 0.913756 0.212771
H43   H     H_    0.142387 0.561924 0.757592 0.177678
H44   H     H_    0.730825 0.411158 0.792388 0.189327
H45   H     H_    0.051119 0.439192 0.241316 0.182545
H46   H     H_    0.371178 0.528242 0.379171 0.172469
H47   H     H_    0.877782 0.437848 0.627399 0.166752
C43   C     C_R   0.400504 0.699597 0.470310 -0.499888
C44   C     C_R   0.540748 0.722755 0.502479 0.331236
C45   C     C_R   0.595699 0.794627 0.507582 -0.265031
C46   C     C_R   0.507036 0.844332 0.482410 0.017047
C47   C     C_R   0.360159 0.820155 0.452765 -0.310767
C48   C     C_R   0.306997 0.748042 0.447195 0.207379
C49   C     C_R   0.537630 0.964740 0.444832 -0.171394
C50   C     C_R   0.588111 0.036993 0.451712 -0.155106
C51   C     C_R   0.665927 0.068100 0.503422 0.165848
C52   C     C_R   0.695279 0.024370 0.547423 -0.190262
C53   C     C_R   0.643508 0.952225 0.540785 -0.156953
C54   C     C_R   0.563461 0.921296 0.489423 0.165457
C55   C     C_R   0.858687 0.172902 0.541161 -0.305534
C56   C     C_R   0.901795 0.246028 0.548190 0.239606
C57   C     C_R   0.660050 0.266419 0.495079 0.320960
C58   C     C_R   0.614876 0.193727 0.488542 -0.246722
C59   C     C_R   0.713065 0.145848 0.511766 0.031648
C60   C     C_R   0.799218 0.292251 0.526876 -0.496235
H48   H     H_    0.504826 0.174847 0.464506 0.142061
H49   H     H_    0.567550 0.068313 0.416036 0.130121
H50   H     H_    0.479531 0.942865 0.404192 0.138063
H51   H     H_    0.706696 0.811439 0.531707 0.155453
H52   H     H_    0.755469 0.046046 0.587675 0.121998
H53   H     H_    0.663524 0.921111 0.576630 0.119886
H54   H     H_    0.940599 0.137486 0.556999 0.151604
H55   H     H_    0.283528 0.857284 0.436386 0.150376
H56   H     H_    0.834197 0.348465 0.531127 0.160035
H57   H     H_    0.356906 0.644281 0.467490 0.167382
N3    N     N_R   0.619669 0.811539 0.268190 0.257459
O29   O     O_R   0.685625 0.778071 0.223272 -0.385653
O30   O     O_R   0.534801 0.864359 0.260366 -0.423535
C61   C     C_3   0.188370 0.758035 0.205061 -0.411727
C62   C     C_3   0.289047 0.695387 0.188253 -0.255835
C63   C     C_3   0.382854 0.704319 0.131672 -0.773534
H58   H     H_    0.297044 0.703436 0.094469 0.236332
H59   H     H_    0.460216 0.755050 0.135383 0.297456
H60   H     H_    0.462087 0.660254 0.122621 0.251109
H61   H     H_    0.376826 0.691042 0.223904 0.216862
H62   H     H_    0.207168 0.646054 0.182011 0.202318
H63   H     H_    0.116913 0.768495 0.166371 0.229324
H64   H     H_    0.269581 0.806258 0.217874 0.258159
C64   C     C_3   0.652454 0.156798 0.681007 -0.448122
C65   C     C_3   0.707296 0.142473 0.742107 -0.217531
C66   C     C_3   0.841709 0.091862 0.738122 -0.906950
H65   H     H_    0.797705 0.040621 0.713865 0.260259
H66   H     H_    0.949585 0.115055 0.715398 0.269488
H67   H     H_    0.878695 0.082046 0.782806 0.254523
H68   H     H_    0.752810 0.192544 0.767652 0.195091
H69   H     H_    0.602176 0.118651 0.765939 0.202649
H70   H     H_    0.595098 0.106618 0.658707 0.214207
H71   H     H_    0.759437 0.174218 0.654928 0.216420

loop_
_geom_bond_atom_site_label_1
_geom_bond_atom_site_label_2
_geom_bond_distance
_ccdc_geom_bond_type
C65   H68   1.109473 S    
O5    C6    1.394987 S    
C64   C65   1.533839 S    
C25   C26   1.399265 A    
C30   O27   1.220714 D    
C5    H10   1.106815 S    
C2    C3    1.534998 S    
C55   C59   1.415430 A    
C43   C48   1.396149 A    
C4    C5    1.521045 S    
Ba1   O16   2.761068 S    
C15   H35   1.114136 S    
C50   H49   1.082322 S    
C21   C22   1.399585 A    
P6    C38   1.841020 S    
C16   H36   1.112426 S    
P7    C57   1.838869 S    
C56   C60   1.394839 A    
C15   C16   1.530372 S    
C43   H57   1.081862 S    
C7    H15   1.104998 S    
C4    H8    1.109115 S    
C2    H3    1.113556 S    
C31   O28   1.219173 D    
C15   O24   1.401797 S    
C33   C42   1.497333 S    
C58   C59   1.413223 A    
O17   Ba2   2.717895 S    
C34   C42   1.321444 D    
C30   N2    1.396570 Am   
O6    C10   1.405828 S    
C52   H52   1.081322 S    
P1    Ba1   3.378525 S    
C39   C40   1.411235 A    
C26   C29   1.404752 A    
P1    O1    1.510445 D    
O2    Ba2   2.760565 S    
P7    O22   1.750536 S    
Ba1   O20   2.909378 S    
C28   C29   1.405395 A    
C11   H25   1.110692 S    
O16   P7    1.749530 S    
H1    C10   1.109886 S    
C63   H58   1.110824 S    
C45   C46   1.412368 A    
C12   H27   1.109136 S    
P3    C48   1.837685 S    
P3    O11   1.746426 S    
N2    C31   1.397913 Am   
P1    C39   1.854545 S    
C17   C39   1.390064 A    
Ba1   Ba2   4.546430 S    
C1    H2    1.107246 S    
O8    Ba1   2.717173 S    
N2    C41   1.481646 S    
C24   H40   1.080007 S    
O19   C13   1.404044 S    
P8    C33   1.863511 S    
C32   C36   1.364871 D    
C53   H53   1.082079 S    
C61   H63   1.112396 S    
C25   C31   1.416263 A    
C66   H66   1.111265 S    
P2    Ba1   3.391756 S    
C3    H5    1.111902 S    
H39   C27   1.080165 S    
C5    H11   1.110790 S    
N3    O30   1.300388 A    
C64   H70   1.110908 S    
P7    O21   1.567093 D    
C9    H20   1.106357 S    
C13   C14   1.520595 S    
C2    H4    1.112226 S    
C35   C36   1.528278 S    
H38   C28   1.080804 S    
N1    C36   1.482151 S    
C61   C62   1.528961 S    
C8    C9    1.522189 S    
C16   H37   1.112645 S    
C4    O15   1.397583 S    
P4    O13   1.545184 S    
C3    C61   1.532621 S    
C34   C35   1.345007 D    
C6    C7    1.521479 S    
C63   H60   1.110120 S    
C4    H7    1.103063 S    
C8    H18   1.110316 S    
C8    H17   1.104663 S    
C15   H34   1.109307 S    
C10   H22   1.109719 S    
C66   H65   1.111091 S    
O14   P8    1.746164 S    
O1    Ba1   2.809644 S    
P5    O17   1.754184 S    
C9    H21   1.110775 S    
C6    H13   1.108355 S    
O3    P6    1.744359 S    
C14   H31   1.110151 S    
C11   H24   1.108787 S    
C40   H45   1.080290 S    
P2    O10   1.749795 S    
C47   H55   1.082395 S    
C37   C41   1.422803 A    
P3    O9    1.543515 D    
C12   H28   1.110779 S    
P4    C34   1.842770 S    
C7    H16   1.110878 S    
C19   N1    1.394912 Am   
O11   C2    1.402698 S    
C16   C64   1.533765 S    
C17   C38   1.391853 A    
C55   H54   1.082429 S    
O2    Ba1   2.915278 S    
C60   H56   1.081992 S    
C14   H32   1.109179 S    
C35   H43   1.084578 S    
C21   C27   1.405839 A    
C62   H62   1.109607 S    
C37   H41   1.078450 S    
C13   H30   1.108985 S    
O12   Ba2   2.810386 S    
P3    O8    1.750660 S    
Ba2   O21   2.829463 S    
Ba1   O13   2.760031 S    
C3    H6    1.110226 S    
N3    O29   1.300731 A    
C64   H71   1.110298 S    
C9    H19   1.110745 S    
C61   H64   1.108320 S    
C44   C45   1.401472 A    
C57   C60   1.392661 A    
C18   C19   1.421934 A    
C58   H48   1.082228 S    
C65   C66   1.526075 S    
C62   C63   1.525995 S    
C50   C51   1.408341 A    
C66   H67   1.110289 S    
C65   H69   1.111858 S    
O13   Ba2   2.915953 S    
P4    O12   1.510721 D    
C1    C10   1.529188 S    
P1    O5    1.749343 S    
C11   C12   1.520421 S    
C63   H59   1.110223 S    
Ba2   O20   2.760479 S    
O7    Ba1   2.829195 S    
C42   H47   1.084545 S    
C13   H29   1.109826 S    
P2    O20   1.552181 S    
P2    C44   1.843186 S    
P8    O23   1.543173 D    
C49   H50   1.082358 S    
C52   C53   1.400361 A    
C20   C21   1.411936 A    
C37   C38   1.399456 A    
C47   C48   1.402259 A    
P5    C56   1.841584 S    
O14   Ba2   2.732525 S    
C29   C30   1.416909 A    
P4    O15   1.750561 S    
C46   C54   1.496126 S    
C23   C24   1.401841 A    
O4    P6    1.547639 D    
C57   C58   1.399163 A    
C1    H23   1.109578 S    
C18   C23   1.407408 A    
C6    H12   1.102129 S    
P5    O18   1.546184 D    
C43   C44   1.393088 A    
C20   O26   1.219946 D    
C22   C26   1.426207 A    
C40   C41   1.427042 A    
P8    O24   1.745946 S    
P2    O7    1.502644 D    
C46   C47   1.414083 A    
C1    N3    1.458409 S    
C51   C59   1.495403 S    
C53   C54   1.408869 A    
C19   O25   1.220563 D    
C49   C54   1.406753 A    
C11   O22   1.403747 S    
P5    O19   1.750061 S    
C18   C22   1.406336 A    
N1    C20   1.397900 Am   
C14   H33   1.110745 S    
O3    Ba1   2.733043 S    
C51   C52   1.406099 A    
O10   C8    1.397851 S    
C62   H61   1.109927 S    
C32   H44   1.083165 S    
C12   H26   1.110599 S    
P4    Ba2   3.379084 S    
C27   C28   1.397949 A    
C45   H51   1.081960 S    
C17   H46   1.081692 S    
C55   C56   1.404235 A    
C49   C50   1.400072 A    
C24   C25   1.406447 A    
C7    H14   1.110687 S    
P1    O2    1.545189 S    
C32   C33   1.501778 S    
O6    P6    1.751272 S    
O16   Ba2   2.908540 S    
C23   H42   1.081064 S    
C5    H9    1.110634 S    
