data_mof_unit_41383.cif
_audit_creation_date              2012-10-26T21:00:15-0400
_audit_creation_method            fapswitch 2.2
_symmetry_space_group_name_H-M    P1
_symmetry_Int_Tables_number       1
_space_group_crystal_system       triclinic
_cell_length_a                    19.27522
_cell_length_b                    8.682322
_cell_length_c                    7.445704
_cell_angle_alpha                 102.994976
_cell_angle_beta                  94.324802
_cell_angle_gamma                 92.33007
_cell_volume                      1208.56632584

loop_
_atom_site_label
_atom_site_type_symbol
_atom_type_description
_atom_site_fract_x
_atom_site_fract_y
_atom_site_fract_z
_atom_type_partial_charge
C1    C     C_R   0.497873 0.199679 0.453218 0.550880
C2    C     C_R   0.811734 0.427766 0.342511 -0.192021
C3    C     C_R   0.146781 0.506815 0.498404 0.043032
C4    C     C_R   0.853943 0.505252 0.501886 0.042514
C5    C     C_R   0.181548 0.581035 0.377190 0.271462
C6    C     C_R   0.823320 0.584676 0.660709 0.271212
C7    C     C_R   0.254817 0.580723 0.384237 -0.129664
C8    C     C_R   0.750187 0.585284 0.654295 -0.127927
C9    C     C_R   0.292158 0.505711 0.505390 -0.025156
C10   C     C_R   0.708406 0.504497 0.496324 -0.029110
C11   C     C_R   0.930080 0.503263 0.500310 0.360944
C12   C     C_R   0.502060 0.800313 0.546782 0.547487
C13   C     C_R   0.070492 0.504426 0.498393 0.363253
C14   C     C_3   0.166866 0.664937 0.097467 0.021753
C15   C     C_3   0.199874 0.827881 0.094662 -0.267346
C16   C     C_3   0.227732 0.828995 0.908541 -0.469309
C17   C     C_3   0.844989 0.668864 0.983640 0.022669
C18   C     C_3   0.821600 0.830609 0.081525 -0.268578
C19   C     C_3   0.798633 0.828519 0.272607 -0.468878
C20   C     C_2   0.496808 0.031755 0.426884 -0.159399
C21   C     C_2   0.503024 0.968219 0.573109 -0.159091
C22   C     C_R   0.367689 0.500955 0.502242 0.547199
C23   C     C_R   0.632468 0.501274 0.498101 0.547952
C24   C     C_R   0.257160 0.434597 0.625946 -0.167010
C25   C     C_R   0.739472 0.427152 0.339781 -0.168413
C26   C     C_R   0.184939 0.434871 0.622167 -0.188098
Cu1   Cu    Cu3+1 0.507710 0.517380 0.684380 0.946011
Cu2   Cu    Cu3+1 0.492290 0.482620 0.315620 0.945880
H1    H     H_    0.285571 0.376912 0.720902 0.126994
H2    H     H_    0.555011 0.620623 0.051176 0.237453
H3    H     H_    0.120610 0.639797 0.994839 0.193929
H4    H     H_    0.202454 0.568743 0.050232 0.111032
H5    H     H_    0.160080 0.917466 0.122210 0.188962
H6    H     H_    0.243264 0.862634 0.205268 0.161179
H7    H     H_    0.269474 0.744468 0.881347 0.164751
H8    H     H_    0.249975 0.949411 0.910503 0.149859
H9    H     H_    0.185065 0.796571 0.795611 0.174422
H10   H     H_    0.891137 0.640834 0.066517 0.195273
H11   H     H_    0.804300 0.573002 0.980583 0.111574
H12   H     H_    0.707923 0.364902 0.216241 0.139996
H13   H     H_    0.865525 0.920905 0.096710 0.191156
H14   H     H_    0.777681 0.865983 0.997213 0.157839
H15   H     H_    0.753240 0.742778 0.260367 0.157239
H16   H     H_    0.783075 0.948043 0.340137 0.154860
H17   H     H_    0.842098 0.795820 0.360706 0.179111
H18   H     H_    0.158700 0.377393 0.715274 0.137135
H19   H     H_    0.834754 0.366211 0.220172 0.135183
H20   H     H_    0.283561 0.641998 0.299380 0.116092
H21   H     H_    0.725469 0.651701 0.770609 0.117722
H22   H     H_    0.490935 0.960078 0.285997 0.133158
H23   H     H_    0.508881 0.039893 0.713996 0.133747
H24   H     H_    0.444986 0.379391 0.948817 0.236653
N1    N     N_R   0.029660 0.500297 0.340517 -0.158767
N2    N     N_R   0.970855 0.505038 0.657550 -0.159624
N3    N     N_R   0.960692 0.499436 0.341350 -0.259073
N4    N     N_R   0.039786 0.505277 0.656556 -0.257452
N5    N     N_2   0.480680 0.456420 0.038530 -0.257545
N6    N     N_2   0.519320 0.543580 0.961470 -0.257578
O1    O     O_R   0.505010 0.286130 0.619770 -0.502825
O2    O     O_3   0.866231 0.677226 0.807757 -0.551349
O3    O     O_R   0.494990 0.713870 0.380230 -0.505085
O4    O     O_R   0.491990 0.256780 0.308370 -0.496661
O5    O     O_R   0.508010 0.743220 0.691630 -0.498133
O6    O     O_R   0.406650 0.514660 0.655750 -0.504023
O7    O     O_R   0.593350 0.485340 0.344250 -0.504247
O8    O     O_R   0.393640 0.485310 0.344340 -0.502023
O9    O     O_R   0.606360 0.514690 0.655660 -0.502372
O10   O     O_3   0.143001 0.668570 0.273663 -0.550811

loop_
_geom_bond_atom_site_label_1
_geom_bond_atom_site_label_2
_ccdc_geom_bond_type
H24   N5    S    
C2    C4    A    
C19   H17   S    
C9    C24   A    
C10   C23   S    
C5    C7    A    
C14   H3    S    
C15   H6    S    
Cu2   O8    S    
C3    C13   S    
C16   H9    S    
C13   N4    A    
C7    H20   S    
C23   O7    A    
C1    O1    A    
C17   C18   S    
C25   H12   S    
Cu1   O1    S    
Cu2   N5    S    
C16   H8    S    
C4    C11   S    
C12   O3    A    
N5    N6    D    
C11   N2    A    
Cu1   O5    S    
C5    O10   S    
C6    C8    A    
H2    N6    S    
C10   C25   A    
C4    C6    A    
C19   H15   S    
Cu2   O7    S    
C2    C25   A    
C13   N1    A    
C17   H10   S    
C18   H14   S    
C16   H7    S    
C2    H19   S    
N2    N4    A    
C9    C22   S    
Cu1   O9    S    
Cu1   O6    S    
C26   H18   S    
Cu2   O3    S    
C22   O6    A    
C15   C16   S    
C12   C21   S    
C6    O2    S    
C21   H23   S    
C11   N3    A    
C19   H16   S    
C1    O4    A    
C8    C10   A    
C18   C19   S    
C17   H11   S    
C18   H13   S    
C23   O9    A    
Cu1   Cu2   S    
C7    C9    A    
C12   O5    A    
C14   O10   S    
C14   C15   S    
C22   O8    A    
C1    C20   S    
C20   H22   S    
C17   O2    S    
C20   C21   D    
C24   H1    S    
N1    N3    A    
C14   H4    S    
C8    H21   S    
C15   H5    S    
C3    C26   A    
C24   C26   A    
C3    C5    A    
Cu1   N6    S    
Cu2   O4    S    
