data_mof_unit_41682.cif
_audit_creation_date              2013-03-05T15:52:25-0500
_audit_creation_method            fapswitch 2.2
_symmetry_space_group_name_H-M    P1
_symmetry_Int_Tables_number       1
_space_group_crystal_system       triclinic
_cell_length_a                    27.799852
_cell_length_b                    10.83313
_cell_length_c                    9.573088
_cell_angle_alpha                 90.824179
_cell_angle_beta                  89.992782
_cell_angle_gamma                 92.610591
_cell_volume                      2879.73507888

loop_
_atom_site_label
_atom_site_type_symbol
_atom_site_description
_atom_site_fract_x
_atom_site_fract_y
_atom_site_fract_z
_atom_type_partial_charge
O1    O     O_R   0.500000 0.319640 0.618810 -0.543961
O2    O     O_R   0.500000 0.319660 0.381240 -0.594739
C1    C     C_R   0.504757 0.263594 0.499458 0.866193
O3    O     O_R   0.430260 0.500010 0.618770 -0.587346
O4    O     O_R   0.430270 0.500030 0.381200 -0.580032
C2    C     C_R   0.407485 0.499835 0.500004 0.802513
Cu1   Cu    Cu3+1 0.500000 0.499990 0.640660 0.948409
Cu2   Cu    Cu3+1 0.500000 0.500010 0.359340 0.935474
O5    O     O_R   0.500000 0.680340 0.618760 -0.615168
O6    O     O_R   0.500000 0.680360 0.381190 -0.599973
O7    O     O_R   0.569730 0.499970 0.618800 -0.578711
O8    O     O_R   0.569740 0.499990 0.381230 -0.606487
C3    C     C_R   0.498025 0.738091 0.502021 0.783520
C4    C     C_R   0.592516 0.500636 0.500043 0.805996
C5    C     C_R   0.175897 0.395324 0.490449 0.572650
O9    O     O_2   0.198646 0.288154 0.479286 -0.515742
N1    N     N_R   0.202142 0.504558 0.501291 -0.484963
C6    C     C_R   0.180513 0.614970 0.513926 0.575873
C7    C     C_R   0.279164 0.515235 0.626631 -0.099273
C8    C     C_R   0.329289 0.513662 0.626540 -0.209201
C9    C     C_R   0.328605 0.488687 0.374181 -0.207473
C10   C     C_R   0.278447 0.489686 0.374704 -0.097025
C11   C     C_R   0.253655 0.503192 0.500831 0.345081
C12   C     C_R   0.102004 0.506349 0.503677 -0.124150
C13   C     C_R   0.125473 0.394055 0.491552 -0.096535
C14   C     C_R   0.098330 0.282452 0.484743 -0.183610
C15   C     C_R   0.129742 0.618836 0.515646 -0.046548
C16   C     C_R   0.354503 0.500597 0.500208 -0.040702
H1    H     H_    0.347029 0.478243 0.275320 0.156796
H2    H     H_    0.258798 0.480326 0.277184 0.139459
H3    H     H_    0.115727 0.194935 0.482645 0.213357
C17   C     C_R   0.645504 0.502008 0.500156 -0.031136
C18   C     C_R   0.972746 0.394955 0.470053 0.054468
C19   C     C_R   0.976467 0.615648 0.536920 0.067084
C20   C     C_R   0.949326 0.505217 0.503374 0.065582
C21   C     C_R   0.944433 0.292520 0.418559 -0.128370
C22   C     C_R   0.894478 0.294076 0.414643 -0.169661
C23   C     C_R   0.870911 0.398892 0.458913 -0.020708
C24   C     C_R   0.898241 0.505282 0.501967 -0.050047
C25   C     C_R   0.874427 0.611888 0.542956 -0.022247
C26   C     C_R   0.823887 0.609513 0.542110 0.536991
N2    N     N_R   0.798061 0.504891 0.500516 -0.469931
C27   C     C_R   0.820451 0.400721 0.458763 0.544402
C28   C     C_R   0.721223 0.504796 0.626940 -0.104131
C29   C     C_R   0.671044 0.503462 0.626999 -0.199845
C30   C     C_R   0.671097 0.502212 0.373449 -0.222750
C31   C     C_R   0.721269 0.503233 0.373740 -0.100287
C32   C     C_R   0.746475 0.504442 0.500396 0.355658
O10   O     O_2   0.793936 0.298960 0.418401 -0.528534
C33   C     C_R   0.023587 0.392286 0.484717 -0.066187
C34   C     C_R   0.050878 0.505581 0.504330 0.002378
C35   C     C_R   0.027455 0.617818 0.525566 0.029561
C36   C     C_R   0.048363 0.280608 0.483693 0.566755
H4    H     H_    0.652326 0.503474 0.726236 0.164840
H5    H     H_    0.740543 0.505509 0.725188 0.142264
H6    H     H_    0.874398 0.212709 0.375614 0.194826
H7    H     H_    0.960035 0.211597 0.374268 0.216190
O11   O     O_2   0.208282 0.720107 0.524572 -0.450397
C37   C     C_R   0.106198 0.731141 0.528091 0.453815
H8    H     H_    0.348242 0.523221 0.725209 0.158281
H9    H     H_    0.260071 0.525574 0.724405 0.139564
C38   C     C_R   0.951486 0.720250 0.581086 -0.194854
C39   C     C_R   0.901459 0.718081 0.584199 -0.138200
O12   O     O_2   0.800712 0.711174 0.581346 -0.533811
C40   C     C_R   0.055745 0.729228 0.532979 -0.295315
H10   H     H_    0.969660 0.804524 0.617952 0.161866
H11   H     H_    0.652425 0.501538 0.274129 0.164497
H12   H     H_    0.884038 0.800611 0.618702 0.193976
H13   H     H_    0.740635 0.503364 0.275583 0.142205
H14   H     H_    0.039322 0.817357 0.537961 0.158398
H15   H     H_    0.494326 0.108184 0.279067 0.164913
C41   C     C_R   0.544399 0.126169 0.742329 0.435937
C42   C     C_R   0.540075 0.070972 0.873979 -0.244284
H16   H     H_    0.556233 0.115217 0.965816 0.138290
C43   C     C_R   0.514201 0.959206 0.888028 -0.194489
H17   H     H_    0.508799 0.919924 0.990539 0.162674
C44   C     C_R   0.497260 0.894756 0.769683 -0.170317
H18   H     H_    0.476462 0.810123 0.787819 0.182246
C45   C     C_R   0.505061 0.943072 0.634374 0.027414
C46   C     C_R   0.520828 0.068170 0.625080 0.061746
C47   C     C_R   0.511291 0.130489 0.499487 -0.092238
C48   C     C_R   0.500216 0.062766 0.377308 -0.222249
H19   H     H_    0.489474 0.885538 0.282662 0.165025
C49   C     C_R   0.495794 0.935398 0.380356 -0.199297
C50   C     C_R   0.497609 0.873569 0.507673 -0.086841
H20   H     H_    0.445210 0.360815 0.127164 0.138383
C51   C     C_R   0.564785 0.662960 0.146586 -0.164407
H21   H     H_    0.567697 0.671849 0.256733 0.202321
C52   C     C_R   0.596729 0.741454 0.075264 -0.220301
H22   H     H_    0.621476 0.803589 0.132410 0.166019
C53   C     C_R   0.596785 0.741018 0.931374 -0.189973
H23   H     H_    0.621423 0.803163 0.875860 0.168957
C54   C     C_R   0.564742 0.662490 0.857996 -0.157917
H24   H     H_    0.567017 0.671993 0.748085 0.201315
C55   C     C_R   0.531834 0.579975 0.926302 0.192030
C56   C     C_R   0.531834 0.580045 0.076044 0.208230
N3    N     N_R   0.500460 0.501210 0.147910 -0.197716
C57   C     C_R   0.469875 0.423484 0.072736 -0.073782
H25   H     H_    0.445239 0.360848 0.868176 0.141398
C58   C     C_R   0.469890 0.423520 0.924666 -0.058041
N4    N     N_R   0.500480 0.501290 0.852040 -0.197622
O13   O     O_3   0.132776 0.842195 0.535167 -0.651171
H26   H     H_    0.110859 0.911576 0.544157 0.335794
O14   O     O_3   0.574114 0.230550 0.724235 -0.719730
H27   H     H_    0.587545 0.258402 0.815974 0.318791
F1    F     F_    0.025287 0.168129 0.494366 -0.691978

loop_
_geom_bond_atom_site_label_1
_geom_bond_atom_site_label_2
_geom_bond_distance
_ccdc_geom_bond_type
C28   C32   1.400090 A    
C51   H21   1.060227 S    
C54   H24   1.060285 S    
C55   C56   1.433480 A    
C26   N2    1.368029 A    
C20   C24   1.420279 A    
C7    C8    1.394354 A    
C12   C15   1.415310 A    
Cu2   N3    2.024302 S    
C47   C48   1.398531 A    
Cu1   Cu2   2.693104 S    
C44   H18   1.077620 S    
Cu1   O7    1.949730 S    
N1    C11   1.432790 S    
C25   C39   1.397240 A    
C21   C22   1.390126 A    
C23   C24   1.407870 A    
O7    C4    1.301305 A    
C5    C13   1.401269 A    
C5    O9    1.350014 S    
C19   C38   1.415259 A    
C18   C21   1.413764 A    
Cu1   O5    1.967967 S    
C19   C20   1.417869 A    
C17   C29   1.406231 A    
O5    C3    1.290965 A    
C31   H13   1.082889 S    
C19   C35   1.420740 A    
C30   C31   1.394331 A    
C22   H6    1.083469 S    
C36   F1    1.356119 S    
C6    O11   1.349122 S    
C2    C16   1.473284 S    
C31   C32   1.400076 A    
C1    C47   1.461530 S    
C8    H8    1.082995 S    
C53   H23   1.083043 S    
C41   C42   1.405500 A    
H15   C48   1.083543 S    
C12   C34   1.420943 A    
C14   H3    1.083691 S    
C54   C55   1.416232 A    
C9    C10   1.394919 A    
C51   C56   1.417646 A    
C42   C43   1.388074 A    
O3    Cu1   1.950093 S    
O14   H27   0.991927 S    
N3    C57   1.366498 A    
C44   C45   1.417030 A    
C42   H16   1.082961 S    
C33   C36   1.419057 A    
C38   H10   1.077989 S    
C34   C35   1.417280 A    
C12   C13   1.409700 A    
O3    C2    1.301368 A    
C21   H7    1.077179 S    
C24   C25   1.408013 A    
C27   O10   1.349704 S    
C8    C16   1.406380 A    
C33   C34   1.423307 A    
C18   C33   1.422000 A    
C9    H1    1.083012 S    
O1    C1    1.295729 A    
C7    C11   1.399112 A    
C43   H17   1.082977 S    
C22   C23   1.397137 A    
C53   C54   1.387300 A    
H19   C49   1.083578 S    
Cu2   O8    1.950088 S    
C56   N3    1.382862 A    
C38   C39   1.390197 A    
N1    C6    1.366817 A    
N2    C32   1.433881 S    
C49   C50   1.401167 A    
C43   C44   1.392925 A    
C25   C26   1.404107 A    
C9    C16   1.406361 A    
O8    C4    1.301611 A    
C29   H4    1.083123 S    
C48   C49   1.380398 A    
C51   C52   1.387668 A    
C52   C53   1.377404 A    
N2    C27   1.368067 A    
C14   C36   1.388353 A    
C45   C50   1.428482 A    
C28   C29   1.394380 A    
C5    N1    1.364282 A    
C39   H12   1.083475 S    
C10   H2    1.082849 S    
O1    Cu1   1.961926 S    
C37   O13   1.383681 S    
C17   C30   1.406140 A    
O2    Cu2   1.967968 S    
C6    C15   1.414054 A    
C4    C17   1.472471 S    
C46   C47   1.418222 A    
O6    C3    1.309376 A    
O4    Cu2   1.949733 S    
C41   O14   1.382592 S    
C57   C58   1.417498 A    
H25   C58   1.081756 S    
O2    C1    1.301649 A    
C13   C14   1.396412 A    
C30   H11   1.083101 S    
C41   C46   1.423523 A    
C15   C37   1.411043 A    
C37   C40   1.402602 A    
C28   H5    1.082903 S    
O4    C2    1.301721 A    
C7    H9    1.082878 S    
C58   N4    1.366662 A    
C18   C20   1.418537 A    
O13   H26   0.991679 S    
H20   C57   1.081779 S    
C45   C46   1.409240 A    
C55   N4    1.380871 A    
C23   C27   1.403835 A    
Cu2   O6    1.961926 S    
Cu1   N4    2.023448 S    
C3    C50   1.468450 S    
C10   C11   1.399358 A    
C26   O12   1.349686 S    
C52   H22   1.083045 S    
C35   C40   1.411131 A    
C40   H14   1.077301 S    
