data_mof_unit_47548.cif
_audit_creation_date              2012-10-26T20:15:01-0400
_audit_creation_method            fapswitch 2.2
_symmetry_space_group_name_H-M    P1
_symmetry_Int_Tables_number       1
_space_group_crystal_system       triclinic
_cell_length_a                    17.764018
_cell_length_b                    9.105825
_cell_length_c                    7.781934
_cell_angle_alpha                 89.981263
_cell_angle_beta                  89.766077
_cell_angle_gamma                 90.244431
_cell_volume                      1258.75280086

loop_
_atom_site_label
_atom_site_type_symbol
_atom_type_description
_atom_site_fract_x
_atom_site_fract_y
_atom_site_fract_z
_atom_type_partial_charge
C1    C     C_R   0.499700 0.219981 0.500007 0.606761
C2    C     C_R   0.847846 0.625341 0.473437 0.031682
C3    C     C_R   0.763686 0.368549 0.549433 -0.079338
C4    C     C_R   0.230470 0.587022 0.392438 0.018124
C5    C     C_R   0.234139 0.398622 0.618685 0.012496
C6    C     C_R   0.768459 0.627466 0.462059 0.008193
C7    C     C_R   0.726869 0.498661 0.499326 -0.039597
C8    C     C_R   0.272072 0.494228 0.502916 -0.043949
C9    C     C_R   0.884344 0.495100 0.524585 -0.027748
C10   C     C_R   0.113813 0.490192 0.515529 -0.054587
C11   C     C_1   0.965322 0.490085 0.525192 0.107423
C12   C     C_R   0.500086 0.780017 0.499989 0.578541
C13   C     C_1   0.032824 0.488909 0.522413 0.084197
C14   C     C_2   0.882313 0.227351 0.602211 0.607937
C15   C     C_2   0.106340 0.683826 0.285983 0.649127
C16   C     C_2   0.114186 0.300786 0.749373 0.646900
C17   C     C_2   0.893272 0.756851 0.424300 0.660414
C18   C     C_2   0.719050 0.234110 0.590843 0.615894
C19   C     C_2   0.269916 0.689964 0.273622 0.638638
C20   C     C_2   0.277431 0.297441 0.730793 0.634823
C21   C     C_2   0.728644 0.766726 0.422936 0.606752
C22   C     C_1   0.499778 0.065320 0.499995 0.027567
C23   C     C_1   0.499930 0.934649 0.499976 0.003471
C24   C     C_R   0.355249 0.498576 0.500494 0.591778
C25   C     C_R   0.644372 0.502277 0.499644 0.581046
C26   C     C_R   0.842760 0.366633 0.561225 -0.060722
C27   C     C_R   0.150989 0.583741 0.397826 -0.034840
C28   C     C_R   0.154766 0.398272 0.626347 0.039939
Cu1   Cu    Cu3+1 0.500000 0.500000 0.669080 1.126571
Cu2   Cu    Cu3+1 0.500000 0.500000 0.330920 1.137802
H1    H     H_    0.840164 0.121089 0.396080 0.340602
H2    H     H_    0.050091 0.518005 0.170773 0.317856
H3    H     H_    0.040235 0.284793 0.945847 0.371617
H4    H     H_    0.980286 0.891720 0.480106 0.397126
H5    H     H_    0.759306 0.219257 0.832562 0.322050
H6    H     H_    0.346768 0.851960 0.244792 0.349366
H7    H     H_    0.354764 0.136571 0.746365 0.347932
H8    H     H_    0.653135 0.873019 0.276022 0.354968
N1    N     N_1   0.500000 0.500000 0.076820 -0.060803
N2    N     N_1   0.500000 0.500000 0.923180 -0.064115
O1    O     O_R   0.500000 0.288390 0.642760 -0.490786
O2    O     O_R   0.872343 0.102319 0.500964 -0.587246
O3    O     O_2   0.117223 0.816186 0.292554 -0.388923
O4    O     O_R   0.051962 0.629169 0.173195 -0.596046
O5    O     O_2   0.126209 0.168637 0.749617 -0.417021
O6    O     O_R   0.062740 0.361105 0.865618 -0.642033
O7    O     O_2   0.879469 0.822682 0.291159 -0.425024
O8    O     O_R   0.952437 0.803725 0.529176 -0.611196
O9    O     O_2   0.676139 0.183415 0.483894 -0.466434
O10   O     O_R   0.725462 0.164165 0.750018 -0.588823
O11   O     O_2   0.254987 0.689462 0.120328 -0.444054
O12   O     O_R   0.500000 0.711610 0.357240 -0.488805
O13   O     O_R   0.323765 0.787773 0.337815 -0.670103
O14   O     O_2   0.267881 0.299398 0.886526 -0.454708
O15   O     O_R   0.328892 0.199930 0.657405 -0.675847
O16   O     O_2   0.741996 0.876730 0.507643 -0.412801
O17   O     O_R   0.676349 0.772153 0.289452 -0.656651
O18   O     O_R   0.500000 0.711610 0.642760 -0.494756
O19   O     O_R   0.500000 0.288390 0.357240 -0.494828
O20   O     O_R   0.391250 0.500000 0.642840 -0.483322
O21   O     O_R   0.608750 0.500000 0.357160 -0.456829
O22   O     O_R   0.608750 0.500000 0.642840 -0.503338
O23   O     O_R   0.391250 0.500000 0.357160 -0.482712
O24   O     O_2   0.924064 0.221508 0.726055 -0.419611

loop_
_geom_bond_atom_site_label_1
_geom_bond_atom_site_label_2
_ccdc_geom_bond_type
C10   C27   A    
C16   C28   S    
C21   O16   D    
C17   O8    S    
C21   O17   S    
C6    C7    A    
H1    O2    S    
C10   C28   A    
C5    C8    A    
C5    C28   A    
C11   C13   T    
C15   C27   S    
C7    C25   S    
Cu1   O20   S    
C4    C8    A    
C24   O20   A    
C14   O24   D    
Cu2   O19   S    
C19   O13   S    
H5    O10   S    
H2    O4    S    
C15   O3    D    
C1    C22   S    
C5    C20   S    
C25   O21   A    
C14   O2    S    
C14   C26   S    
C2    C17   S    
H3    O6    S    
C9    C11   S    
C12   C23   S    
C2    C6    A    
Cu1   O1    S    
C12   O18   A    
C20   O15   S    
Cu1   N2    S    
C1    O1    A    
C12   O12   A    
C9    C26   A    
C24   O23   A    
C3    C7    A    
C25   O22   A    
C1    O19   A    
C15   O4    S    
C2    C9    A    
H4    O8    S    
C16   O5    D    
Cu1   Cu2   S    
H8    O17   S    
C19   O11   D    
N1    N2    T    
C4    C27   A    
Cu1   O18   S    
C18   O10   S    
C3    C18   S    
C20   O14   D    
Cu2   O21   S    
C16   O6    S    
Cu2   N1    S    
C3    C26   A    
Cu2   O12   S    
Cu1   O22   S    
H6    O13   S    
C8    C24   S    
Cu2   O23   S    
C4    C19   S    
C22   C23   T    
C17   O7    D    
C18   O9    D    
C6    C21   S    
C10   C13   S    
H7    O15   S    
