data_mof_unit_17427.cif
_audit_creation_date              2013-03-05T15:49:32-0500
_audit_creation_method            fapswitch 2.2
_symmetry_space_group_name_H-M    P1
_symmetry_Int_Tables_number       1
_space_group_crystal_system       triclinic
_cell_length_a                    10.513994
_cell_length_b                    12.070239
_cell_length_c                    12.826048
_cell_angle_alpha                 91.372591
_cell_angle_beta                  90.297456
_cell_angle_gamma                 83.016504
_cell_volume                      1615.16438027

loop_
_atom_site_label
_atom_site_type_symbol
_atom_site_description
_atom_site_fract_x
_atom_site_fract_y
_atom_site_fract_z
_atom_type_partial_charge
O1    O     O_R   0.506170 0.421700 0.658830 -0.550700
O2    O     O_R   0.493830 0.578300 0.341170 -0.550662
O3    O     O_R   0.491330 0.609310 0.646410 -0.629358
O4    O     O_R   0.508670 0.390690 0.353590 -0.629343
C1    C     C_R   0.498982 0.520850 0.700081 0.931979
C2    C     C_R   0.501013 0.479149 0.299919 0.931945
O5    O     O_R   0.690650 0.406190 0.506220 -0.579570
O6    O     O_R   0.309350 0.593810 0.493780 -0.579675
O7    O     O_R   0.675800 0.593810 0.493800 -0.617859
O8    O     O_R   0.324200 0.406190 0.506200 -0.617907
C3    C     C_R   0.741277 0.495007 0.486249 0.912298
C4    C     C_R   0.258720 0.504993 0.513742 0.912234
Zn1   Zn    Zn3+2 0.509910 0.374730 0.508290 1.074893
Zn2   Zn    Zn3+2 0.490090 0.625270 0.491710 1.074887
C5    C     C_R   0.929140 0.281988 0.509126 0.222413
C6    C     C_R   0.070876 0.718009 0.490811 0.222357
C7    C     C_R   0.988447 0.207060 0.583253 0.302318
C8    C     C_R   0.011591 0.792920 0.416659 0.302389
C9    C     C_R   0.083613 0.240657 0.649816 0.288310
C10   C     C_R   0.916411 0.759319 0.350112 0.288356
C11   C     C_R   0.125641 0.345468 0.638474 0.278677
C12   C     C_R   0.874357 0.654523 0.361487 0.278652
C13   C     C_R   0.068979 0.418954 0.562420 -0.128042
C14   C     C_R   0.931015 0.581047 0.437551 -0.128031
C15   C     C_R   0.958284 0.394112 0.510920 -0.152671
C16   C     C_R   0.041717 0.605889 0.489042 -0.152667
C17   C     C_R   0.120644 0.516380 0.534958 0.030292
C18   C     C_R   0.879350 0.483623 0.465017 0.030269
C19   C     C_R   0.510317 0.466176 0.189566 -0.060705
C20   C     C_R   0.489668 0.533817 0.810433 -0.060750
C21   C     C_R   0.375292 0.614523 0.960970 -0.082703
C22   C     C_R   0.624681 0.385457 0.039027 -0.082727
C23   C     C_R   0.395148 0.612437 0.854384 -0.087541
C24   C     C_R   0.604835 0.387552 0.145614 -0.087482
C25   C     C_R   0.569342 0.461737 0.871509 -0.149683
C26   C     C_R   0.430630 0.538242 0.128487 -0.149624
C27   C     C_R   0.549224 0.461701 0.977504 0.145319
C28   C     C_R   0.450746 0.538276 0.022491 0.145324
H1    H     H_    0.354128 0.594696 0.163743 0.207187
H2    H     H_    0.645840 0.405279 0.836250 0.207191
H3    H     H_    0.665791 0.331009 0.194037 0.221263
H4    H     H_    0.334196 0.668985 0.805962 0.221236
H5    H     H_    0.300556 0.674093 0.994909 0.198563
H6    H     H_    0.699416 0.325886 0.005088 0.198570
N1    N     N_R   0.523130 0.207800 0.519340 -0.164356
N2    N     N_R   0.476870 0.792200 0.480660 -0.164408
C29   C     C_R   0.428966 0.958558 0.375434 0.197275
C30   C     C_R   0.570967 0.041450 0.624560 0.197312
C31   C     C_R   0.428279 0.842492 0.390857 0.412698
C32   C     C_R   0.571733 0.157497 0.609135 0.412643
C33   C     C_R   0.525204 0.856518 0.556596 0.022545
C34   C     C_R   0.474719 0.143503 0.443425 0.022529
C35   C     C_R   0.523782 0.974264 0.546032 -0.106379
C36   C     C_R   0.476143 0.025751 0.453969 -0.106348
H7    H     H_    0.432967 0.184878 0.375401 0.190754
H8    H     H_    0.566895 0.815173 0.624658 0.190701
Cl1   Cl    Cl    0.845400 0.850735 0.254698 -0.317587
Cl2   Cl    Cl    0.154641 0.149219 0.745205 -0.317651
N3    N     N_R   0.383449 0.006758 0.278785 0.227118
O9    O     O_R   0.460968 0.052917 0.219339 -0.295158
O10   O     O_R   0.268264 0.996254 0.245753 -0.232515
N4    N     N_R   0.616476 0.993247 0.721194 0.227104
O11   O     O_R   0.538847 0.947465 0.780844 -0.294715
O12   O     O_R   0.732087 0.002903 0.753764 -0.232869
N5    N     N_R   0.854536 0.242667 0.424011 0.266286
O13   O     O_R   0.786716 0.160543 0.434750 -0.305787
O14   O     O_R   0.858215 0.287120 0.332797 -0.358576
N6    N     N_R   0.145464 0.757350 0.575928 0.266321
O15   O     O_R   0.141790 0.712900 0.667144 -0.358496
O16   O     O_R   0.213250 0.839498 0.565195 -0.305842
Cl3   Cl    Cl    0.941275 0.073091 0.598956 -0.333291
Cl4   Cl    Cl    0.058811 0.926865 0.400896 -0.333479
Cl5   Cl    Cl    0.233743 0.390951 0.731313 -0.503894
Cl6   Cl    Cl    0.766237 0.609035 0.268666 -0.503831
N7    N     N_R   0.619166 0.222552 0.691629 0.235785
O17   O     O_R   0.573001 0.218563 0.785241 -0.317689
O18   O     O_R   0.721568 0.270652 0.677722 -0.391903
N8    N     N_R   0.380983 0.777397 0.308336 0.235901
O19   O     O_R   0.278489 0.729387 0.322120 -0.391898
O20   O     O_R   0.427411 0.781245 0.214799 -0.317521

loop_
_geom_bond_atom_site_label_1
_geom_bond_atom_site_label_2
_geom_bond_distance
_ccdc_geom_bond_type
O7    Zn2   1.943458 S    
Zn2   N2    2.011105 S    
C35   C36   1.408785 A    
C15   C18   1.417753 A    
O5    C3    1.285133 A    
N2    C31   1.381364 A    
C16   C17   1.417780 A    
N4    O11   1.301260 A    
C21   H5    1.084015 S    
C20   C25   1.385979 A    
O1    C1    1.290724 A    
C23   H4    1.082634 S    
C3    C18   1.467748 S    
C9    C11   1.400822 A    
C14   C16   1.395777 A    
N8    O20   1.301544 A    
C5    C15   1.423126 A    
C5    N5    1.445379 S    
C11   Cl5   1.765643 S    
C31   N8    1.426373 S    
C33   H8    1.080274 S    
O4    Zn1   1.997930 S    
N4    O12   1.300947 A    
N6    O15   1.301411 A    
N5    O14   1.301408 A    
C21   C23   1.383156 A    
C6    N6    1.445390 S    
C13   C17   1.406827 A    
C34   H7    1.080243 S    
C30   C32   1.420301 A    
N3    O9    1.301242 A    
C8    Cl4   1.764408 S    
O2    C2    1.290738 A    
C24   H3    1.082630 S    
C34   C36   1.429197 A    
C9    Cl2   1.768458 S    
C6    C16   1.423144 A    
C30   C35   1.404182 A    
N3    O10   1.300639 A    
C4    C17   1.467739 S    
O4    C2    1.278331 A    
N8    O19   1.298872 A    
N1    C34   1.365339 A    
N2    C33   1.365323 A    
C33   C35   1.429158 A    
C22   C24   1.383156 A    
N7    O17   1.301543 A    
C27   C28   1.416763 A    
N7    O18   1.298860 A    
C30   N4    1.436791 S    
C19   C26   1.385977 A    
O6    C4    1.285117 A    
C22   H6    1.084015 S    
C22   C27   1.396338 A    
O7    C3    1.304246 A    
O3    Zn2   1.997931 S    
O8    C4    1.304255 A    
C29   C36   1.404272 A    
C6    C8    1.417263 A    
C10   C12   1.400824 A    
C7    Cl3   1.764377 S    
C11   C13   1.414264 A    
C12   C14   1.414262 A    
O1    Zn1   1.998502 S    
C12   Cl6   1.765637 S    
C1    C20   1.422844 S    
C5    C7    1.417255 A    
O6    Zn2   1.983057 S    
C20   C23   1.398858 A    
C25   C27   1.376962 A    
C26   H1    1.082362 S    
C14   C18   1.406827 A    
O3    C1    1.278340 A    
O8    Zn1   1.943457 S    
C29   C31   1.420415 A    
C21   C28   1.396340 A    
C26   C28   1.376963 A    
C25   H2    1.082368 S    
C32   N7    1.426448 S    
Zn1   N1    2.011104 S    
N1    C32   1.381363 A    
C19   C24   1.398860 A    
C7    C9    1.402743 A    
C8    C10   1.402746 A    
C13   C15   1.395765 A    
O2    Zn2   1.998501 S    
C29   N3    1.436959 S    
O5    Zn1   1.983057 S    
C2    C19   1.422857 S    
N6    O16   1.299788 A    
N5    O13   1.299790 A    
C10   Cl1   1.768459 S    
