data_mof_unit_60730.cif
_audit_creation_date              2013-03-05T16:09:42-0500
_audit_creation_method            fapswitch 2.2
_symmetry_space_group_name_H-M    P1
_symmetry_Int_Tables_number       1
_space_group_crystal_system       triclinic
_cell_length_a                    10.671074
_cell_length_b                    12.760129
_cell_length_c                    13.899715
_cell_angle_alpha                 97.917309
_cell_angle_beta                  90.27231
_cell_angle_gamma                 92.8066
_cell_volume                      1872.22877828

loop_
_atom_site_label
_atom_site_type_symbol
_atom_site_description
_atom_site_fract_x
_atom_site_fract_y
_atom_site_fract_z
_atom_type_partial_charge
O1    O     O_R   0.492210 0.399110 0.356330 -0.548007
O2    O     O_R   0.507790 0.600890 0.643670 -0.548008
O3    O     O_R   0.505820 0.575890 0.366540 -0.586919
O4    O     O_R   0.494180 0.424110 0.633460 -0.586919
C1    C     C_R   0.498728 0.483589 0.315854 0.846729
C2    C     C_R   0.501272 0.516411 0.684146 0.846729
O5    O     O_R   0.310050 0.411620 0.494870 -0.557595
O6    O     O_R   0.689950 0.588380 0.505130 -0.557595
O7    O     O_R   0.323660 0.588400 0.505080 -0.587632
O8    O     O_R   0.676340 0.411600 0.494920 -0.587632
C3    C     C_R   0.259161 0.500595 0.499217 0.872892
C4    C     C_R   0.740839 0.499405 0.500783 0.872892
Cu1   Cu    Cu3+1 0.491940 0.395330 0.493960 1.029133
Cu2   Cu    Cu3+1 0.508060 0.604670 0.506040 1.029133
C5    C     C_3   0.035882 0.450406 0.416442 0.401041
C6    C     C_3   0.964118 0.549594 0.583558 0.401041
C7    C     C_3   0.958228 0.549464 0.426858 -0.274156
C8    C     C_3   0.041772 0.450536 0.573142 -0.274156
H1    H     H_    0.922518 0.588124 0.366068 0.177943
H2    H     H_    0.077482 0.411876 0.633932 0.177944
C9    C     C_3   0.876916 0.498561 0.501102 -0.131788
C10   C     C_3   0.123084 0.501439 0.498898 -0.131788
C11   C     C_3   0.953402 0.398213 0.488609 -0.235341
C12   C     C_3   0.046598 0.601786 0.511391 -0.235341
C13   C     C_1   0.502545 0.525771 0.787487 -0.102573
C14   C     C_1   0.497455 0.474229 0.212513 -0.102573
C15   C     C_2   0.505158 0.543439 0.978381 -0.138619
C16   C     C_2   0.494841 0.456561 0.021619 -0.138619
C17   C     C_1   0.496218 0.465694 0.125448 0.048438
C18   C     C_1   0.503782 0.534306 0.874552 0.048438
N1    N     N_1   0.479830 0.238040 0.484880 -0.153347
N2    N     N_1   0.520170 0.761960 0.515120 -0.153347
C19   C     C_2   0.464270 0.028391 0.473527 -0.250380
C20   C     C_2   0.535730 0.971609 0.526473 -0.250379
C21   C     C_1   0.525662 0.854536 0.519128 0.241551
C22   C     C_1   0.474338 0.145463 0.480872 0.241551
H3    H     H_    0.604584 0.013508 0.577378 0.172402
H4    H     H_    0.395416 0.986492 0.422622 0.172402
N3    N     N_R   0.073277 0.395628 0.322772 0.127121
O9    O     O_R   0.987784 0.354346 0.259958 -0.338889
O10   O     O_R   0.191063 0.390132 0.300136 -0.365426
N4    N     N_R   0.926723 0.604372 0.677227 0.127121
O11   O     O_R   0.012216 0.645654 0.740042 -0.338889
O12   O     O_R   0.808937 0.609868 0.699863 -0.365426
H5    H     H_    0.914401 0.315110 0.477793 0.184855
H6    H     H_    0.085599 0.684890 0.522207 0.184855
H7    H     H_    0.485319 0.378281 0.979354 0.168567
H8    H     H_    0.514681 0.621719 0.020646 0.168567

loop_
_geom_bond_atom_site_label_1
_geom_bond_atom_site_label_2
_geom_bond_distance
_ccdc_geom_bond_type
C15   H8    1.086743 S    
O7    Cu2   1.968321 S    
C16   H7    1.086743 S    
C6    C9    1.525916 S    
C11   H5    1.110202 S    
C20   H3    1.085678 S    
C3    C10   1.452649 S    
C19   H4    1.085677 S    
O6    C4    1.276447 A    
C15   C16   1.332100 D    
C12   H6    1.110202 S    
C5    C11   1.536043 S    
C19   C20   1.357845 D    
C6    C12   1.536042 S    
Cu1   Cu2   2.650339 S    
C15   C18   1.431745 S    
O5    C3    1.276447 A    
O7    C3    1.278459 A    
C5    N3    1.457563 S    
O2    C2    1.281973 A    
O3    Cu2   1.922947 S    
N4    O12   1.300011 A    
O1    C1    1.281974 A    
O8    C4    1.278459 A    
O4    C2    1.285071 A    
C16   C17   1.431745 S    
C7    H1    1.110282 S    
C8    H2    1.110281 S    
C9    C11   1.542177 S    
O2    Cu2   1.920267 S    
C10   C12   1.542177 S    
C7    C12   1.557974 S    
O1    Cu1   1.920268 S    
N4    O11   1.300285 A    
C1    C14   1.424821 S    
C2    C13   1.424821 S    
N2    C21   1.173473 T    
C6    N4    1.457565 S    
O5    Cu1   1.962070 S    
C19   C22   1.481805 S    
N3    O10   1.300011 A    
C14   C17   1.199991 T    
C6    C8    1.535773 S    
C20   C21   1.481804 S    
N3    O9    1.300285 A    
C5    C7    1.535773 S    
N1    C22   1.173473 T    
C13   C18   1.199991 T    
O6    Cu2   1.962069 S    
C8    C10   1.541976 S    
C4    C9    1.452649 S    
Cu1   N1    1.991357 S    
C5    C10   1.525916 S    
C7    C9    1.541976 S    
C8    C11   1.557974 S    
O4    Cu1   1.922946 S    
Cu2   N2    1.991357 S    
O3    C1    1.285071 A    
O8    Cu1   1.968320 S    
