data_mof_unit_63567.cif
_audit_creation_date              2012-12-10T19:43:01-0500
_audit_creation_method            fapswitch 2.2
_symmetry_space_group_name_H-M    P1
_symmetry_Int_Tables_number       1
_space_group_crystal_system       triclinic
_cell_length_a                    31.307404
_cell_length_b                    30.191741
_cell_length_c                    22.35141
_cell_angle_alpha                 89.993782
_cell_angle_beta                  45.833872
_cell_angle_gamma                 90.024387
_cell_volume                      15154.9519574

loop_
_atom_site_label
_atom_site_type_symbol
_atom_type_description
_atom_site_fract_x
_atom_site_fract_y
_atom_site_fract_z
_atom_type_partial_charge
C1    C     C_R   0.190109 0.189288 0.501037 0.876467
C2    C     C_R   0.809974 0.189294 0.498798 0.879089
C3    C     C_R   0.690109 0.689288 0.501037 0.876467
C4    C     C_R   0.309974 0.689294 0.498798 0.879089
C5    C     C_R   0.104204 0.166853 0.527042 0.097980
C6    C     C_R   0.896468 0.166783 0.471343 0.098793
C7    C     C_R   0.604205 0.666853 0.527042 0.097980
C8    C     C_R   0.396468 0.666783 0.471343 0.098793
C9    C     C_R   0.155265 0.154857 0.507918 -0.083904
C10   C     C_R   0.845001 0.154875 0.491488 -0.083222
C11   C     C_R   0.655265 0.654857 0.507918 -0.083904
C12   C     C_R   0.345001 0.654875 0.491488 -0.083221
C13   C     C_R   0.173414 0.110272 0.491303 -0.203400
C14   C     C_R   0.826914 0.110296 0.508341 -0.207756
C15   C     C_R   0.673414 0.610272 0.491303 -0.203400
C16   C     C_R   0.326914 0.610297 0.508341 -0.207757
C17   C     C_R   0.142538 0.079159 0.487202 -0.221493
C18   C     C_R   0.857736 0.079274 0.512637 -0.223274
C19   C     C_R   0.642538 0.579159 0.487202 -0.221493
C20   C     C_R   0.357736 0.579274 0.512636 -0.223274
C21   C     C_R   0.094053 0.092585 0.499590 -0.016211
C22   C     C_R   0.906208 0.092777 0.500305 -0.016650
C23   C     C_R   0.594053 0.592585 0.499590 -0.016211
C24   C     C_R   0.406208 0.592777 0.500305 -0.016650
C25   C     C_R   0.074772 0.136411 0.520592 0.046199
C26   C     C_R   0.925921 0.136495 0.477931 0.050009
C27   C     C_R   0.574772 0.636411 0.520592 0.046199
C28   C     C_R   0.425921 0.636495 0.477931 0.050008
C29   C     C_3   0.070450 0.170315 0.475677 -0.045125
C30   C     C_3   0.932122 0.171090 0.520044 -0.048279
C31   C     C_3   0.570450 0.670315 0.475677 -0.045125
C32   C     C_3   0.432122 0.671090 0.520045 -0.048278
C33   C     C_3   0.099101 0.203674 0.488374 -0.505610
C34   C     C_3   0.903139 0.204131 0.507388 -0.503767
C35   C     C_3   0.599101 0.703674 0.488374 -0.505609
C36   C     C_3   0.403139 0.704131 0.507388 -0.503766
C37   C     C_R   0.016829 0.249274 0.043945 -0.184664
C38   C     C_R   0.983228 0.249809 0.956082 -0.184601
C39   C     C_R   0.516829 0.749276 0.043945 -0.184664
C40   C     C_R   0.483228 0.749807 0.956082 -0.184601
C41   C     C_R   0.956598 0.249556 0.086776 0.169780
C42   C     C_R   0.043462 0.249554 0.913245 0.169646
C43   C     C_R   0.456598 0.749556 0.086776 0.169780
C44   C     C_R   0.543462 0.749554 0.913245 0.169646
C45   C     C_R   0.330465 0.250084 0.339014 0.905501
C46   C     C_R   0.669517 0.250077 0.660989 0.906857
C47   C     C_R   0.830465 0.750084 0.339014 0.905501
C48   C     C_R   0.169517 0.750077 0.660989 0.906857
C49   C     C_R   0.939716 0.249811 0.043007 -0.183871
C50   C     C_R   0.060340 0.249274 0.957020 -0.183757
C51   C     C_R   0.439716 0.749810 0.043007 -0.183871
C52   C     C_R   0.560340 0.749275 0.957020 -0.183757
C53   C     C_1   0.912088 0.249663 0.175713 -0.073457
C54   C     C_1   0.087975 0.249653 0.824301 -0.073444
C55   C     C_1   0.412088 0.749663 0.175713 -0.073457
C56   C     C_1   0.587975 0.749653 0.824301 -0.073444
C57   C     C_1   0.125316 0.249772 0.749606 -0.181232
C58   C     C_1   0.874733 0.249788 0.250402 -0.182563
C59   C     C_1   0.625316 0.749772 0.749606 -0.181232
C60   C     C_1   0.374733 0.749788 0.250402 -0.182563
C61   C     C_R   0.329265 0.387689 0.508563 0.127033
C62   C     C_R   0.669560 0.387969 0.494125 0.113430
C63   C     C_R   0.829265 0.887689 0.508563 0.127033
C64   C     C_R   0.169560 0.887969 0.494125 0.113430
C65   C     C_R   0.343472 0.343300 0.498510 -0.142941
C66   C     C_R   0.656360 0.343392 0.502045 -0.137772
C67   C     C_R   0.843472 0.843300 0.498510 -0.142942
C68   C     C_R   0.156360 0.843392 0.502045 -0.137772
C69   C     C_R   0.392112 0.331162 0.487769 -0.196757
C70   C     C_R   0.608513 0.331068 0.510987 -0.192736
C71   C     C_R   0.892112 0.831162 0.487769 -0.196757
C72   C     C_R   0.108513 0.831068 0.510987 -0.192736
C73   C     C_R   0.423937 0.363655 0.488009 -0.222824
C74   C     C_R   0.576689 0.363444 0.510610 -0.221941
C75   C     C_R   0.923937 0.863655 0.488009 -0.222823
C76   C     C_R   0.076689 0.863444 0.510610 -0.221940
C77   C     C_R   0.407133 0.408239 0.499267 -0.061848
C78   C     C_R   0.592733 0.408116 0.500784 -0.060326
C79   C     C_R   0.907133 0.908239 0.499267 -0.061848
C80   C     C_R   0.092733 0.908116 0.500784 -0.060326
C81   C     C_R   0.359727 0.418997 0.508793 0.062213
C82   C     C_R   0.639309 0.419058 0.492995 0.055724
C83   C     C_R   0.859727 0.918997 0.508793 0.062213
C84   C     C_R   0.139309 0.919058 0.492995 0.055724
C85   C     C_3   0.322871 0.456091 0.520580 -0.576499
C86   C     C_3   0.675113 0.456589 0.482228 -0.544751
C87   C     C_3   0.822871 0.956090 0.520580 -0.576498
C88   C     C_3   0.175113 0.956589 0.482228 -0.544751
C89   C     C_R   0.309970 0.310372 0.499538 0.880505
C90   C     C_R   0.689988 0.310395 0.500588 0.877740
C91   C     C_R   0.809970 0.810372 0.499538 0.880505
C92   C     C_R   0.189988 0.810395 0.500588 0.877740
C93   C     C_3   0.287789 0.419914 0.520853 0.061541
C94   C     C_3   0.710102 0.421035 0.483126 0.055596
C95   C     C_3   0.787789 0.919914 0.520853 0.061540
C96   C     C_3   0.210102 0.921035 0.483126 0.055596
C97   C     C_R   0.560968 0.441098 0.500137 0.890715
C98   C     C_R   0.438900 0.441246 0.499877 0.893078
C99   C     C_R   0.060968 0.941098 0.500137 0.890715
C100  C     C_R   0.938900 0.941246 0.499877 0.893078
C101  C     C_R   0.060239 0.060306 0.499892 0.853653
C102  C     C_R   0.939931 0.060467 0.500081 0.852585
C103  C     C_R   0.560239 0.560306 0.499892 0.853653
C104  C     C_R   0.439931 0.560467 0.500081 0.852585
C105  C     C_R   0.169553 0.249940 0.660999 0.904655
C106  C     C_R   0.830464 0.249946 0.338999 0.907903
C107  C     C_R   0.669553 0.749940 0.660999 0.904655
C108  C     C_R   0.330464 0.749946 0.338999 0.907903
C109  C     C_R   0.522531 0.210188 0.956568 -0.183778
C110  C     C_R   0.479011 0.210170 0.043490 -0.183869
C111  C     C_R   0.022531 0.710188 0.956568 -0.183778
C112  C     C_R   0.979011 0.710170 0.043490 -0.183869
C113  C     C_R   0.543374 0.250417 0.913221 0.170067
C114  C     C_R   0.456486 0.250379 0.086764 0.169812
C115  C     C_R   0.043374 0.750417 0.913221 0.170067
C116  C     C_R   0.956486 0.750379 0.086764 0.169812
C117  C     C_R   0.520846 0.290630 0.956482 -0.184709
C118  C     C_R   0.477322 0.290612 0.043419 -0.184534
C119  C     C_R   0.020846 0.790630 0.956482 -0.184709
C120  C     C_R   0.977322 0.790612 0.043419 -0.184534
C121  C     C_1   0.587883 0.250385 0.824280 -0.073622
C122  C     C_1   0.412008 0.250343 0.175710 -0.073791
C123  C     C_1   0.087883 0.750385 0.824280 -0.073622
C124  C     C_1   0.912008 0.750343 0.175710 -0.073791
C125  C     C_1   0.374693 0.250254 0.250403 -0.182754
C126  C     C_1   0.625238 0.250259 0.749590 -0.183973
C127  C     C_1   0.874693 0.750254 0.250403 -0.182754
C128  C     C_1   0.125238 0.750259 0.749590 -0.183973
H1    H     H_    0.462977 0.178944 0.076852 0.140378
H2    H     H_    0.539882 0.178980 0.923244 0.140256
H3    H     H_    0.962977 0.678944 0.076852 0.140378
H4    H     H_    0.039882 0.678980 0.923244 0.140256
H5    H     H_    0.030053 0.249082 0.077664 0.139602
H6    H     H_    0.970003 0.250035 0.922368 0.139664
H7    H     H_    0.530053 0.749084 0.077664 0.139602
H8    H     H_    0.470003 0.750032 0.922368 0.139664
H9    H     H_    0.405638 0.296898 0.479218 0.174203
H10   H     H_    0.595648 0.296718 0.518155 0.173059
H11   H     H_    0.905638 0.796898 0.479218 0.174203
H12   H     H_    0.095648 0.796718 0.518155 0.173059
H13   H     H_    0.296252 0.472290 0.582356 0.184043
H14   H     H_    0.702096 0.472816 0.420437 0.179454
H15   H     H_    0.796252 0.972290 0.582356 0.184042
H16   H     H_    0.202096 0.972817 0.420437 0.179454
H17   H     H_    0.241097 0.415700 0.581930 0.116069
H18   H     H_    0.757204 0.417746 0.422343 0.116274
H19   H     H_    0.741097 0.915700 0.581930 0.116069
H20   H     H_    0.257204 0.917746 0.422343 0.116274
H21   H     H_    0.536886 0.321852 0.923104 0.139025
H22   H     H_    0.459973 0.321816 0.076753 0.139109
H23   H     H_    0.036886 0.821852 0.923104 0.139025
H24   H     H_    0.959973 0.821816 0.076753 0.139109
H25   H     H_    0.212911 0.100029 0.477024 0.169396
H26   H     H_    0.787451 0.099974 0.522732 0.167730
H27   H     H_    0.712911 0.600029 0.477023 0.169396
H28   H     H_    0.287451 0.599974 0.522732 0.167731
H29   H     H_    0.157539 0.045233 0.471629 0.136803
H30   H     H_    0.842749 0.045351 0.528325 0.137584
H31   H     H_    0.657539 0.545233 0.471629 0.136803
H32   H     H_    0.342749 0.545351 0.528325 0.137584
H33   H     H_    0.024953 0.180701 0.511362 0.152077
H34   H     H_    0.977985 0.181257 0.482701 0.149595
H35   H     H_    0.524953 0.680701 0.511363 0.152077
H36   H     H_    0.477985 0.681257 0.482701 0.149594
H37   H     H_    0.142803 0.216397 0.429948 0.210255
H38   H     H_    0.860025 0.217437 0.566118 0.212100
H39   H     H_    0.642803 0.716397 0.429948 0.210255
H40   H     H_    0.360025 0.717437 0.566118 0.212100
H41   H     H_    0.067887 0.229694 0.534935 0.184611
H42   H     H_    0.934500 0.229713 0.459599 0.183634
H43   H     H_    0.567886 0.729694 0.534935 0.184611
H44   H     H_    0.434499 0.729713 0.459599 0.183634
H45   H     H_    0.106955 0.249084 0.924031 0.140485
H46   H     H_    0.893101 0.250035 0.075998 0.140430
H47   H     H_    0.606955 0.749087 0.924031 0.140485
H48   H     H_    0.393101 0.750032 0.075998 0.140430
O1    O     O_R   0.178350 0.230070 0.500010 -0.625813
O2    O     O_R   0.821650 0.230070 0.499990 -0.625220
O3    O     O_R   0.678350 0.730070 0.500010 -0.625813
O4    O     O_R   0.321650 0.730070 0.499990 -0.625220
O5    O     O_R   0.511410 0.454120 0.568820 -0.619691
O6    O     O_R   0.488590 0.454120 0.431180 -0.619511
O7    O     O_R   0.011410 0.954120 0.568820 -0.619691
O8    O     O_R   0.988590 0.954120 0.431180 -0.619511
O9    O     O_R   0.080260 0.045800 0.431140 -0.614493
O10   O     O_R   0.919740 0.045800 0.568860 -0.616540
O11   O     O_R   0.580260 0.545800 0.431140 -0.614493
O12   O     O_R   0.419740 0.545800 0.568860 -0.616540
O13   O     O_R   0.011410 0.045760 0.568860 -0.632696
O14   O     O_R   0.988590 0.045760 0.431140 -0.632805
O15   O     O_R   0.511410 0.545760 0.568860 -0.632696
O16   O     O_R   0.488590 0.545760 0.431140 -0.632805
O17   O     O_R   0.230030 0.178320 0.500020 -0.628985
O18   O     O_R   0.769970 0.178320 0.499980 -0.629478
O19   O     O_R   0.730030 0.678320 0.500020 -0.628985
O20   O     O_R   0.269970 0.678320 0.499980 -0.629478
O21   O     O_R   0.285150 0.275890 0.378020 -0.616183
O22   O     O_R   0.714850 0.275890 0.621980 -0.619217
O23   O     O_R   0.785150 0.775890 0.378020 -0.616183
O24   O     O_R   0.214850 0.775890 0.621980 -0.619217
O25   O     O_R   0.336840 0.224130 0.378040 -0.616274
O26   O     O_R   0.663160 0.224130 0.621960 -0.615433
O27   O     O_R   0.836840 0.724130 0.378040 -0.616274
O28   O     O_R   0.163160 0.724130 0.621960 -0.615433
O29   O     O_R   0.269970 0.321680 0.499990 -0.610132
O30   O     O_R   0.730030 0.321680 0.500010 -0.631006
O31   O     O_R   0.769970 0.821680 0.499990 -0.610132
O32   O     O_R   0.230030 0.821680 0.500010 -0.631006
O33   O     O_R   0.321650 0.269930 0.500010 -0.629188
O34   O     O_R   0.678350 0.269930 0.499990 -0.626201
O35   O     O_R   0.821650 0.769930 0.500010 -0.629188
O36   O     O_R   0.178350 0.769930 0.499990 -0.626201
O37   O     O_R   0.163160 0.275870 0.621980 -0.619969
O38   O     O_R   0.836840 0.275870 0.378020 -0.619308
O39   O     O_R   0.663160 0.775870 0.621980 -0.619969
O40   O     O_R   0.336840 0.775870 0.378020 -0.619308
O41   O     O_R   0.214850 0.224110 0.621990 -0.614286
O42   O     O_R   0.785150 0.224110 0.378010 -0.614363
O43   O     O_R   0.714850 0.724110 0.621990 -0.614286
O44   O     O_R   0.285150 0.724110 0.378010 -0.614363
O45   O     O_R   0.580260 0.454160 0.431100 -0.621259
O46   O     O_R   0.419740 0.454160 0.568900 -0.621234
O47   O     O_R   0.080260 0.954160 0.431100 -0.621259
O48   O     O_R   0.919740 0.954160 0.568900 -0.621234
Zn1   Zn    Zn3+2 0.215490 0.284560 0.500000 0.948795
Zn2   Zn    Zn3+2 0.784510 0.284560 0.500000 0.933368
Zn3   Zn    Zn3+2 0.715490 0.784560 0.500000 0.948795
Zn4   Zn    Zn3+2 0.284510 0.784560 0.500000 0.933368
Zn5   Zn    Zn3+2 0.284510 0.215440 0.500020 0.953714
Zn6   Zn    Zn3+2 0.715490 0.215440 0.499980 0.952042
Zn7   Zn    Zn3+2 0.784510 0.715440 0.500020 0.953714
Zn8   Zn    Zn3+2 0.215490 0.715440 0.499980 0.952042
Zn9   Zn    Zn3+2 0.045990 1.000000 0.408050 0.950426
Zn10  Zn    Zn3+2 0.954010 1.000000 0.591950 0.949701
Zn11  Zn    Zn3+2 0.545990 0.500000 0.408050 0.950426
Zn12  Zn    Zn3+2 0.454010 0.500000 0.591950 0.949701
H49   H     H_    0.461071 0.354065 0.479881 0.138961
H50   H     H_    0.540179 0.353695 0.517409 0.137999
H51   H     H_    0.961071 0.854065 0.479881 0.138961
H52   H     H_    0.040179 0.853695 0.517409 0.137998
H53   H     H_    0.349021 0.478967 0.466458 0.210293
H54   H     H_    0.648200 0.479428 0.536473 0.210563
H55   H     H_    0.849021 0.978967 0.466458 0.210292
H56   H     H_    0.148200 0.979428 0.536473 0.210563
N1    N     N_2   0.292685 0.421230 0.451040 -0.269432
H57   H     H_    0.256678 0.435444 0.462637 0.213343
C129  C     C_3   0.349866 0.419247 0.365032 -0.698615
H58   H     H_    0.342705 0.419250 0.322805 0.216441
H59   H     H_    0.372951 0.387983 0.354534 0.239105
H60   H     H_    0.378420 0.448134 0.348701 0.226966
N2    N     N_2   0.704234 0.424383 0.553771 -0.277646
H61   H     H_    0.737812 0.408114 0.543515 0.231663
C130  C     C_3   0.646409 0.417843 0.637888 -0.719695
H62   H     H_    0.649377 0.426033 0.683311 0.223297
H63   H     H_    0.632327 0.382727 0.647393 0.231546
H64   H     H_    0.612336 0.439704 0.650777 0.241525
N3    N     N_2   0.792685 0.921229 0.451040 -0.269431
H65   H     H_    0.756678 0.935445 0.462637 0.213343
C131  C     C_3   0.849866 0.919247 0.365032 -0.698613
H66   H     H_    0.842705 0.919249 0.322805 0.216441
H67   H     H_    0.872951 0.887983 0.354534 0.239105
H68   H     H_    0.878420 0.948134 0.348701 0.226966
N4    N     N_2   0.204234 0.924383 0.553771 -0.277646
H69   H     H_    0.237812 0.908114 0.543515 0.231663
C132  C     C_3   0.146409 0.917843 0.637888 -0.719695
H70   H     H_    0.149377 0.926033 0.683312 0.223298
H71   H     H_    0.132327 0.882727 0.647393 0.231547
H72   H     H_    0.112336 0.939704 0.650777 0.241525
N5    N     N_2   0.107713 0.159940 0.387720 -0.275270
H73   H     H_    0.134845 0.185197 0.346272 0.234951
C133  C     C_3   0.080204 0.135681 0.366117 -0.739206
H74   H     H_    0.067514 0.158879 0.341973 0.208541
H75   H     H_    0.040143 0.117637 0.420728 0.238656
H76   H     H_    0.112490 0.111410 0.316223 0.256177
N6    N     N_2   0.895789 0.162222 0.608280 -0.276645
H77   H     H_    0.872308 0.188984 0.647600 0.233774
C134  C     C_3   0.922321 0.135919 0.629514 -0.734751
H78   H     H_    0.934958 0.157536 0.655542 0.208083
H79   H     H_    0.962298 0.118076 0.574306 0.235375
H80   H     H_    0.889261 0.111272 0.678055 0.258537
N7    N     N_2   0.607713 0.659940 0.387720 -0.275271
H81   H     H_    0.634845 0.685197 0.346272 0.234952
C135  C     C_3   0.580203 0.635681 0.366117 -0.739207
H82   H     H_    0.567514 0.658879 0.341973 0.208542
H83   H     H_    0.540143 0.617637 0.420728 0.238657
H84   H     H_    0.612490 0.611410 0.316223 0.256177
N8    N     N_2   0.395789 0.662222 0.608280 -0.276645
H85   H     H_    0.372308 0.688984 0.647600 0.233773
C136  C     C_3   0.422321 0.635919 0.629514 -0.734751
H86   H     H_    0.434957 0.657536 0.655543 0.208083
H87   H     H_    0.462298 0.618076 0.574306 0.235375
H88   H     H_    0.389261 0.611272 0.678055 0.258537

loop_
_geom_bond_atom_site_label_1
_geom_bond_atom_site_label_2
_ccdc_geom_bond_type
C94   H18   S    
C133  H76   S    
C83   C87   S    
C88   C96   S    
O28   Zn8   S    
O11   Zn11  S    
C115  C123  S    
C29   C33   S    
C78   C82   A    
C135  H83   S    
C35   H43   S    
O18   Zn6   S    
C57   C105  S    
C111  C112  A    
O5    Zn12  S    
O17   Zn5   S    
C117  H21   S    
C72   C76   A    
C32   N8    S    
C33   H41   S    
C94   N2    S    
N5    H73   S    
C58   C106  S    
N2    H61   S    
C66   C90   S    
C38   C49   A    
C39   H7    S    
C65   C69   A    
C15   C19   A    
O8    Zn9   S    
C40   H8    S    
O46   Zn12  S    
C5    C9    A    
O40   Zn4   S    
O35   Zn7   S    
C48   O24   A    
C50   H45   S    
C18   H30   S    
C32   C36   S    
C31   N7    S    
C54   C57   T    
C38   C42   A    
C101  O13   A    
C31   H35   S    
O24   Zn4   S    
C130  H62   S    
O36   Zn8   S    
C9    C13   A    
C61   C93   S    
N2    C130  S    
C73   H49   S    
C100  O48   A    
C45   O21   A    
C133  H74   S    
C104  O16   A    
C63   C95   S    
C36   H40   S    
C136  H88   S    
C7    C27   A    
C97   O5    A    
C110  H1    S    
C4    O20   A    
N3    H65   S    
C8    C36   S    
C118  H22   S    
C14   C18   A    
O42   Zn6   S    
O48   Zn10  S    
C98   O46   A    
C86   C94   S    
O41   Zn5   S    
C90   O30   A    
O16   Zn11  S    
C75   H51   S    
C23   C103  S    
O20   Zn8   S    
C45   C125  S    
C109  H2    S    
C87   C95   S    
C16   H28   S    
C35   H39   S    
C76   C80   A    
N8    C136  S    
O29   Zn1   S    
C95   N3    S    
C23   C27   A    
C8    C12   A    
C4    C12   S    
C20   H32   S    
O47   Zn9   S    
C132  H70   S    
C110  C114  A    
C15   H27   S    
O12   Zn12  S    
C134  H79   S    
C109  C113  A    
O26   Zn6   S    
C21   C101  S    
C131  H68   S    
O25   Zn5   S    
C39   C52   A    
C62   C82   A    
C43   C51   A    
C30   N6    S    
C71   C75   A    
N1    H57   S    
O45   Zn11  S    
C135  H84   S    
C119  H23   S    
C47   O23   A    
C1    O1    A    
C4    O4    A    
C101  O9    A    
C41   C49   A    
C49   H46   S    
C132  H72   S    
C68   C92   S    
C34   H38   S    
C99   O47   A    
C129  H59   S    
C119  C120  A    
C69   H9    S    
C104  O12   A    
C63   C67   A    
C120  H24   S    
C46   O22   A    
C105  O37   A    
C30   C34   S    
O19   Zn7   S    
C80   C84   A    
C106  O38   A    
C1    C9    S    
C12   C16   A    
C79   C100  S    
C28   C32   S    
C95   H19   S    
N4    C132  S    
C64   C96   S    
C122  C125  T    
C91   O35   A    
C10   C14   A    
C85   H13   S    
C130  H63   S    
C62   C66   A    
O30   Zn2   S    
C89   O33   A    
N7    H81   S    
C82   C86   S    
C27   C31   S    
O4    Zn4   S    
O3    Zn3   S    
C3    O19   A    
C3    O3    A    
O44   Zn8   S    
C5    C33   S    
C68   C72   A    
C24   C104  S    
C108  O44   A    
C74   H50   S    
C7    C11   A    
C62   C94   S    
C70   C74   A    
C92   O32   A    
C109  C110  A    
C61   C65   A    
C48   C128  S    
C44   C56   S    
C87   H55   S    
C85   C93   S    
C114  C118  A    
C88   H16   S    
C46   O26   A    
C16   C20   A    
C13   H25   S    
C19   H31   S    
C78   C97   S    
C67   C91   S    
C136  H86   S    
O34   Zn6   S    
C36   H44   S    
C47   O27   A    
C77   C98   S    
O14   Zn9   S    
C102  O10   A    
N3    C131  S    
C69   C73   A    
O13   Zn10  S    
C132  H71   S    
C52   H47   S    
C41   C53   S    
C108  O40   A    
C93   N1    S    
O6    Zn11  S    
C42   C50   A    
C124  C127  T    
C107  O43   A    
O31   Zn3   S    
C106  O42   A    
N6    H77   S    
C26   C30   S    
C96   N4    S    
C11   C15   A    
N1    C129  S    
N8    H85   S    
C74   C78   A    
C8    C28   A    
C113  C117  A    
C93   H17   S    
C92   O36   A    
C103  O15   A    
C30   H34   S    
C72   H12   S    
C131  H66   S    
C2    C10   S    
C64   C68   A    
C113  C121  S    
C112  C116  A    
C17   H29   S    
C19   C23   A    
C24   C28   A    
C90   O34   A    
C129  H60   S    
C43   C55   S    
C133  H75   S    
O37   Zn1   S    
C21   C25   A    
C116  C120  A    
C116  C124  S    
N6    C134  S    
C18   C22   A    
C7    C35   S    
C46   C126  S    
C33   H37   S    
C84   C88   S    
O43   Zn7   S    
C131  H67   S    
C60   C108  S    
C44   C52   A    
C6    C10   A    
C130  H64   S    
C71   H11   S    
C53   C58   T    
C87   H15   S    
C47   C127  S    
C6    C26   A    
C65   C89   S    
C13   C17   A    
C98   O6    A    
N7    C135  S    
C40   C51   A    
C48   O28   A    
O38   Zn2   S    
C115  C119  A    
O27   Zn7   S    
C22   C102  S    
C56   C59   T    
C64   C84   A    
C76   H52   S    
C29   N5    S    
C96   H20   S    
N5    C133  S    
O9    Zn9   S    
O15   Zn12  S    
C14   H26   S    
C121  C126  T    
C80   C99   S    
C61   C81   A    
C117  C118  A    
O32   Zn4   S    
C105  O41   A    
C79   C83   A    
C37   C50   A    
C42   C54   S    
C70   H10   S    
C25   C29   S    
C123  C128  T    
C66   C70   A    
O23   Zn3   S    
C55   C60   T    
N4    H69   S    
C32   H36   S    
C31   C35   S    
C89   O29   A    
C91   O31   A    
C102  O14   A    
O39   Zn3   S    
C97   O45   A    
C86   H14   S    
C67   C71   A    
C38   H6    S    
C112  H3    S    
C37   C41   A    
C51   H48   S    
C100  O8    A    
C37   H5    S    
C59   C107  S    
C88   H56   S    
O2    Zn2   S    
C3    C11   S    
C85   H53   S    
O33   Zn5   S    
O7    Zn10  S    
O1    Zn1   S    
C114  C122  S    
C6    C34   S    
C111  H4    S    
C40   C44   A    
C107  O39   A    
C39   C43   A    
C45   O25   A    
C77   C81   A    
C22   C26   A    
C134  H80   S    
C63   C83   A    
C135  H82   S    
C73   C77   A    
C1    O17   A    
C136  H87   S    
C111  C115  A    
C99   O7    A    
C2    O2    A    
C29   H33   S    
C2    O18   A    
C34   H42   S    
C134  H78   S    
C75   C79   A    
C20   C24   A    
C103  O11   A    
C81   C85   S    
O22   Zn2   S    
C129  H58   S    
O21   Zn1   S    
C86   H54   S    
O10   Zn10  S    
C5    C25   A    
C17   C21   A    
