data_mof_unit_9392.cif
_audit_creation_date              2012-10-26T19:48:10-0400
_audit_creation_method            fapswitch 2.2
_symmetry_space_group_name_H-M    P1
_symmetry_Int_Tables_number       1
_space_group_crystal_system       triclinic
_cell_length_a                    10.736829
_cell_length_b                    9.49937
_cell_length_c                    10.629206
_cell_angle_alpha                 90.328744
_cell_angle_beta                  88.892633
_cell_angle_gamma                 90.270776
_cell_volume                      1083.87392931

loop_
_atom_site_label
_atom_site_type_symbol
_atom_type_description
_atom_site_fract_x
_atom_site_fract_y
_atom_site_fract_z
_atom_type_partial_charge
Br1   Br    Br    0.695508 0.166120 0.308617 -0.300152
Br2   Br    Br    0.697696 0.835406 0.311510 -0.360310
Br3   Br    Br    0.139461 0.645305 0.757919 -0.411069
Br4   Br    Br    0.125935 0.293518 0.720543 -0.467908
C1    C     C_R   0.260172 0.499648 0.505248 0.595409
C2    C     C_3   0.932534 0.525379 0.372391 -0.263907
C3    C     C_3   0.581964 0.084070 0.601369 0.427250
C4    C     C_3   0.581022 0.917944 0.602088 0.433624
C5    C     C_3   0.374048 0.082916 0.529649 -0.250558
C6    C     C_3   0.373803 0.915978 0.528655 -0.249196
C7    C     C_3   0.540427 0.082947 0.377854 0.221513
C8    C     C_3   0.541172 0.916066 0.378090 0.206219
C9    C     C_R   0.499973 0.499527 0.259650 0.596264
C10   C     C_R   0.739842 0.500121 0.503009 0.552232
C11   C     C_R   0.499758 0.500489 0.740378 0.579273
C12   C     C_3   0.500630 0.498607 0.122825 0.032944
C13   C     C_3   0.401547 0.568756 0.043793 0.364673
C14   C     C_3   0.496121 0.367993 0.038350 0.363128
C15   C     C_3   0.394994 0.436987 0.958979 -0.057762
C16   C     C_3   0.499779 0.501575 0.877046 -0.064686
C17   C     C_3   0.504328 0.634869 0.959904 -0.087618
C18   C     C_3   0.600777 0.430222 0.954473 -0.120132
C19   C     C_3   0.604921 0.563053 0.040047 -0.205885
C20   C     C_3   0.069461 0.623993 0.590402 0.049480
C21   C     C_3   0.068715 0.354165 0.556124 0.040800
C22   C     C_3   0.926056 0.615734 0.597138 -0.193681
C23   C     C_3   0.925675 0.355788 0.554215 -0.174244
C24   C     C_3   0.076214 0.519935 0.373190 -0.294926
C25   C     C_3   0.122261 0.498888 0.509466 0.035911
C26   C     C_3   0.878071 0.499671 0.506433 -0.052928
Cu1   Cu    Cu3+1 0.499860 0.642410 0.500060 1.042104
Cu2   Cu    Cu3+1 0.499860 0.357590 0.500060 1.046702
F1    F     F_    0.703006 0.132221 0.587429 -0.563757
F2    F     F_    0.701528 0.869021 0.590396 -0.560402
F3    F     F_    0.299444 0.639975 0.092826 -0.595072
F4    F     F_    0.491816 0.230285 0.079443 -0.601276
H1    H     H_    0.309099 0.385555 0.924560 0.201827
H2    H     H_    0.307018 0.120235 0.458846 0.154799
H3    H     H_    0.307770 0.878502 0.456244 0.156539
H4    H     H_    0.506436 0.745009 0.925516 0.171522
H5    H     H_    0.682219 0.372158 0.914974 0.171371
H6    H     H_    0.690673 0.613974 0.075669 0.180084
H7    H     H_    0.095320 0.724101 0.542218 0.143066
H8    H     H_    0.100986 0.270226 0.489724 0.140631
H9    H     H_    0.892797 0.593000 0.694739 0.177790
H10   H     H_    0.885440 0.334806 0.649571 0.208188
H11   H     H_    0.888701 0.720095 0.571025 0.226910
H12   H     H_    0.902830 0.629933 0.337901 0.193896
H13   H     H_    0.894121 0.269326 0.491274 0.218428
H14   H     H_    0.114976 0.619194 0.332823 0.180557
H15   H     H_    0.109431 0.432321 0.311298 0.158020
H16   H     H_    0.896720 0.444490 0.305915 0.170970
H17   H     H_    0.549068 0.121235 0.695643 0.105630
H18   H     H_    0.546289 0.882887 0.696134 0.088105
H19   H     H_    0.338893 0.121388 0.622601 0.182413
H20   H     H_    0.336752 0.876560 0.620455 0.171501
H21   H     H_    0.470963 0.114713 0.307168 0.158459
H22   H     H_    0.473046 0.881639 0.306366 0.130125
N1    N     N_3   0.500250 0.143650 0.502780 -0.293780
N2    N     N_3   0.500250 0.856350 0.502780 -0.282693
O1    O     O_R   0.317570 0.620260 0.500070 -0.516043
O2    O     O_R   0.317570 0.379740 0.500070 -0.513598
O3    O     O_R   0.499850 0.620240 0.316900 -0.484955
O4    O     O_R   0.499850 0.379760 0.316900 -0.465955
O5    O     O_R   0.682190 0.620260 0.500030 -0.418973
O6    O     O_R   0.682190 0.379740 0.500030 -0.426662
O7    O     O_R   0.499910 0.620280 0.683200 -0.499504
O8    O     O_R   0.499910 0.379720 0.683200 -0.500722

loop_
_geom_bond_atom_site_label_1
_geom_bond_atom_site_label_2
_ccdc_geom_bond_type
Cu1   N2    S    
C6    N2    S    
C7    C8    S    
C14   F4    S    
C5    H19   S    
C21   C23   S    
C6    H20   S    
C5    C6    S    
Cu1   O1    S    
C15   C16   S    
Br1   C7    S    
Cu2   O8    S    
C11   O7    A    
C14   C18   S    
Br4   C21   S    
C10   O6    A    
Br2   C8    S    
C3    C4    S    
C3    N1    S    
C4    F2    S    
C4    N2    S    
C23   C26   S    
Cu1   O7    S    
C3    F1    S    
Cu2   O4    S    
Br3   C20   S    
C19   H6    S    
C2    H12   S    
C8    H22   S    
C10   C26   S    
C23   H13   S    
C7    N1    S    
C11   O8    A    
C22   H11   S    
C21   H8    S    
C12   C14   S    
C5    H2    S    
C2    C26   S    
C10   O5    A    
C20   C22   S    
C1    O2    A    
C22   C26   S    
C12   C19   S    
C1    C25   S    
C17   H4    S    
C17   C19   S    
C21   C25   S    
C11   C16   S    
C24   H15   S    
C2    C24   S    
C18   H5    S    
C9    O4    A    
C3    H17   S    
C1    O1    A    
C8    N2    S    
C13   C15   S    
Cu1   O3    S    
Cu2   O2    S    
C16   C17   S    
C23   H10   S    
Cu2   O6    S    
C14   C15   S    
C9    C12   S    
C4    H18   S    
Cu1   O5    S    
C20   H7    S    
C15   H1    S    
C20   C25   S    
C24   C25   S    
C13   F3    S    
C22   H9    S    
C2    H16   S    
Cu2   N1    S    
C7    H21   S    
C24   H14   S    
C6    H3    S    
C18   C19   S    
C13   C17   S    
Cu1   Cu2   S    
C16   C18   S    
C12   C13   S    
C5    N1    S    
C9    O3    A    
