data_mof_unit_20055.cif
_audit_creation_date              2012-12-10T17:03:40-0500
_audit_creation_method            fapswitch 2.2
_symmetry_space_group_name_H-M    P1
_symmetry_Int_Tables_number       1
_space_group_crystal_system       triclinic
_cell_length_a                    9.982186
_cell_length_b                    10.702805
_cell_length_c                    13.291769
_cell_angle_alpha                 90.048553
_cell_angle_beta                  71.731791
_cell_angle_gamma                 91.055843
_cell_volume                      1348.23923106

loop_
_atom_site_label
_atom_site_type_symbol
_atom_type_description
_atom_site_fract_x
_atom_site_fract_y
_atom_site_fract_z
_atom_type_partial_charge
C1    C     C_R   0.499825 0.737967 0.504201 1.008272
C2    C     C_R   0.416393 0.525854 0.991397 0.057332
C3    C     C_R   0.461282 0.551799 0.881083 -0.026047
C4    C     C_R   0.506583 0.564483 0.049104 -0.030251
C5    C     C_R   0.596205 0.669586 0.012182 0.017785
C6    C     C_R   0.601768 0.722389 0.915459 -0.260963
C7    C     C_R   0.577298 0.639054 0.842472 0.347325
C8    C     C_R   0.523032 0.493551 0.132742 0.363892
C9    C     C_R   0.715177 0.632860 0.142289 0.399816
C10   C     C_R   0.380308 0.498662 0.819366 -0.114741
C11   C     C_2   0.576494 0.070569 0.555109 0.371456
C12   C     C_R   0.424361 0.504721 0.703578 0.848335
C13   C     C_2   0.496348 0.130188 0.507109 -0.492588
C14   C     C_2   0.605653 0.939560 0.524830 0.411623
C15   C     C_2   0.491724 0.867532 0.531196 -0.491943
C16   C     C_2   0.073724 0.398864 0.498137 -0.130551
C17   C     C_2   0.919226 0.399583 0.509421 -0.035178
C18   C     C_R   0.497405 0.262525 0.503908 0.998164
C19   C     C_R   0.576932 0.503103 0.296928 0.950835
C20   C     C_R   0.698776 0.703607 0.059050 -0.230809
C21   C     C_R   0.617648 0.534516 0.185028 -0.299380
C22   C     C_R   0.253776 0.432828 0.869865 -0.163936
C23   C     C_R   0.206762 0.416844 0.978939 -0.120344
C24   C     C_R   0.287336 0.462147 0.039490 -0.061135
H1    H     H_    0.439986 0.081585 0.460485 0.115742
H2    H     H_    0.385877 0.904739 0.561338 0.123024
H3    H     H_    0.123285 0.308793 0.493147 0.153779
H4    H     H_    0.097667 0.582659 0.512760 0.192086
H5    H     H_    0.861590 0.311294 0.526548 0.171991
H6    H     H_    0.911935 0.577906 0.470417 0.193338
H7    H     H_    0.675451 0.799454 0.885516 0.164941
H8    H     H_    0.772683 0.779420 0.025390 0.201233
H9    H     H_    0.190623 0.392603 0.824494 0.175007
H10   H     H_    0.245050 0.451158 0.124546 0.206125
H11   H     H_    0.107840 0.367868 0.016687 0.167467
N1    N     N_2   0.148270 0.498670 0.498870 -0.173460
N2    N     N_2   0.852610 0.498640 0.498840 -0.098684
O1    O     O_R   0.386950 0.680940 0.500020 -0.647867
O2    O     O_R   0.613110 0.680900 0.499980 -0.497757
O3    O     O_R   0.330780 0.500000 0.653640 -0.612576
O4    O     O_R   0.556930 0.499960 0.653610 -0.515997
O5    O     O_R   0.386890 0.319100 0.500020 -0.641210
O6    O     O_R   0.613050 0.319060 0.499980 -0.581864
O7    O     O_R   0.443070 0.500040 0.346390 -0.585847
O8    O     O_R   0.669220 0.500000 0.346360 -0.561347
Zn1   Zn    Zn3+2 0.349000 0.500030 0.500020 0.975429
Zn2   Zn    Zn3+2 0.651000 0.499970 0.499980 1.094760
S1    S     S_3+6 0.866585 0.660245 0.182233 0.002148
O9    O     O_2   0.937190 0.537971 0.184846 -0.328387
O10   O     O_2   0.968886 0.747748 0.106197 -0.314724
O11   O     O_3   0.819407 0.722948 0.303634 -0.541669
H12   H     H_    0.907312 0.726188 0.323211 0.371891
O12   O     O_3   0.741785 0.891807 0.484425 -0.601148
C25   C     C_3   0.848728 0.982841 0.438207 0.092559
H13   H     H_    0.951495 0.935565 0.421573 0.153715
H14   H     H_    0.852792 0.059300 0.493419 0.155209
C26   C     C_3   0.839646 0.034368 0.332480 -0.348419
H15   H     H_    0.843876 0.956665 0.276456 0.279412
H16   H     H_    0.738979 0.083243 0.344526 0.206178
C27   C     C_3   0.961047 0.126244 0.282241 -0.921210
H17   H     H_    0.957360 0.206894 0.335586 0.264089
H18   H     H_    0.952123 0.161706 0.206148 0.269969
H19   H     H_    0.064013 0.079434 0.266180 0.264724
O13   O     O_3   0.445622 0.384150 0.166115 -0.622951
C28   C     C_3   0.523252 0.282897 0.110354 0.092777
H20   H     H_    0.623462 0.272241 0.129524 0.136647
H21   H     H_    0.548975 0.296517 0.023160 0.123445
C29   C     C_3   0.434381 0.162749 0.140473 -0.333893
H22   H     H_    0.332033 0.174487 0.125150 0.224439
H23   H     H_    0.490755 0.084993 0.090581 0.181445
C30   C     C_3   0.407124 0.128103 0.256530 -0.813496
H24   H     H_    0.508968 0.114163 0.271898 0.233337
H25   H     H_    0.343993 0.039762 0.275072 0.231988
H26   H     H_    0.347651 0.202676 0.309080 0.290677
S2    S     S_3+6 0.743625 0.596039 0.754099 0.011313
O14   O     O_2   0.860695 0.628500 0.799126 -0.310280
O15   O     O_2   0.748925 0.457881 0.733529 -0.289877
O16   O     O_3   0.771090 0.679348 0.642402 -0.540759
H27   H     H_    0.790731 0.765786 0.661163 0.341260
O17   O     O_3   0.640563 0.136185 0.618999 -0.634215
C31   C     C_3   0.650461 0.061961 0.703971 0.037519
H28   H     H_    0.731317 0.989193 0.674720 0.149804
H29   H     H_    0.546716 0.016722 0.746895 0.139735
C32   C     C_3   0.695462 0.146336 0.780956 -0.256150
H30   H     H_    0.795506 0.196474 0.737757 0.247691
H31   H     H_    0.612862 0.216811 0.813985 0.238765
C33   C     C_3   0.718093 0.071550 0.871615 -1.024663
H32   H     H_    0.619676 0.019944 0.915408 0.258551
H33   H     H_    0.747466 0.135911 0.927147 0.270317
H34   H     H_    0.804626 0.004293 0.840504 0.276950

loop_
_geom_bond_atom_site_label_1
_geom_bond_atom_site_label_2
_ccdc_geom_bond_type
C33   H32   S    
C17   H5    S    
C32   C33   S    
C4    C8    A    
C31   H28   S    
C5    C20   A    
O12   C25   S    
C10   C22   A    
O3    Zn1   S    
C13   C18   S    
C27   H19   S    
C19   C21   S    
C32   H31   S    
C3    C7    A    
C18   O5    A    
C5    C6    A    
C11   C14   S    
C26   H16   S    
C27   H18   S    
O5    Zn1   S    
S1    O11   S    
C29   H22   S    
C28   H21   S    
C23   C24   A    
N1    Zn1   S    
C1    C15   S    
N2    Zn2   S    
C16   H3    S    
S1    O10   D    
C6    H7    S    
C13   H1    S    
C31   H29   S    
O7    Zn1   S    
O8    Zn2   S    
C25   H14   S    
O11   H12   S    
C32   H30   S    
C30   H25   S    
O16   H27   S    
C16   C17   S    
C26   C27   S    
C7    S2    S    
C24   H10   S    
H6    N2    S    
C27   H17   S    
C12   O3    A    
C2    C4    A    
S2    O14   D    
C12   O4    A    
C9    C20   A    
C28   C29   S    
C8    C21   A    
O4    Zn2   S    
C17   N2    D    
S2    O15   D    
C10   C12   S    
C1    O1    A    
C8    O13   S    
S1    O9    D    
C23   H11   S    
C33   H33   S    
C2    C24   A    
C31   C32   S    
C19   O7    A    
O2    Zn2   S    
C20   H8    S    
C22   H9    S    
C25   H13   S    
C14   C15   D    
O17   C31   S    
C15   H2    S    
C30   H26   S    
C19   O8    A    
C6    C7    A    
O13   C28   S    
C2    C3    A    
C30   H24   S    
C3    C10   A    
C18   O6    A    
C16   N1    D    
C11   C13   D    
C9    C21   A    
C26   H15   S    
C29   C30   S    
S2    O16   S    
O1    Zn1   S    
C11   O17   S    
C1    O2    A    
C4    C5    A    
C14   O12   S    
H4    N1    S    
C9    S1    S    
C29   H23   S    
C28   H20   S    
C33   H34   S    
C22   C23   A    
O6    Zn2   S    
C25   C26   S    
