data_mof_unit_40470.cif
_audit_creation_date              2012-12-11T15:11:49-0500
_audit_creation_method            fapswitch 2.2
_symmetry_space_group_name_H-M    P1
_symmetry_Int_Tables_number       1
_space_group_crystal_system       triclinic
_cell_length_a                    20.169048
_cell_length_b                    7.095524
_cell_length_c                    13.460802
_cell_angle_alpha                 90.058948
_cell_angle_beta                  103.519534
_cell_angle_gamma                 89.936673
_cell_volume                      1872.99384048

loop_
_atom_site_label
_atom_site_type_symbol
_atom_type_description
_atom_site_fract_x
_atom_site_fract_y
_atom_site_fract_z
_atom_type_partial_charge
O1    O     O_R   0.449830 0.506740 0.599960 -0.534829
O2    O     O_R   0.550170 0.006740 0.400040 -0.534959
O3    O     O_R   0.588980 0.179860 0.596720 -0.546594
O4    O     O_R   0.411020 0.679860 0.403280 -0.546333
C1    C     C_R   0.616537 0.344055 0.618763 0.681125
C2    C     C_R   0.383457 0.844105 0.381244 0.681258
O5    O     O_R   0.452740 0.177340 0.612040 -0.535011
O6    O     O_R   0.547260 0.677340 0.387960 -0.534928
O7    O     O_R   0.412960 0.002070 0.415460 -0.543261
O8    O     O_R   0.587040 0.502070 0.584540 -0.543002
C3    C     C_R   0.436739 0.345904 0.638964 0.717476
C4    C     C_R   0.563273 0.845591 0.361033 0.717485
O9    O     O_3   0.487110 0.337570 0.435490 -0.370563
O10   O     O_3   0.512890 0.837570 0.564510 -0.370461
V1    V     V_3+5 0.502390 0.064650 0.511970 1.446617
V2    V     V_3+5 0.497610 0.564650 0.488030 1.447885
C5    C     C_R   0.607264 0.848310 0.104916 0.419825
C6    C     C_R   0.392771 0.369049 0.894868 0.420010
H1    H     H_    0.514408 0.842391 0.157232 0.165147
H2    H     H_    0.485645 0.364419 0.842552 0.164467
H3    H     H_    0.693288 0.851039 0.978408 0.172683
H4    H     H_    0.306751 0.378231 0.021340 0.171849
C7    C     C_R   0.602615 0.852555 0.282763 -0.109031
C8    C     C_R   0.397360 0.354395 0.717153 -0.108687
C9    C     C_R   0.931145 0.862906 0.318800 -0.170509
C10   C     C_R   0.068838 0.351516 0.681368 -0.170398
C11   C     C_R   0.895457 0.861025 0.395371 -0.128906
C12   C     C_R   0.104522 0.345270 0.604846 -0.129013
C13   C     C_R   0.824405 0.858499 0.370766 -0.166598
C14   C     C_R   0.175575 0.347204 0.629375 -0.167031
C15   C     C_R   0.786768 0.857550 0.267510 0.108198
C16   C     C_R   0.213227 0.355312 0.732526 0.108148
C17   C     C_R   0.823854 0.858071 0.189462 0.076922
C18   C     C_R   0.176158 0.361353 0.810538 0.076893
C19   C     C_R   0.713795 0.856017 0.239238 0.029732
C20   C     C_R   0.286195 0.357885 0.760717 0.029689
C21   C     C_R   0.679429 0.852587 0.133706 0.044901
C22   C     C_R   0.320589 0.366405 0.866147 0.044971
C23   C     C_R   0.717617 0.853075 0.059079 -0.158897
C24   C     C_R   0.282413 0.371944 0.940747 -0.158385
C25   C     C_R   0.788291 0.856352 0.086328 -0.234314
C26   C     C_R   0.211733 0.369482 0.913572 -0.234206
C27   C     C_R   0.673654 0.857287 0.312436 -0.226793
C28   C     C_R   0.326307 0.352098 0.687538 -0.226863
C29   C     C_R   0.569619 0.847416 0.179617 -0.136413
C30   C     C_R   0.430407 0.362831 0.820204 -0.136454
C31   C     C_R   0.896117 0.861213 0.216218 -0.074543
C32   C     C_R   0.103887 0.359572 0.783838 -0.074242
H5    H     H_    0.695697 0.860383 0.393430 0.100564
H6    H     H_    0.304249 0.345136 0.606625 0.100476
H7    H     H_    0.986401 0.866036 0.339551 0.091334
H8    H     H_    0.013569 0.350321 0.660656 0.090946
H9    H     H_    0.800852 0.857101 0.434725 0.098754
H10   H     H_    0.199113 0.342337 0.565437 0.099265
H11   H     H_    0.923086 0.862084 0.474706 0.111650
H12   H     H_    0.076885 0.339151 0.525587 0.111939
H13   H     H_    0.814928 0.857059 0.025206 0.122027
H14   H     H_    0.185099 0.374045 0.974660 0.121690
C33   C     C_3   0.214082 0.647959 0.210155 0.385721
C34   C     C_3   0.785878 0.147991 0.790182 0.385621
H15   H     H_    0.223557 0.599959 0.135842 0.070393
H16   H     H_    0.776399 0.100787 0.864582 0.071796
C35   C     C_3   0.284977 0.644452 0.285355 -0.363583
C36   C     C_3   0.714990 0.144382 0.714959 -0.363884
H17   H     H_    0.320955 0.564697 0.249520 0.132022
H18   H     H_    0.678996 0.065266 0.750881 0.131580
H19   H     H_    0.283367 0.567190 0.356489 0.145418
H20   H     H_    0.716620 0.066482 0.643939 0.145475
H21   H     H_    0.150250 0.915324 0.331117 0.111262
H22   H     H_    0.849752 0.413695 0.668809 0.111468
H23   H     H_    0.258628 0.875774 0.435345 0.128656
H24   H     H_    0.741376 0.373999 0.564650 0.128632
C37   C     C_3   0.189471 0.963868 0.291707 -0.337224
C38   C     C_3   0.810530 0.462928 0.708144 -0.337032
C39   C     C_3   0.238719 0.959685 0.139144 -0.400392
C40   C     C_3   0.761275 0.460663 0.860680 -0.402052
C41   C     C_3   0.186704 0.856224 0.189660 0.023472
C42   C     C_3   0.813285 0.356240 0.810351 0.023797
H25   H     H_    0.223398 0.109523 0.123513 0.180173
H26   H     H_    0.776589 0.610532 0.875937 0.179480
H27   H     H_    0.239014 0.894499 0.064005 0.141794
H28   H     H_    0.761000 0.396377 0.935971 0.142158
C43   C     C_3   0.312199 0.848722 0.311515 0.050011
C44   C     C_3   0.687789 0.348628 0.688500 0.049314
C45   C     C_3   0.261601 0.951467 0.364192 -0.332553
C46   C     C_3   0.738401 0.450427 0.635673 -0.331838
C47   C     C_3   0.311939 0.952457 0.209679 -0.324820
C48   C     C_3   0.688051 0.453302 0.790185 -0.323833
H29   H     H_    0.346771 0.879033 0.169262 0.159034
H30   H     H_    0.653238 0.380511 0.830732 0.159121
H31   H     H_    0.331409 0.098668 0.225936 0.169411
H32   H     H_    0.668558 0.599501 0.773722 0.170116
H33   H     H_    0.177206 0.115005 0.274552 0.191564
H34   H     H_    0.822797 0.614123 0.725069 0.191255
H35   H     H_    0.280266 0.096382 0.386965 0.149977
H36   H     H_    0.719743 0.595274 0.612659 0.150151
O11   O     O_R   0.912980 0.203550 0.915410 -0.518309
O12   O     O_R   0.087020 0.703550 0.084590 -0.518527
O13   O     O_R   0.047270 0.535570 0.887960 -0.542242
O14   O     O_R   0.952730 0.035570 0.112040 -0.542098
C49   C     C_R   0.063884 0.368069 0.861616 0.677564
C50   C     C_R   0.936095 0.868372 0.138375 0.677640
O15   O     O_R   0.911030 0.532970 0.903270 -0.542261
O16   O     O_R   0.088970 0.032970 0.096730 -0.542212
O17   O     O_R   0.949820 0.708150 0.099970 -0.538964
O18   O     O_R   0.050180 0.208150 0.900030 -0.538815
C51   C     C_R   0.884124 0.364433 0.881015 0.665159
C52   C     C_R   0.115870 0.864395 0.118997 0.665254
O19   O     O_3   0.012900 0.375230 0.064480 -0.362865
O20   O     O_3   0.987100 0.875230 0.935520 -0.362802
V3    V     V_3+5 0.997610 0.648190 0.988040 1.460498
V4    V     V_3+5 0.002390 0.148190 0.011960 1.461014
Cl1   Cl    Cl    0.561319 0.842187 0.976096 -0.644325
Cl2   Cl    Cl    0.438758 0.379833 0.023566 -0.644565
O21   O     O_3   0.168676 0.508338 0.232008 -0.552006
C53   C     C_3   0.142090 0.547381 0.317855 -0.222750
H37   H     H_    0.096074 0.637618 0.295341 0.131930
H38   H     H_    0.179862 0.608804 0.383053 0.119795
H39   H     H_    0.125161 0.412536 0.345397 0.136797
O22   O     O_3   0.831258 0.007725 0.768542 -0.551812
C54   C     C_3   0.857927 0.045829 0.682724 -0.223172
H40   H     H_    0.903901 0.136036 0.705175 0.131679
H41   H     H_    0.820177 0.106784 0.617367 0.119188
H42   H     H_    0.874952 0.910653 0.655473 0.136843

loop_
_geom_bond_atom_site_label_1
_geom_bond_atom_site_label_2
_ccdc_geom_bond_type
C43   C47   S    
C35   H17   S    
C7    C29   A    
C47   H31   S    
C11   C13   A    
C38   H34   S    
O1    C3    A    
C37   H33   S    
O2    C4    A    
C26   H14   S    
C2    O7    A    
C12   H12   S    
C5    Cl1   S    
C23   C25   A    
O18   V4    S    
O5    C3    A    
C14   H10   S    
C4    C7    S    
C34   C42   S    
C13   H9    S    
C16   C20   A    
O15   V3    S    
C19   C21   A    
C40   C42   S    
O19   V3    S    
C11   H11   S    
O21   C53   S    
C3    C8    S    
O12   C52   A    
C53   H37   S    
C50   O17   A    
C34   H16   S    
C33   O21   S    
O20   V3    S    
C36   C44   S    
C54   H42   S    
H23   C45   S    
C48   H32   S    
C18   C26   A    
H22   C38   S    
C15   C17   A    
H21   C37   S    
O12   V3    S    
C19   C27   A    
C9    C31   A    
C10   C32   A    
C24   C26   A    
O17   V3    S    
H4    C24   S    
O6    V2    S    
C31   C50   S    
C6    Cl2   S    
C6    C30   A    
C35   H19   S    
C33   H15   S    
C44   C48   S    
O4    C2    A    
O19   V4    S    
C40   H28   S    
O16   V4    S    
O11   V4    S    
C27   H5    S    
O5    V1    S    
C35   C43   S    
C42   C51   S    
C36   H18   S    
O4    V2    S    
C9    H7    S    
C10   H8    S    
H3    C23   S    
O6    C4    A    
O13   V3    S    
O14   C50   A    
O1    V2    S    
C5    C21   A    
C38   C46   S    
O2    V1    S    
C39   C41   S    
C37   C45   S    
C54   H40   S    
C46   H36   S    
C39   C47   S    
C43   C45   S    
C48   H30   S    
O14   V4    S    
C47   H29   S    
C17   C31   A    
C15   C19   A    
C20   C28   A    
C18   C32   A    
C36   H20   S    
O16   C52   A    
O3    V1    S    
O22   C54   S    
C28   H6    S    
C49   O18   A    
C1    C44   S    
C40   C48   S    
C2    C43   S    
O13   C49   A    
C7    C27   A    
C10   C12   A    
C41   C52   S    
C39   H27   S    
C40   H26   S    
C5    C29   A    
O3    C1    A    
H24   C46   S    
H1    C29   S    
C9    C11   A    
C33   C35   S    
C53   H39   S    
C34   C36   S    
C8    C30   A    
C33   C41   S    
C20   C22   A    
C6    C22   A    
C17   C25   A    
C1    O8    A    
C21   C23   A    
O8    V2    S    
C14   C16   A    
C45   H35   S    
C22   C24   A    
C8    C28   A    
C32   C49   S    
C12   C14   A    
C53   H38   S    
C34   O22   S    
O7    V1    S    
O20   V4    S    
C54   H41   S    
C25   H13   S    
O11   C51   A    
C13   C15   A    
C38   C42   S    
O9    V2    S    
C37   C41   S    
O10   V1    S    
C44   C46   S    
O15   C51   A    
C39   H25   S    
H2    C30   S    
C16   C18   A    
