data_mof_unit_23650.cif
_audit_creation_date              2012-12-11T17:37:49-0500
_audit_creation_method            fapswitch 2.2
_symmetry_space_group_name_H-M    P1
_symmetry_Int_Tables_number       1
_space_group_crystal_system       triclinic
_cell_length_a                    12.981812
_cell_length_b                    13.012236
_cell_length_c                    15.299178
_cell_angle_alpha                 115.995576
_cell_angle_beta                  64.152538
_cell_angle_gamma                 96.680896
_cell_volume                      2081.57395314

loop_
_atom_site_label
_atom_site_type_symbol
_atom_type_description
_atom_site_fract_x
_atom_site_fract_y
_atom_site_fract_z
_atom_type_partial_charge
C1    C     C_R   0.023985 0.834055 0.028956 -0.135369
C2    C     C_R   0.319910 0.536639 0.780064 -0.131396
C3    C     C_R   0.245235 0.477567 0.105408 -0.191254
C4    C     C_R   0.703688 0.402947 0.208155 -0.161014
C5    C     C_R   0.986608 0.302608 0.697324 -0.162512
C6    C     C_R   0.338226 0.536704 0.071837 0.167835
C7    C     C_R   0.930134 0.207884 0.697198 0.060385
C8    C     C_R   0.325151 0.471081 0.678391 0.090905
C9    C     C_R   0.086230 0.146105 0.969350 0.018819
C10   C     C_R   0.346261 0.804500 0.304046 -0.083083
C11   C     C_R   0.228268 0.837634 0.360631 -0.139859
C12   C     C_R   0.709426 0.430121 0.303381 0.094732
C13   C     C_R   0.182412 0.925773 0.354984 0.137950
C14   C     C_R   0.255183 0.978495 0.290351 -0.176829
C15   C     C_R   0.372805 0.943441 0.232107 -0.124974
C16   C     C_R   0.739460 0.578432 0.947736 -0.159813
C17   C     C_R   0.418521 0.857567 0.240060 -0.083648
C18   C     C_R   0.045743 0.071797 0.522304 -0.256132
C19   C     C_R   0.934875 0.116074 0.601477 0.063309
C20   C     C_R   0.836568 0.067161 0.590429 0.028283
C21   C     C_R   0.853693 0.968929 0.496244 -0.260642
C22   C     C_R   0.965903 0.924474 0.417430 0.058681
C23   C     C_R   0.637841 0.560406 0.020892 0.142951
C24   C     C_R   0.062656 0.975282 0.430091 0.005243
C25   C     C_R   0.636917 0.047156 0.712084 -0.168956
C26   C     C_R   0.527689 0.095262 0.795420 -0.121959
C27   C     C_R   0.498780 0.213499 0.842544 -0.099840
C28   C     C_R   0.957746 0.718241 0.315725 -0.141551
C29   C     C_R   0.578508 0.283698 0.805421 -0.111791
C30   C     C_R   0.687327 0.235868 0.721432 -0.140691
C31   C     C_R   0.718387 0.117227 0.675074 0.133470
C32   C     C_R   0.858555 0.172728 0.381928 -0.122422
C33   C     C_R   0.762559 0.220113 0.388421 -0.128233
C34   C     C_R   0.981546 0.825812 0.321589 0.057798
C35   C     C_R   0.734533 0.339375 0.442535 0.145315
C36   C     C_R   0.803551 0.410403 0.490173 -0.200469
C37   C     C_R   0.900734 0.362924 0.481567 -0.131092
C38   C     C_R   0.928086 0.244094 0.427636 -0.088589
C39   C     C_R   0.524613 0.396422 0.555420 0.120543
C40   C     C_R   0.662132 0.481504 0.047786 -0.104016
C41   C     C_R   0.423142 0.453955 0.580669 -0.005633
C42   C     C_R   0.416109 0.498445 0.514352 -0.015346
C43   C     C_R   0.511289 0.481726 0.420787 -0.251824
C44   C     C_R   0.614224 0.429439 0.396401 0.047851
C45   C     C_R   0.323642 0.576406 0.008285 -0.113376
C46   C     C_R   0.623933 0.388653 0.464165 -0.081314
C47   C     C_R   0.259561 0.532108 0.472932 -0.183764
C48   C     C_R   0.163461 0.597428 0.498834 -0.132882
C49   C     C_R   0.120722 0.699014 0.593969 -0.105311
C50   C     C_R   0.174380 0.735825 0.663091 -0.105313
C51   C     C_R   0.270861 0.671093 0.637231 -0.128831
C52   C     C_R   0.044664 0.818787 0.219597 -0.122842
C53   C     C_R   0.313481 0.567892 0.542451 0.145033
C54   C     C_2   0.433695 0.555007 0.098824 -0.204711
C55   C     C_2   0.524960 0.599042 0.046842 -0.232205
C56   C     C_R   0.905897 0.200462 0.790817 -0.127321
C57   C     C_2   0.893541 0.965089 0.024889 -0.235178
C58   C     C_2   0.885411 0.058798 0.112892 -0.130806
C59   C     C_R   0.802743 0.490783 0.304406 -0.128364
C60   C     C_R   0.926824 0.748876 0.930317 -0.141757
C61   C     C_R   0.949745 0.854581 0.993548 0.138318
C62   C     C_3   0.479309 0.235874 0.600947 -0.876032
C63   C     C_R   0.216525 0.448445 0.685207 -0.126900
C64   C     C_R   0.098503 0.251404 0.043746 -0.111655
C65   C     C_R   0.999813 0.167888 0.947143 -0.078834
H1    H     H_    0.067238 0.897736 0.071205 0.086933
H2    H     H_    0.381889 0.738738 0.310962 0.116570
H3    H     H_    0.173477 0.798122 0.412193 0.110829
H4    H     H_    0.644846 0.348656 0.179478 0.097794
H5    H     H_    0.221114 0.048299 0.287190 0.102243
H6    H     H_    0.428897 0.984657 0.182817 0.107168
H7    H     H_    0.120128 0.110023 0.534805 0.144688
H8    H     H_    0.780649 0.928115 0.483175 0.135824
H9    H     H_    0.658604 0.955714 0.677974 0.106856
H10   H     H_    0.465668 0.040903 0.824010 0.107807
H11   H     H_    0.414364 0.250596 0.907238 0.115095
H12   H     H_    0.855355 0.139299 0.818173 0.093784
H13   H     H_    0.555650 0.375058 0.841015 0.126343
H14   H     H_    0.747315 0.291512 0.692730 0.116108
H15   H     H_    0.002508 0.207263 0.422102 0.107350
H16   H     H_    0.747111 0.626211 0.903236 0.089626
H17   H     H_    0.878715 0.080554 0.342046 0.112573
H18   H     H_    0.708439 0.163877 0.353940 0.112488
H19   H     H_    0.780780 0.502229 0.535600 0.104176
H20   H     H_    0.953712 0.418074 0.518267 0.109527
H21   H     H_    0.507106 0.516926 0.369691 0.137538
H22   H     H_    0.291481 0.453285 0.399199 0.108224
H23   H     H_    0.191416 0.404210 0.620082 0.103470
H24   H     H_    0.122048 0.569226 0.445190 0.106079
H25   H     H_    0.046260 0.749386 0.613944 0.098120
H26   H     H_    0.141399 0.814712 0.736595 0.111182
H27   H     H_    0.918067 0.693235 0.381050 0.094677
H28   H     H_    0.312251 0.701238 0.690994 0.104716
H29   H     H_    0.436266 0.512734 0.145171 0.120825
H30   H     H_    0.521141 0.645613 0.004387 0.127974
H31   H     H_    0.849503 0.968686 0.980000 0.131000
H32   H     H_    0.924870 0.059272 0.162443 0.129441
H33   H     H_    0.604481 0.442411 0.097919 0.085325
H34   H     H_    0.159510 0.266518 0.077556 0.093196
H35   H     H_    0.087069 0.886482 0.198730 0.088924
H36   H     H_    0.835225 0.520090 0.364561 0.095616
H37   H     H_    0.882104 0.734423 0.881499 0.087957
H38   H     H_    0.369616 0.639016 0.980817 0.081666
H39   H     H_    0.600118 0.348905 0.629803 0.177210
H40   H     H_    0.474285 0.207221 0.660932 0.259645
H41   H     H_    0.536000 0.171242 0.519204 0.240615
H42   H     H_    0.391336 0.240731 0.607219 0.251602
H43   H     H_    0.969207 0.105259 0.891193 0.088975
H44   H     H_    0.389590 0.573180 0.801133 0.093558
H45   H     H_    0.223564 0.447758 0.166636 0.095454
H46   H     H_    0.010755 0.337059 0.638966 0.097726
H47   H     H_    0.510063 0.832668 0.197132 0.113551
N1    N     N_R   0.037320 0.720000 0.995830 -0.044355
N2    N     N_R   0.824900 0.517970 0.936430 -0.038610
N3    N     N_R   0.003190 0.648180 0.211390 -0.037877
N4    N     N_R   0.774330 0.457010 0.995830 -0.044752
N5    N     N_R   0.053760 0.709130 0.151980 -0.037564
N6    N     N_R   0.853840 0.498830 0.211390 -0.041328
N7    N     N_R   0.974250 0.667320 0.936430 -0.038598
N8    N     N_R   0.225670 0.542990 0.004170 -0.042925
N9    N     N_2   0.524767 0.346831 0.622222 -0.113802
N10   N     N_R   0.946240 0.290870 0.848020 -0.042556
N11   N     N_R   0.146160 0.501170 0.788610 -0.041201
N12   N     N_R   0.025750 0.332680 0.063570 -0.039186
N13   N     N_R   0.962680 0.280000 0.004170 -0.043426
N14   N     N_R   0.209230 0.553860 0.848010 -0.045229
N15   N     N_R   0.175100 0.482030 0.063570 -0.039549
N16   N     N_R   0.996810 0.351820 0.788610 -0.036565
N17   N     N_R   0.790770 0.446140 0.151990 -0.041155
Ni1   Ni    Ni4+2 0.130310 0.630310 0.000000 0.209639
Ni2   Ni    Ni4+2 0.869690 0.369690 0.000000 0.212196
Ni3   Ni    Ni4+2 0.985660 0.509480 0.863750 0.214445
Ni4   Ni    Ni4+2 0.014340 0.490520 0.136250 0.213257

loop_
_geom_bond_atom_site_label_1
_geom_bond_atom_site_label_2
_ccdc_geom_bond_type
C25   C31   A    
C2    H44   S    
C6    C45   A    
N11   Ni3   S    
C27   C29   A    
C9    C64   A    
C41   C42   A    
C19   C20   A    
C49   H25   S    
C3    C6    A    
N8    N15   A    
C39   C41   A    
C62   H40   S    
C10   H2    S    
C26   C27   A    
C29   C30   A    
N12   Ni4   S    
N8    Ni1   S    
C37   H20   S    
C36   C37   A    
C18   C19   A    
C42   C53   S    
C40   H33   S    
C30   C31   A    
C63   H23   S    
C3    N15   A    
N14   Ni1   S    
C10   C17   A    
C23   C40   A    
C21   H8    S    
C60   N7    A    
C25   H9    S    
C1    H1    S    
C45   H38   S    
N1    N7    A    
C12   C59   A    
C64   H34   S    
C29   H13   S    
C35   C36   A    
N3    N5    A    
C57   H31   S    
C32   C38   A    
C4    C12   A    
C65   H43   S    
C47   C53   A    
C52   N5    A    
C28   C34   A    
C21   C22   A    
C14   H5    S    
C58   H32   S    
C1    N1    A    
C7    C56   A    
C6    C54   S    
C60   H37   S    
N16   Ni3   S    
C4    H4    S    
C44   C46   A    
C26   H10   S    
C18   H7    S    
C22   C34   S    
N1    Ni1   S    
C59   H36   S    
C8    C41   S    
C55   H30   S    
C5    C7    A    
N11   N14   A    
H39   N9    S    
C5    H46   S    
C50   C51   A    
C25   C26   A    
C64   N12   A    
C52   H35   S    
C56   H12   S    
C13   C24   S    
C16   N2    A    
C60   C61   A    
C51   C53   A    
C56   N10   A    
C43   C44   A    
C37   C38   A    
C28   N3    A    
N13   Ni2   S    
C63   N11   A    
C47   C48   A    
N7    Ni3   S    
C28   H27   S    
C57   C61   S    
N5    Ni1   S    
C33   H18   S    
N6    Ni4   S    
C15   H6    S    
C51   H28   S    
C39   C46   A    
C62   H41   S    
C30   H14   S    
C2    N14   A    
C45   N8    A    
C48   C49   A    
C16   C23   A    
C7    C19   S    
C48   H24   S    
C18   C24   A    
C42   C43   A    
C27   H11   S    
C17   H47   S    
N10   Ni2   S    
C32   H17   S    
C11   H3    S    
C15   C17   A    
C54   C55   D    
C43   H21   S    
N2    Ni3   S    
C2    C8    A    
N15   Ni4   S    
C1    C61   A    
N2    N4    A    
C23   C55   S    
C4    N17   A    
C62   H42   S    
C59   N6    A    
N3    Ni4   S    
C34   C52   A    
C39   N9    S    
C32   C33   A    
C12   C44   S    
N6    N17   A    
C11   C13   A    
C57   C58   D    
C40   N4    A    
N4    Ni2   S    
C38   H15   S    
C36   H19   S    
C5    N16   A    
C16   H16   S    
C33   C35   A    
C22   C24   A    
N10   N16   A    
C9    C65   A    
C54   H29   S    
C10   C11   A    
C8    C63   A    
C50   H26   S    
C20   C21   A    
C49   C50   A    
C14   C15   A    
C3    H45   S    
C13   C14   A    
C35   C46   S    
C62   N9    S    
C65   N13   A    
N12   N13   A    
N17   Ni2   S    
C20   C31   S    
C47   H22   S    
