data_mof_unit_48734.cif
_audit_creation_date              2013-03-05T15:40:08-0500
_audit_creation_method            fapswitch 2.2
_symmetry_space_group_name_H-M    P1
_symmetry_Int_Tables_number       1
_space_group_crystal_system       triclinic
_cell_length_a                    27.988144
_cell_length_b                    18.740829
_cell_length_c                    16.868662
_cell_angle_alpha                 89.985369
_cell_angle_beta                  63.087105
_cell_angle_gamma                 89.864865
_cell_volume                      7889.66947384

loop_
_atom_site_label
_atom_site_type_symbol
_atom_site_description
_atom_site_fract_x
_atom_site_fract_y
_atom_site_fract_z
_atom_type_partial_charge
O1    O     O_R   0.255040 0.869590 0.478480 -0.587463
O2    O     O_R   0.744960 0.130410 0.521520 -0.591598
O3    O     O_R   0.744960 0.869590 0.521520 -0.588573
O4    O     O_R   0.255040 0.130410 0.478480 -0.587288
O5    O     O_R   0.755040 0.369590 0.478480 -0.591544
O6    O     O_R   0.244960 0.630410 0.521520 -0.588770
O7    O     O_R   0.244960 0.369590 0.521520 -0.590545
O8    O     O_R   0.755040 0.630410 0.478480 -0.589954
O9    O     O_R   0.182050 0.796550 0.624440 -0.513649
O10   O     O_R   0.817950 0.203450 0.375560 -0.521666
O11   O     O_R   0.817950 0.796550 0.375560 -0.497716
O12   O     O_R   0.182050 0.203450 0.624440 -0.502829
O13   O     O_R   0.682050 0.296550 0.624440 -0.503437
O14   O     O_R   0.317950 0.703450 0.375560 -0.521076
O15   O     O_R   0.317950 0.296550 0.375560 -0.520683
O16   O     O_R   0.682050 0.703450 0.624440 -0.491474
Cu1   Cu    Cu3+1 0.209920 0.785290 0.495070 1.077666
Cu2   Cu    Cu3+1 0.790080 0.214710 0.504930 1.101398
Cu3   Cu    Cu3+1 0.790080 0.785290 0.504930 1.092993
Cu4   Cu    Cu3+1 0.209920 0.214710 0.495070 1.094675
Cu5   Cu    Cu3+1 0.709920 0.285290 0.495070 1.086726
Cu6   Cu    Cu3+1 0.290080 0.714710 0.504930 1.106325
Cu7   Cu    Cu3+1 0.290080 0.285290 0.504930 1.107168
Cu8   Cu    Cu3+1 0.709920 0.714710 0.495070 1.084049
C1    C     C_R   0.295472 0.729333 0.329459 0.808703
C2    C     C_R   0.704079 0.269852 0.670769 0.886796
C3    C     C_R   0.704547 0.729180 0.670515 0.840522
C4    C     C_R   0.295443 0.270725 0.329496 0.806945
C5    C     C_R   0.795487 0.229363 0.329450 0.810578
C6    C     C_R   0.204106 0.769877 0.670737 0.874528
C7    C     C_R   0.204136 0.230030 0.670694 0.880358
C8    C     C_R   0.795496 0.770703 0.329461 0.826315
O17   O     O_R   0.250530 0.763330 0.367210 -0.609376
O18   O     O_R   0.749470 0.236670 0.632790 -0.554442
O19   O     O_R   0.749470 0.763330 0.632790 -0.609182
O20   O     O_R   0.250530 0.236670 0.367210 -0.605997
O21   O     O_R   0.750530 0.263330 0.367210 -0.606628
O22   O     O_R   0.249470 0.736670 0.632790 -0.550048
O23   O     O_R   0.249470 0.263330 0.632790 -0.551593
O24   O     O_R   0.750530 0.736670 0.367210 -0.610745
O25   O     O_R   0.177260 0.690030 0.513710 -0.572297
O26   O     O_R   0.822740 0.309970 0.486290 -0.560002
O27   O     O_R   0.822740 0.690030 0.486290 -0.551245
O28   O     O_R   0.177260 0.309970 0.513710 -0.553500
O29   O     O_R   0.677260 0.190030 0.513710 -0.559345
O30   O     O_R   0.322740 0.809970 0.486290 -0.563165
O31   O     O_R   0.322740 0.190030 0.486290 -0.564066
O32   O     O_R   0.677260 0.809970 0.513710 -0.558998
C9    C     C_R   0.197058 0.631497 0.525968 0.800152
C10   C     C_R   0.799554 0.369209 0.485590 0.831511
C11   C     C_R   0.803507 0.631643 0.472484 0.816547
C12   C     C_R   0.196158 0.368142 0.529196 0.803741
C13   C     C_R   0.696500 0.131731 0.528253 0.801331
C14   C     C_R   0.299625 0.868893 0.486081 0.817571
C15   C     C_R   0.299654 0.131127 0.485985 0.814306
C16   C     C_R   0.696510 0.868268 0.528238 0.808169
H1    H     H_    0.516818 0.755582 0.583338 0.204727
H2    H     H_    0.436462 0.243701 0.567400 0.197803
H3    H     H_    0.437426 0.756255 0.567384 0.197214
H4    H     H_    0.516011 0.244628 0.583051 0.204985
H5    H     H_    0.997258 0.269622 0.636478 0.212724
H6    H     H_    0.988316 0.735514 0.422817 0.206938
H7    H     H_    0.918913 0.270780 0.620017 0.204906
H8    H     H_    0.054781 0.738809 0.474722 0.181578
C17   C     C_R   0.046379 0.627987 0.515063 -0.005154
C18   C     C_R   0.926868 0.379327 0.568021 -0.002964
C19   C     C_R   0.964827 0.624400 0.459128 -0.012719
C20   C     C_R   0.024574 0.375872 0.582753 -0.010826
C21   C     C_R   0.529729 0.129551 0.570721 -0.013091
C22   C     C_R   0.433077 0.871293 0.555392 -0.007930
C23   C     C_R   0.432578 0.128628 0.555623 -0.009263
C24   C     C_R   0.530057 0.870672 0.571059 -0.013591
C25   C     C_R   0.033483 0.689313 0.481182 -0.142905
C26   C     C_R   0.941905 0.319132 0.601648 -0.146609
C27   C     C_R   0.995074 0.686784 0.449972 -0.145729
C28   C     C_R   0.989352 0.317567 0.609138 -0.148341
C29   C     C_R   0.501698 0.193142 0.575431 -0.148531
C30   C     C_R   0.455130 0.807322 0.567299 -0.136569
C31   C     C_R   0.454419 0.192695 0.567324 -0.144116
C32   C     C_R   0.502319 0.807024 0.575670 -0.143757
C33   C     C_R   0.977819 0.562584 0.493608 0.027748
C34   C     C_R   0.009486 0.437317 0.550863 0.025729
C35   C     C_R   0.021629 0.563266 0.514057 0.028592
C36   C     C_R   0.961763 0.438320 0.540407 0.022575
C37   C     C_R   0.461309 0.064783 0.546408 0.025206
C38   C     C_R   0.509737 0.935106 0.554898 0.026555
C39   C     C_R   0.509558 0.065020 0.554788 0.026752
C40   C     C_R   0.461535 0.935195 0.546361 0.025857
C41   C     C_R   0.438861 0.999950 0.537902 -0.044334
C42   C     C_R   0.534815 0.000095 0.555481 -0.043746
C43   C     C_R   0.947268 0.500187 0.508084 -0.042161
C44   C     C_R   0.039266 0.499981 0.537626 -0.045112
C45   C     C_R   0.367376 0.934937 0.523116 -0.018404
C46   C     C_R   0.608630 0.065634 0.562374 -0.021781
C47   C     C_R   0.608689 0.934671 0.562663 -0.022934
C48   C     C_R   0.367204 0.064858 0.523258 -0.017857
C49   C     C_R   0.868257 0.439123 0.515366 -0.027693
C50   C     C_R   0.112118 0.565620 0.546371 -0.020208
C51   C     C_R   0.108333 0.435248 0.561007 -0.024412
C52   C     C_R   0.886208 0.563039 0.462621 -0.022684
C53   C     C_R   0.324939 0.935164 0.497264 -0.069270
C54   C     C_R   0.663378 0.065474 0.547283 -0.071346
C55   C     C_R   0.663408 0.934669 0.547373 -0.073684
C56   C     C_R   0.324908 0.064747 0.497228 -0.067294
C57   C     C_R   0.826036 0.436734 0.489778 -0.066033
C58   C     C_R   0.164467 0.565337 0.541713 -0.071934
C59   C     C_R   0.162892 0.434616 0.547724 -0.069221
C60   C     C_R   0.834782 0.564604 0.462753 -0.066830
C61   C     C_R   0.306179 0.999996 0.481773 -0.245878
C62   C     C_R   0.689369 0.000013 0.539696 -0.252536
C63   C     C_R   0.808613 0.500196 0.467999 -0.242451
C64   C     C_R   0.189005 0.499849 0.540458 -0.252510
H9    H     H_    0.274967 0.000060 0.460544 0.185090
H10   H     H_    0.731272 0.999923 0.524965 0.191956
H11   H     H_    0.772752 0.499953 0.458731 0.189079
H12   H     H_    0.230040 0.499612 0.530559 0.192940
C65   C     C_R   0.392452 0.999900 0.524261 -0.007003
C66   C     C_R   0.584541 0.000141 0.558587 -0.009928
C67   C     C_R   0.901006 0.500529 0.494173 -0.015943
C68   C     C_R   0.087061 0.500008 0.547162 -0.011901
C69   C     C_R   0.576285 0.872165 0.585235 0.269435
C70   C     C_R   0.381238 0.125780 0.558544 0.297684
C71   C     C_R   0.381779 0.873958 0.558000 0.292556
C72   C     C_R   0.576084 0.128235 0.584629 0.270578
C73   C     C_R   0.073232 0.375215 0.590518 0.276527
C74   C     C_R   0.922488 0.621793 0.434570 0.271769
C75   C     C_R   0.876893 0.383951 0.565618 0.296937
C76   C     C_R   0.082885 0.629147 0.551404 0.254446
H13   H     H_    0.215519 0.871960 0.010073 0.140900
H14   H     H_    0.782538 0.124301 0.991656 0.132500
H15   H     H_    0.783756 0.873638 0.988690 0.132477
H16   H     H_    0.149977 0.258014 0.075103 0.151994
H17   H     H_    0.716064 0.372265 0.009357 0.136571
H18   H     H_    0.282779 0.624308 0.991158 0.135968
H19   H     H_    0.348554 0.245196 0.925578 0.159180
H20   H     H_    0.716523 0.626051 0.011034 0.135657
C77   C     C_R   0.220565 0.766890 0.952943 0.126414
C78   C     C_R   0.777604 0.229452 0.048447 0.120235
C79   C     C_R   0.778326 0.769362 0.047818 0.121758
C80   C     C_R   0.220666 0.232987 0.952769 0.101092
C81   C     C_R   0.720695 0.267025 0.952861 0.128577
C82   C     C_R   0.277479 0.729303 0.048538 0.117757
C83   C     C_R   0.277871 0.270339 0.047974 0.111531
C84   C     C_R   0.721938 0.730334 0.951933 0.120724
C85   C     C_R   0.240462 0.697286 0.947851 -0.148429
C86   C     C_R   0.757979 0.299140 0.053138 -0.161193
C87   C     C_R   0.758487 0.699749 0.053766 -0.154953
C88   C     C_R   0.276941 0.230272 0.911514 -0.145860
C89   C     C_R   0.740371 0.197328 0.948103 -0.155793
C90   C     C_R   0.257624 0.798902 0.053565 -0.159026
C91   C     C_R   0.221596 0.273131 0.089150 -0.170158
C92   C     C_R   0.741795 0.799939 0.945957 -0.156061
H21   H     H_    0.233528 0.656968 0.908260 0.139560
H22   H     H_    0.765112 0.339526 0.092442 0.141255
H23   H     H_    0.765266 0.659936 0.094156 0.142102
H24   H     H_    0.299073 0.212699 0.843208 0.189183
H25   H     H_    0.733249 0.156931 0.908807 0.137000
H26   H     H_    0.264590 0.839232 0.093114 0.142431
H27   H     H_    0.199442 0.290695 0.157441 0.139098
H28   H     H_    0.735012 0.839755 0.905576 0.142027
C93   C     C_R   0.268607 0.678647 0.995229 -0.161229
C94   C     C_R   0.729910 0.317794 0.005692 -0.150688
C95   C     C_R   0.730619 0.680399 0.006258 -0.166084
C96   C     C_R   0.305236 0.248787 0.958631 -0.163170
C97   C     C_R   0.768526 0.178701 0.995463 -0.166095
C98   C     C_R   0.229544 0.817557 0.006133 -0.146369
C99   C     C_R   0.193302 0.254559 0.042057 -0.160675
C100  C     C_R   0.769665 0.819289 0.993464 -0.168803
C101  C     C_R   0.144680 0.829728 0.942654 -0.225171
C102  C     C_R   0.854084 0.167944 0.058251 -0.229275
C103  C     C_R   0.854382 0.831670 0.057895 -0.224490
C104  C     C_R   0.145040 0.169825 0.942489 -0.227090
C105  C     C_R   0.644929 0.330126 0.942548 -0.232767
C106  C     C_R   0.354030 0.667874 0.058283 -0.225234
C107  C     C_R   0.354110 0.331957 0.058164 -0.235204
C108  C     C_R   0.645803 0.668087 0.942047 -0.228538
H29   H     H_    0.131686 0.848770 0.009918 0.172721
H30   H     H_    0.867101 0.148881 0.990984 0.175061
H31   H     H_    0.867480 0.850489 0.990540 0.175848
H32   H     H_    0.133150 0.149261 0.008794 0.173050
H33   H     H_    0.632064 0.349375 0.009694 0.171386
H34   H     H_    0.367067 0.648834 0.991002 0.176957
H35   H     H_    0.366253 0.352380 0.991724 0.174435
H36   H     H_    0.632719 0.649286 0.009405 0.171631
C109  C     C_R   0.115870 0.848743 0.896003 -0.144608
C110  C     C_R   0.883404 0.150102 0.104482 -0.153788
C111  C     C_R   0.883578 0.849700 0.104220 -0.153815
C112  C     C_R   0.116110 0.150887 0.895971 -0.149634
C113  C     C_R   0.616015 0.348961 0.896035 -0.147264
C114  C     C_R   0.383371 0.650066 0.104495 -0.154670
C115  C     C_R   0.383312 0.350078 0.104536 -0.152617
C116  C     C_R   0.616579 0.650061 0.895778 -0.152650
C117  C     C_R   0.131506 0.821438 0.810059 0.283746
C118  C     C_R   0.867782 0.177785 0.190213 0.300859
C119  C     C_R   0.867995 0.822087 0.189958 0.295273
C120  C     C_R   0.131693 0.178099 0.810026 0.291544
C121  C     C_R   0.631517 0.321545 0.810233 0.290410
C122  C     C_R   0.367748 0.677747 0.190222 0.300739
C123  C     C_R   0.367554 0.322723 0.190447 0.300887
C124  C     C_R   0.632152 0.677518 0.810027 0.300273
C125  C     C_R   0.180174 0.783913 0.766966 -0.150822
C126  C     C_R   0.818776 0.214405 0.233590 -0.161936
C127  C     C_R   0.818889 0.785821 0.233561 -0.158156
C128  C     C_R   0.180265 0.215645 0.766859 -0.141050
C129  C     C_R   0.680143 0.283923 0.767031 -0.142094
C130  C     C_R   0.318727 0.714323 0.233620 -0.162151
C131  C     C_R   0.318708 0.285937 0.233665 -0.163825
C132  C     C_R   0.681219 0.713892 0.766357 -0.155286
C133  C     C_R   0.208232 0.764588 0.814984 -0.153478
C134  C     C_R   0.789833 0.231848 0.186442 -0.247688
C135  C     C_R   0.790094 0.768304 0.186277 -0.246789
C136  C     C_R   0.208236 0.235040 0.814844 -0.154509
C137  C     C_R   0.708124 0.264416 0.815114 -0.154302
C138  C     C_R   0.289737 0.731680 0.186522 -0.248978
C139  C     C_R   0.289979 0.268236 0.186354 -0.241603
C140  C     C_R   0.710042 0.731441 0.813592 -0.238922
H37   H     H_    0.245257 0.734579 0.782824 0.200588
H38   H     H_    0.752307 0.260764 0.219065 0.169384
H39   H     H_    0.752616 0.739534 0.218895 0.168661
H40   H     H_    0.244321 0.266746 0.783296 0.194507
H41   H     H_    0.744783 0.233702 0.783310 0.197822
H42   H     H_    0.252181 0.760524 0.219194 0.168695
H43   H     H_    0.253350 0.237639 0.218393 0.169032
H44   H     H_    0.747502 0.760246 0.780943 0.170933
C141  C     C_R   0.190297 0.786457 0.903261 0.066052
C142  C     C_R   0.807920 0.210136 0.098079 0.076667
C143  C     C_R   0.808341 0.789452 0.097694 0.076856
C144  C     C_R   0.190477 0.213213 0.903052 0.066666
C145  C     C_R   0.690398 0.286603 0.903231 0.066335
C146  C     C_R   0.307823 0.709997 0.098148 0.077070
C147  C     C_R   0.308063 0.289696 0.097898 0.077890
C148  C     C_R   0.691861 0.710267 0.902155 0.078527
O33   O     O_R   0.051640 0.926880 0.885090 -0.516199
O34   O     O_R   0.948360 0.073120 0.114910 -0.520434
O35   O     O_R   0.948360 0.926880 0.114910 -0.519296
O36   O     O_R   0.051640 0.073120 0.885090 -0.515161
O37   O     O_R   0.551640 0.426880 0.885090 -0.515988
O38   O     O_R   0.448360 0.573120 0.114910 -0.519190
O39   O     O_R   0.448360 0.426880 0.114910 -0.519213
O40   O     O_R   0.551640 0.573120 0.885090 -0.516012
Cu9   Cu    Cu3+1 0.495240 0.500000 0.924150 1.110054
Cu10  Cu    Cu3+1 0.504760 0.500000 0.075850 1.095009
Cu11  Cu    Cu3+1 0.995240 1.000000 0.924150 1.111871
Cu12  Cu    Cu3+1 0.004760 1.000000 0.075850 1.101361
C149  C     C_R   0.927270 0.902068 0.065946 0.808701
C150  C     C_R   0.072772 0.097910 0.934027 0.815956
C151  C     C_R   0.072605 0.901867 0.934131 0.817562
C152  C     C_R   0.927240 0.097906 0.065995 0.805730
C153  C     C_R   0.427136 0.402239 0.066084 0.807887
C154  C     C_R   0.572813 0.597811 0.934026 0.813537
C155  C     C_R   0.572682 0.401979 0.934106 0.814364
C156  C     C_R   0.427233 0.597900 0.065998 0.809665
O41   O     O_R   0.940620 0.926560 0.986760 -0.596180
O42   O     O_R   0.059380 0.073440 0.013240 -0.599624
O43   O     O_R   0.059380 0.926560 0.013240 -0.596869
O44   O     O_R   0.940620 0.073440 0.986760 -0.597156
O45   O     O_R   0.440620 0.426560 0.986760 -0.595347
O46   O     O_R   0.559380 0.573440 0.013240 -0.600041
O47   O     O_R   0.559380 0.426560 0.013240 -0.600938
O48   O     O_R   0.440620 0.573440 0.986760 -0.594876
N1    N     N_R   0.582345 0.819741 0.642614 0.144521
O49   O     O_R   0.583497 0.751878 0.625785 -0.310496
O50   O     O_R   0.592096 0.840522 0.707477 -0.340707
N2    N     N_R   0.338369 0.167219 0.625138 0.126937
O51   O     O_R   0.344146 0.234353 0.638216 -0.397842
O52   O     O_R   0.294621 0.135002 0.679736 -0.396463
N3    N     N_R   0.339185 0.832056 0.624000 0.135088
O53   O     O_R   0.295345 0.863907 0.679399 -0.383375
O54   O     O_R   0.345103 0.764539 0.635114 -0.383090
N4    N     N_R   0.582077 0.180991 0.641645 0.142415
O55   O     O_R   0.591734 0.160564 0.706765 -0.347967
O56   O     O_R   0.583285 0.248754 0.624229 -0.313162
N5    N     N_R   0.081734 0.320674 0.642851 0.133099
O57   O     O_R   0.083159 0.253642 0.621668 -0.313665
O58   O     O_R   0.093549 0.338590 0.706424 -0.350749
N6    N     N_R   0.922044 0.670556 0.368759 0.133555
O59   O     O_R   0.916953 0.645783 0.300919 -0.338415
O60   O     O_R   0.920927 0.739271 0.380442 -0.310575
N7    N     N_R   0.830863 0.347787 0.632363 0.120187
O61   O     O_R   0.787251 0.383830 0.679262 -0.396560
O62   O     O_R   0.832459 0.280631 0.650016 -0.394614
N8    N     N_R   0.077206 0.683165 0.616488 0.164265
O63   O     O_R   0.088613 0.667543 0.681241 -0.326747
O64   O     O_R   0.054215 0.744138 0.619133 -0.313898
N9    N     N_R   0.097110 0.829688 0.768191 0.159748
O65   O     O_R   0.103535 0.883678 0.715688 -0.292317
O66   O     O_R   0.053078 0.792863 0.797447 -0.275753
N10   N     N_R   0.902395 0.170880 0.231823 0.139309
O67   O     O_R   0.898185 0.116279 0.282351 -0.314211
O68   O     O_R   0.939411 0.218266 0.216603 -0.350739
N11   N     N_R   0.903112 0.828175 0.230677 0.164387
O69   O     O_R   0.897787 0.881440 0.283654 -0.303501
O70   O     O_R   0.946739 0.790092 0.199914 -0.282867
N12   N     N_R   0.097235 0.169687 0.768378 0.168873
O71   O     O_R   0.104409 0.116011 0.715074 -0.293369
O72   O     O_R   0.051803 0.203865 0.800844 -0.290832
N13   N     N_R   0.596798 0.329584 0.768988 0.169457
O73   O     O_R   0.603619 0.383013 0.715530 -0.294603
O74   O     O_R   0.551309 0.295812 0.802489 -0.289442
N14   N     N_R   0.402374 0.670878 0.231814 0.139021
O75   O     O_R   0.398188 0.616287 0.282344 -0.313268
O76   O     O_R   0.439343 0.718325 0.216648 -0.350758
N15   N     N_R   0.401846 0.330271 0.232526 0.139436
O77   O     O_R   0.397076 0.385191 0.282912 -0.313639
O78   O     O_R   0.438926 0.282950 0.218290 -0.351558
N16   N     N_R   0.597077 0.670730 0.769333 0.171812
O79   O     O_R   0.603391 0.617674 0.715575 -0.298280
O80   O     O_R   0.551735 0.705160 0.803663 -0.283214

loop_
_geom_bond_atom_site_label_1
_geom_bond_atom_site_label_2
_geom_bond_distance
_ccdc_geom_bond_type
O39   C153  1.299566 A    
Cu2   Cu5   2.671030 S    
C134  C142  1.399942 A    
C59   C64   1.402411 A    
C23   C70   1.416420 A    
N11   O69   1.302494 A    
C127  C135  1.405982 A    
N15   O78   1.300502 A    
C121  N13   1.436058 S    
N8    O63   1.302254 A    
C102  H30   1.083180 S    
C78   C97   1.405385 A    
C69   N1    1.441601 S    
C38   C40   1.420074 A    
C122  C130  1.405258 A    
C108  C148  1.399519 A    
C117  C125  1.406331 A    
C6    O22   1.292200 A    
C101  H29   1.083092 S    
C78   C142  1.481022 S    
C74   N6    1.442093 S    
C138  H42   1.083439 S    
Cu4   O28   1.963145 S    
O33   Cu11  1.962756 S    
O3    Cu3   1.959557 S    
C36   C43   1.415579 A    
C120  C128  1.407665 A    
C87   H23   1.083042 S    
C109  C151  1.469939 S    
C49   C57   1.430638 A    
C130  C138  1.406251 A    
C83   C91   1.405410 A    
C124  C132  1.407707 A    
Cu12  O42   1.973388 S    
C25   C27   1.395591 A    
C128  C136  1.405460 A    
O25   C9    1.286010 A    
C77   C98   1.405522 A    
C29   C31   1.390530 A    
C52   C60   1.438537 A    
O36   C150  1.300227 A    
C38   C42   1.409413 A    
C45   C53   1.438670 A    
C73   N5    1.438493 S    
C136  H40   1.082766 S    
C3    O19   1.294085 A    
C149  O41   1.297398 A    
Cu8   O32   1.963145 S    
C140  H44   1.083400 S    
N15   O77   1.302570 A    
C86   H22   1.083079 S    
C13   C54   1.496710 S    
O12   Cu4   1.968487 S    
N16   O79   1.302599 A    
O13   Cu5   1.968212 S    
H2    C31   1.078655 S    
C34   C36   1.424331 A    
C48   C56   1.436899 A    
N4    O56   1.300467 A    
H6    C27   1.075640 S    
C1    C130  1.470780 S    
C137  C145  1.400091 A    
N14   O75   1.302568 A    
C156  O48   1.297402 A    
C107  H35   1.083365 S    
C114  C156  1.468828 S    
C113  C121  1.406396 A    
C108  H36   1.083062 S    
C122  N14   1.436270 S    
C136  C144  1.399830 A    
C5    C126  1.470875 S    
O38   C156  1.298554 A    
C45   C71   1.423711 A    
C16   C55   1.495026 S    
O2    C13   1.308996 A    
C50   C58   1.431281 A    
C50   C68   1.414054 A    
C9    C58   1.491914 S    
H7    C26   1.073928 S    
Cu11  O41   1.973388 S    
C60   C63   1.395255 A    
C133  H37   1.083006 S    
C8    C127  1.472314 S    
N9    O66   1.300711 A    
Cu3   O19   1.973745 S    
H14   C97   1.082896 S    
C85   C93   1.396308 A    
O10   Cu2   1.968212 S    
C116  C154  1.471564 S    
N7    O62   1.298543 A    
O4    Cu4   1.959559 S    
O5    Cu5   1.964241 S    
C40   C41   1.405013 A    
C46   C54   1.435102 A    
C81   C145  1.481726 S    
C91   H27   1.082806 S    
Cu6   O22   1.972856 S    
C119  C127  1.407424 A    
N3    O54   1.300241 A    
C14   C53   1.485019 S    
C21   C29   1.407593 A    
C124  N16   1.435893 S    
C106  H34   1.083152 S    
C82   C93   1.405433 A    
C23   C31   1.402524 A    
C72   N4    1.441517 S    
C26   C28   1.389948 A    
H13   C98   1.082835 S    
C55   C62   1.401180 A    
C52   C74   1.427390 A    
N11   O70   1.300799 A    
O7    C12   1.312703 A    
Cu2   O26   1.966917 S    
N1    O49   1.300334 A    
C91   C99   1.396512 A    
C82   C146  1.481324 S    
C90   C98   1.395677 A    
Cu9   Cu10  2.690093 S    
C77   C141  1.481776 S    
N2    O51   1.300435 A    
C10   C57   1.485802 S    
H8    C25   1.082302 S    
C62   H10   1.083226 S    
C155  O47   1.297043 A    
O28   C12   1.290149 A    
C80   C99   1.404694 A    
C116  C124  1.406079 A    
O29   C13   1.288616 A    
C81   C94   1.405569 A    
N13   O74   1.301214 A    
H1    C32   1.075378 S    
C103  H31   1.083069 S    
C45   C65   1.411203 A    
H3    C30   1.078465 S    
C125  C133  1.406509 A    
C33   C35   1.416179 A    
C47   C55   1.433305 A    
Cu5   O29   1.966917 S    
H5    C28   1.077143 S    
C80   C144  1.482475 S    
Cu7   O31   1.963146 S    
C88   C96   1.396603 A    
C48   C65   1.410091 A    
C89   C97   1.396263 A    
O33   C151  1.298582 A    
C15   C56   1.483328 S    
C33   C43   1.404900 A    
C49   C67   1.414359 A    
C119  N11   1.436155 S    
Cu4   Cu7   2.676308 S    
O16   C3    1.295267 A    
C52   C67   1.422724 A    
C106  C146  1.398582 A    
C7    C128  1.473092 S    
O9    C6    1.294468 A    
O26   C10   1.287360 A    
N2    O52   1.301684 A    
C41   C65   1.417983 A    
O11   C8    1.295497 A    
C19   C33   1.414823 A    
O12   C7    1.295105 A    
C43   C67   1.416552 A    
O13   C2    1.294532 A    
C19   C27   1.411941 A    
C64   H12   1.083180 S    
C110  C118  1.406625 A    
O35   C149  1.299885 A    
N3    O53   1.301520 A    
C20   C28   1.404110 A    
C135  H39   1.083401 S    
O1    Cu1   1.964241 S    
H18   C93   1.082867 S    
O37   Cu9   1.962756 S    
C20   C34   1.413056 A    
O14   Cu6   1.968212 S    
C44   C68   1.417802 A    
C111  C149  1.471720 S    
C87   C95   1.396238 A    
C46   C66   1.417066 A    
C47   C69   1.425444 A    
C78   C86   1.403909 A    
O7    Cu7   1.959557 S    
O40   Cu9   1.967712 S    
O8    Cu8   1.959559 S    
C129  C137  1.406529 A    
N6    O59   1.301384 A    
C117  N9    1.436722 S    
O34   Cu12  1.962753 S    
C83   C147  1.483462 S    
C20   C73   1.425931 A    
C151  O43   1.297815 A    
C120  N12   1.436219 S    
O40   C154  1.300397 A    
Cu9   O48   1.968728 S    
C24   C69   1.418542 A    
Cu10  O46   1.973388 S    
Cu10  O47   1.968730 S    
C121  C129  1.406517 A    
H16   C99   1.083052 S    
H17   C94   1.082850 S    
C86   C94   1.395619 A    
O11   Cu3   1.968487 S    
Cu1   O17   1.972855 S    
C42   C66   1.416228 A    
O36   Cu11  1.967712 S    
C77   C85   1.404420 A    
N12   O71   1.302597 A    
O2    Cu2   1.964239 S    
C53   C61   1.393283 A    
Cu11  Cu12  2.690093 S    
O6    Cu6   1.964239 S    
C34   C44   1.399898 A    
C79   C143  1.482150 S    
C3    C132  1.472158 S    
N13   O73   1.302629 A    
O34   C152  1.298484 A    
C137  H41   1.082101 S    
C12   C59   1.499264 S    
Cu3   O27   1.963146 S    
N16   O80   1.301235 A    
N7    O61   1.301639 A    
C76   N8    1.448200 S    
C21   C39   1.412184 A    
C104  H32   1.083375 S    
N10   O68   1.300486 A    
C50   C76   1.423601 A    
C57   C63   1.395147 A    
C105  H33   1.083087 S    
C133  C141  1.400018 A    
C110  C152  1.468751 S    
C92   C100  1.396236 A    
N14   O76   1.300493 A    
C17   C76   1.409723 A    
C19   C74   1.422286 A    
C37   C41   1.406020 A    
C150  O42   1.297442 A    
C21   C72   1.419251 A    
Cu11  O44   1.968728 S    
N9    O65   1.302572 A    
C115  C153  1.471683 S    
C102  C110  1.404027 A    
C131  C139  1.405638 A    
C106  C114  1.404130 A    
Cu6   O30   1.966917 S    
C103  C143  1.399490 A    
O4    C15   1.310930 A    
C101  C141  1.398770 A    
O5    C10   1.304556 A    
C54   C62   1.400784 A    
C2    C129  1.472989 S    
C138  C146  1.399975 A    
C83   C96   1.405344 A    
C114  C122  1.406559 A    
C6    C125  1.472388 S    
Cu8   O24   1.973743 S    
C90   H26   1.083063 S    
N8    O64   1.300900 A    
C84   C148  1.482128 S    
C153  O45   1.297699 A    
C24   C38   1.411695 A    
C51   C59   1.439538 A    
Cu1   Cu6   2.671030 S    
C48   C70   1.423463 A    
C113  C155  1.469740 S    
C82   C90   1.404021 A    
Cu3   Cu8   2.676308 S    
C104  C144  1.399894 A    
O10   C5    1.295036 A    
O27   C11   1.287520 A    
O15   C4    1.295983 A    
C123  N15   1.436098 S    
C30   C32   1.390347 A    
O14   C1    1.295042 A    
C79   C100  1.405216 A    
O35   Cu12  1.967712 S    
C17   C35   1.402117 A    
Cu4   O20   1.973743 S    
C71   N3    1.442147 S    
Cu5   O21   1.972855 S    
C4    O20   1.292987 A    
C24   C32   1.407550 A    
C39   C42   1.408462 A    
C5    O21   1.290374 A    
C4    C131  1.471815 S    
N4    O55   1.301672 A    
C88   H24   1.083008 S    
C89   H25   1.082997 S    
C84   C92   1.404744 A    
H20   C95   1.082860 S    
C18   C26   1.408925 A    
C92   H28   1.083041 S    
C22   C30   1.402550 A    
H19   C96   1.083035 S    
C49   C75   1.424767 A    
C22   C40   1.409380 A    
C80   C88   1.405344 A    
C81   C89   1.404443 A    
C51   C73   1.428625 A    
C58   C64   1.400457 A    
C35   C44   1.408187 A    
C79   C87   1.404743 A    
Cu9   O45   1.973388 S    
C139  C147  1.400494 A    
C115  C123  1.406998 A    
C107  C115  1.405497 A    
C56   C61   1.393620 A    
C108  C116  1.404151 A    
C17   C25   1.400817 A    
C18   C75   1.419942 A    
N5    O58   1.301488 A    
C51   C68   1.415704 A    
C23   C37   1.408836 A    
C22   C71   1.417155 A    
C2    O18   1.292570 A    
C11   C60   1.495477 S    
Cu12  O43   1.968730 S    
C112  C150  1.472930 S    
C61   H9    1.083767 S    
C85   H21   1.083004 S    
O15   Cu7   1.968487 S    
O16   Cu8   1.968487 S    
C135  C143  1.400200 A    
O30   C14   1.279302 A    
C126  C134  1.406237 A    
C118  N10   1.436264 S    
C37   C39   1.419998 A    
C47   C66   1.415998 A    
H4    C29   1.075413 S    
C107  C147  1.399994 A    
N1    O50   1.301679 A    
O1    C14   1.310937 A    
O3    C16   1.308932 A    
C123  C131  1.406290 A    
N5    O57   1.301716 A    
Cu2   O18   1.972856 S    
O8    C11   1.314071 A    
C105  C145  1.398570 A    
O9    Cu1   1.968212 S    
N6    O60   1.300969 A    
H15   C100  1.082858 S    
O31   C15   1.281583 A    
O32   C16   1.290915 A    
C111  C119  1.406916 A    
C109  C117  1.407186 A    
C139  H43   1.083022 S    
C152  O44   1.297434 A    
O38   Cu10  1.962753 S    
C134  H38   1.083439 S    
C103  C111  1.404317 A    
C75   N7    1.441297 S    
N10   O67   1.302566 A    
C102  C142  1.398435 A    
C101  C109  1.403356 A    
C84   C95   1.405206 A    
N12   O72   1.301134 A    
C70   N2    1.442395 S    
C104  C112  1.405006 A    
Cu7   O23   1.973745 S    
C105  C113  1.403009 A    
C140  C148  1.400254 A    
C7    O23   1.295099 A    
O39   Cu10  1.967712 S    
C8    O24   1.293929 A    
O6    C9    1.308553 A    
Cu1   O25   1.966917 S    
C18   C36   1.409298 A    
C112  C120  1.407259 A    
C118  C126  1.405304 A    
C132  C140  1.406076 A    
C1    O17   1.290315 A    
O37   C155  1.299082 A    
C63   H11   1.083462 S    
C154  O46   1.296604 A    
C46   C72   1.425724 A    
