data_mof_unit_9566.cif
_audit_creation_date              2013-03-05T16:44:17-0500
_audit_creation_method            fapswitch 2.2
_symmetry_space_group_name_H-M    P1
_symmetry_Int_Tables_number       1
_space_group_crystal_system       triclinic
_cell_length_a                    23.431739
_cell_length_b                    10.714761
_cell_length_c                    9.875905
_cell_angle_alpha                 88.76799
_cell_angle_beta                  90.330317
_cell_angle_gamma                 91.748197
_cell_volume                      2477.73947133

loop_
_atom_site_label
_atom_site_type_symbol
_atom_site_description
_atom_site_fract_x
_atom_site_fract_y
_atom_site_fract_z
_atom_type_partial_charge
O1    O     O_R   0.500010 0.316790 0.614690 -0.632948
O2    O     O_R   0.500000 0.316760 0.385350 -0.618998
C1    C     C_R   0.501323 0.259846 0.500948 0.909376
O3    O     O_R   0.416160 0.499980 0.614700 -0.621627
O4    O     O_R   0.416150 0.499940 0.385360 -0.579522
C2    C     C_R   0.389541 0.508182 0.499161 0.862683
Zn1   Zn    Zn3+2 0.500000 0.500020 0.653130 1.012621
Zn2   Zn    Zn3+2 0.500000 0.499980 0.346870 1.013881
O5    O     O_R   0.500000 0.683240 0.614650 -0.571155
O6    O     O_R   0.499990 0.683210 0.385310 -0.593739
O7    O     O_R   0.583850 0.500060 0.614640 -0.584495
O8    O     O_R   0.583840 0.500020 0.385300 -0.599215
C3    C     C_R   0.503173 0.740052 0.498340 0.946531
C4    C     C_R   0.610432 0.500811 0.500095 0.988418
C5    C     C_R   0.880584 0.605927 0.428089 0.528993
N1    N     N_R   0.852478 0.507428 0.491482 -0.342950
C6    C     C_R   0.881279 0.414602 0.557023 0.560562
C7    C     C_R   0.940970 0.418957 0.561090 -0.082762
C8    C     C_R   0.970518 0.521554 0.500496 -0.013778
C9    C     C_R   0.940090 0.616347 0.433605 -0.013302
C10   C     C_R   0.971338 0.325017 0.627499 -0.198759
C11   C     C_R   0.030908 0.331388 0.634635 0.327908
C12   C     C_R   0.061256 0.432938 0.570509 -0.142853
C13   C     C_R   0.030519 0.529506 0.506439 -0.049139
C14   C     C_R   0.059589 0.634106 0.447272 0.003041
C15   C     C_R   0.028785 0.728888 0.382790 -0.125238
C16   C     C_R   0.969587 0.719572 0.375012 -0.131373
C17   C     C_R   0.121206 0.440088 0.563121 0.547674
N2    N     N_R   0.148423 0.544009 0.508242 -0.355427
C18   C     C_R   0.119051 0.640970 0.453112 0.524277
O9    O     O_2   0.850892 0.693458 0.360000 -0.526335
O10   O     O_2   0.852160 0.319674 0.620035 -0.534003
H1    H     H_    0.948816 0.247206 0.677343 0.224873
O11   O     O_2   0.152359 0.342751 0.605442 -0.493294
O12   O     O_2   0.147495 0.743321 0.403506 -0.545076
H2    H     H_    0.050329 0.809881 0.336769 0.203357
H3    H     H_    0.947054 0.793837 0.323755 0.203329
C19   C     C_R   0.237666 0.556296 0.380495 -0.167718
H4    H     H_    0.213301 0.566049 0.287494 0.155306
C20   C     C_R   0.297132 0.552296 0.375796 0.179942
C21   C     C_R   0.327948 0.530492 0.497696 -0.068310
C22   C     C_R   0.299211 0.533084 0.621769 -0.283024
H5    H     H_    0.322123 0.527721 0.716453 0.178546
C23   C     C_R   0.240433 0.541941 0.625427 -0.101339
H6    H     H_    0.218776 0.540234 0.722073 0.161099
C24   C     C_R   0.209367 0.548758 0.504736 0.277287
C25   C     C_R   0.760382 0.405449 0.438308 -0.127664
H7    H     H_    0.782536 0.329540 0.393151 0.171545
C26   C     C_R   0.700891 0.402182 0.442995 0.119442
C27   C     C_R   0.672497 0.502876 0.499332 -0.179255
C28   C     C_R   0.704021 0.605603 0.552044 0.269282
C29   C     C_R   0.763409 0.602972 0.553242 -0.144686
H8    H     H_    0.788256 0.680099 0.594892 0.197484
C30   C     C_R   0.791521 0.504799 0.494605 0.204203
C31   C     C_R   0.515721 0.060911 0.621233 0.075947
C32   C     C_R   0.510727 0.128987 0.500667 -0.167798
C33   C     C_R   0.520138 0.070336 0.377260 -0.314064
H9    H     H_    0.523570 0.123578 0.283015 0.207816
C34   C     C_R   0.523716 0.941385 0.373940 0.310478
C35   C     C_R   0.514371 0.871896 0.495746 -0.210691
C36   C     C_R   0.515983 0.933716 0.618389 0.142071
C37   C     C_3   0.480770 0.918192 0.744092 0.070158
C38   C     C_3   0.480783 0.059643 0.747128 -0.547997
H10   H     H_    0.504187 0.873785 0.829776 0.231593
H11   H     H_    0.438339 0.099350 0.728679 0.198968
H12   H     H_    0.505494 0.097138 0.834421 0.216261
C39   C     C_R   0.454078 0.452943 0.072552 0.111325
N3    N     N_R   0.499610 0.499140 0.142800 -0.141552
C40   C     C_R   0.544123 0.551883 0.072121 -0.115617
H13   H     H_    0.580052 0.592248 0.126646 0.222608
C41   C     C_R   0.544379 0.552428 0.928646 0.306113
N4    N     N_R   0.499610 0.499180 0.857150 -0.170696
C42   C     C_R   0.452648 0.457804 0.929554 0.018466
C43   C     C_3   0.425430 0.329413 0.925114 -0.046059
C44   C     C_3   0.433433 0.320072 0.078612 -0.021851
H14   H     H_    0.451114 0.264029 0.868692 0.160167
H15   H     H_    0.467909 0.256466 0.110996 0.148568
N5    N     N_2   0.669894 0.296448 0.393051 -0.311581
H16   H     H_    0.687917 0.259847 0.308076 0.251616
C45   C     C_3   0.657901 0.201064 0.495680 -0.664371
H17   H     H_    0.698328 0.166750 0.540305 0.268110
H18   H     H_    0.634559 0.120941 0.449473 0.256921
H19   H     H_    0.631120 0.238461 0.576991 0.233794
N6    N     N_R   0.676929 0.716040 0.596220 0.250393
O13   O     O_R   0.634663 0.761038 0.526840 -0.379507
O14   O     O_R   0.701000 0.784591 0.688978 -0.302613
N7    N     N_R   0.535441 0.884143 0.247524 0.227202
O15   O     O_R   0.509825 0.921553 0.137321 -0.440963
O16   O     O_R   0.579544 0.814069 0.238018 -0.336716
N8    N     N_2   0.424527 0.862160 0.718488 -0.294320
H20   H     H_    0.401552 0.903165 0.640826 0.225322
C46   C     C_3   0.391270 0.832365 0.838241 -0.730157
H21   H     H_    0.350829 0.783123 0.808907 0.233034
H22   H     H_    0.381049 0.919197 0.891432 0.240403
H23   H     H_    0.415262 0.769633 0.907508 0.247135
N9    N     N_R   0.059053 0.237528 0.713769 0.250062
O17   O     O_R   0.088917 0.269794 0.819597 -0.330846
O18   O     O_R   0.044995 0.120254 0.698278 -0.351488
N10   N     N_R   0.592013 0.609652 0.860195 0.238453
O19   O     O_R   0.585972 0.717346 0.799915 -0.327742
O20   O     O_R   0.643184 0.572945 0.888818 -0.361538
N11   N     N_2   0.365652 0.332428 0.884878 -0.280716
H24   H     H_    0.344724 0.414600 0.897102 0.220889
C47   C     C_3   0.346846 0.254109 0.775136 -0.724875
H25   H     H_    0.301301 0.270949 0.751510 0.261427
H26   H     H_    0.350367 0.154435 0.805887 0.232928
H27   H     H_    0.372644 0.275092 0.683092 0.241116
N12   N     N_2   0.381664 0.301940 0.157824 -0.251416
H28   H     H_    0.348884 0.360646 0.134733 0.246153
C48   C     C_3   0.363380 0.173121 0.180131 -0.711505
H29   H     H_    0.326043 0.168645 0.248967 0.238367
H30   H     H_    0.398212 0.119561 0.228422 0.241609
H31   H     H_    0.350945 0.130027 0.082564 0.249984
N13   N     N_2   0.325114 0.573635 0.249426 -0.301489
H32   H     H_    0.300790 0.547233 0.166839 0.205354
C49   C     C_3   0.349237 0.698805 0.230867 -0.692663
H33   H     H_    0.314632 0.767374 0.223934 0.234965
H34   H     H_    0.374257 0.704256 0.135737 0.230929
H35   H     H_    0.378304 0.723688 0.316013 0.240451

loop_
_geom_bond_atom_site_label_1
_geom_bond_atom_site_label_2
_geom_bond_distance
_ccdc_geom_bond_type
N7    O15   1.301489 A    
C38   H11   1.106212 S    
C7    C10   1.399843 A    
C21   C22   1.402762 A    
C8    C9    1.409336 A    
C31   C32   1.389164 A    
C47   H26   1.109393 S    
N13   H32   1.031908 S    
C33   H9    1.083252 S    
C25   C26   1.394348 A    
C3    C35   1.428662 S    
C4    C27   1.453849 S    
N12   H28   1.029031 S    
Zn1   O7    2.003321 S    
C15   C16   1.389459 A    
N2    C18   1.365434 A    
C43   H14   1.099944 S    
C18   O12   1.350176 S    
C17   N2    1.369321 A    
N6    O14   1.301725 A    
C45   H19   1.110941 S    
O4    C2    1.294364 A    
O7    C4    1.294269 A    
N5    C45   1.446362 S    
C33   C34   1.387874 A    
C10   H1    1.083706 S    
C5    N1    1.368752 A    
C31   C36   1.363959 A    
C26   N5    1.422685 S    
C7    C8    1.405691 A    
C42   C43   1.499973 S    
C40   C41   1.416879 A    
O5    C3    1.289835 A    
C48   H29   1.110297 S    
C37   H10   1.112110 S    
C20   N13   1.423986 S    
N10   O19   1.298236 A    
C23   C24   1.394787 A    
N3    C40   1.360131 A    
C2    C21   1.470028 S    
C31   C38   1.492178 S    
C12   C13   1.414831 A    
C39   C42   1.412324 A    
C32   C33   1.404777 A    
C36   C37   1.498056 S    
C43   N11   1.454872 S    
C38   H12   1.111230 S    
C17   O11   1.348874 S    
C44   N12   1.452996 S    
C10   C11   1.396850 A    
N11   H24   1.030454 S    
C22   C23   1.384142 A    
O3    Zn1   1.998682 S    
C47   H25   1.110405 S    
C29   C30   1.395919 A    
C27   C28   1.413771 A    
C34   N7    1.434403 S    
C5    C9    1.396236 A    
C43   C44   1.527935 S    
C39   N3    1.355953 A    
C13   C14   1.411164 A    
C45   H18   1.108940 S    
Zn1   N4    2.014781 S    
N5    H16   1.031866 S    
N4    C42   1.372732 A    
C14   C15   1.403395 A    
C41   N10   1.424023 S    
C46   H23   1.111145 S    
C28   C29   1.392703 A    
N9    O18   1.301268 A    
C35   C36   1.392719 A    
O1    C1    1.290757 A    
C37   C38   1.516542 S    
C1    C32   1.426019 S    
N8    C46   1.444688 S    
C25   H7    1.083486 S    
Zn2   O8    1.998680 S    
N9    O17   1.301486 A    
C46   H22   1.111308 S    
C6    C7    1.398402 A    
C12   C17   1.406697 A    
N6    O13   1.299948 A    
N11   C47   1.443627 S    
C44   H15   1.113833 S    
C48   H31   1.110969 S    
C49   H34   1.109814 S    
C25   C30   1.395729 A    
C15   H2    1.083273 S    
C20   C21   1.418950 A    
N10   O20   1.300908 A    
O8    C4    1.290558 A    
Zn2   N3    2.015556 S    
N7    O16   1.300754 A    
O3    C2    1.299834 A    
C39   C44   1.489670 S    
C22   H5    1.076900 S    
C29   H8    1.083320 S    
C14   C18   1.393924 A    
Zn1   O5    1.991565 S    
O1    Zn1   2.007638 S    
C11   N9    1.434527 S    
O2    Zn2   1.991563 S    
C23   H6    1.083119 S    
C45   H17   1.111849 S    
O6    C3    1.283772 A    
O4    Zn2   2.003321 S    
N13   C49   1.447823 S    
C5    O9    1.350239 S    
C9    C16   1.402252 A    
C49   H35   1.110869 S    
N2    C24   1.427968 S    
N1    C30   1.428249 S    
C8    C13   1.406887 A    
C41   N4    1.377232 A    
C19   C20   1.396421 A    
N8    H20   1.032619 S    
C19   H4    1.083474 S    
C16   H3    1.083258 S    
C37   N8    1.454504 S    
C46   H21   1.110462 S    
N12   C48   1.445377 S    
C49   H33   1.111530 S    
O2    C1    1.283349 A    
C40   H13   1.080917 S    
C48   H30   1.111426 S    
C19   C24   1.397709 A    
C34   C35   1.415609 A    
Zn2   O6    2.007639 S    
C26   C27   1.410725 A    
C6    O10   1.350058 S    
C11   C12   1.420932 A    
C28   N6    1.436928 S    
C47   H27   1.109740 S    
N1    C6    1.368163 A    
