data_mof_unit_9739.cif
_audit_creation_date              2012-12-11T15:48:06-0500
_audit_creation_method            fapswitch 2.2
_symmetry_space_group_name_H-M    P1
_symmetry_Int_Tables_number       1
_space_group_crystal_system       triclinic
_cell_length_a                    6.923492
_cell_length_b                    17.611845
_cell_length_c                    19.474436
_cell_angle_alpha                 108.602874
_cell_angle_beta                  89.775734
_cell_angle_gamma                 90.61313
_cell_volume                      2250.42688733

loop_
_atom_site_label
_atom_site_type_symbol
_atom_type_description
_atom_site_fract_x
_atom_site_fract_y
_atom_site_fract_z
_atom_type_partial_charge
O1    O     O_R   0.494330 0.415710 0.413720 -0.541301
O2    O     O_R   0.819360 0.430070 0.560210 -0.553328
O3    O     O_R   0.994320 0.584290 0.586280 -0.533717
C1    C     C_R   0.650211 0.414616 0.581646 0.723157
O4    O     O_R   0.823740 0.406290 0.412670 -0.554062
O5    O     O_R   0.998730 0.560340 0.437690 -0.510290
C2    C     C_R   0.654431 0.383206 0.384781 0.738657
O6    O     O_R   0.489920 0.439660 0.562310 -0.545706
O7    O     O_3   0.662330 0.550570 0.508380 -0.325697
V1    V     V_3+5 0.935370 0.490620 0.498440 1.529954
O8    O     O_R   0.328720 0.569930 0.439790 -0.509046
C3    C     C_R   0.160624 0.584865 0.417951 0.837464
O9    O     O_R   0.324340 0.593710 0.587330 -0.515185
C4    C     C_R   0.156151 0.615929 0.616125 0.748748
V2    V     V_3+5 0.435940 0.509380 0.501560 1.602804
O10   O     O_3   0.159110 0.449430 0.491620 -0.401901
C5    C     C_R   0.302898 0.702795 0.735736 0.378263
C6    C     C_R   0.289087 0.767833 0.799779 -0.143845
H1    H     H_    0.409840 0.781421 0.837119 0.179747
C7    C     C_R   0.120468 0.813765 0.816928 -0.113841
C8    C     C_R   0.964479 0.793433 0.768434 -0.119485
C9    C     C_R   0.978535 0.729744 0.703491 -0.121553
C10   C     C_R   0.147465 0.683617 0.685714 -0.136779
C11   C     C_R   0.294319 0.621615 0.312012 0.327776
C12   C     C_R   0.153904 0.633242 0.367504 -0.221586
C13   C     C_R   0.007225 0.690706 0.374109 0.300196
C14   C     C_R   0.998745 0.734677 0.324742 0.049888
C15   C     C_R   0.142658 0.724156 0.270576 -0.029279
C16   C     C_R   0.291759 0.668666 0.265184 -0.038611
C17   C     C_R   0.849756 0.789714 0.328616 -0.108159
C18   C     C_R   0.844162 0.834052 0.281006 -0.162049
C19   C     C_R   0.986234 0.824651 0.227820 0.155975
C20   C     C_R   0.136964 0.769358 0.221646 0.005674
C21   C     C_R   0.280282 0.759131 0.166724 -0.065738
C22   C     C_R   0.435642 0.706416 0.165619 0.407795
C23   C     C_R   0.437459 0.661891 0.213375 -0.148654
C24   C     C_R   0.978718 0.870503 0.181200 -0.179144
C25   C     C_R   0.115249 0.860705 0.126163 -0.173621
C26   C     C_R   0.260869 0.802298 0.116211 0.379767
H2    H     H_    0.735103 0.799159 0.368209 0.183922
H3    H     H_    0.727182 0.875844 0.285710 0.127254
H4    H     H_    0.865601 0.914450 0.187826 0.154209
H5    H     H_    0.559195 0.622990 0.210383 0.220257
C27   C     C_R   0.467430 0.185845 0.867444 -0.206925
C28   C     C_R   0.623269 0.135904 0.869989 -0.073818
C29   C     C_R   0.783893 0.132864 0.824624 -0.213751
C30   C     C_R   0.787783 0.177688 0.776367 0.093041
C31   C     C_R   0.631087 0.227679 0.774452 0.058252
C32   C     C_R   0.471094 0.232181 0.820583 0.084136
C33   C     C_R   0.945010 0.173001 0.729526 -0.182905
C34   C     C_R   0.948160 0.218010 0.681833 -0.182036
C35   C     C_R   0.794157 0.268586 0.680063 0.094032
C36   C     C_R   0.634218 0.273143 0.726227 0.056504
C37   C     C_R   0.477531 0.323139 0.724306 0.080087
C38   C     C_R   0.320369 0.327867 0.771187 -0.155726
C39   C     C_R   0.317170 0.282817 0.818855 -0.165463
C40   C     C_R   0.797652 0.314762 0.633080 -0.216450
C41   C     C_R   0.641751 0.364634 0.630459 -0.077896
C42   C     C_R   0.481323 0.367868 0.675960 -0.175956
H6    H     H_    0.343259 0.189072 0.902324 0.130253
H7    H     H_    0.904099 0.094317 0.825739 0.120066
H8    H     H_    0.066304 0.134799 0.730024 0.134524
H9    H     H_    0.071965 0.213636 0.646608 0.134203
H10   H     H_    0.921731 0.311433 0.598135 0.124546
H11   H     H_    0.361165 0.406436 0.674835 0.137968
H12   H     H_    0.199102 0.366087 0.770702 0.148833
H13   H     H_    0.193353 0.287180 0.854071 0.143839
C43   C     C_R   0.799003 0.261987 0.294782 -0.189818
H14   H     H_    0.927569 0.270963 0.328093 0.153042
C44   C     C_R   0.790357 0.196454 0.231046 0.385466
C45   C     C_R   0.623836 0.183109 0.186073 -0.130358
C46   C     C_R   0.467430 0.235701 0.208762 -0.157107
H15   H     H_    0.337870 0.227597 0.176132 0.176135
C47   C     C_R   0.476368 0.300108 0.273325 -0.091606
H16   H     H_    0.353416 0.339481 0.288718 0.151954
C48   C     C_R   0.643028 0.314375 0.316719 -0.111210
O11   O     O_R   0.774940 0.060470 0.937800 -0.550939
O12   O     O_R   0.440880 0.093730 0.087350 -0.537595
O13   O     O_R   0.266130 0.939630 0.062280 -0.518589
C49   C     C_R   0.610411 0.115747 0.116331 0.743547
O14   O     O_R   0.445480 0.069960 0.939820 -0.554555
O15   O     O_R   0.270770 0.915690 0.913690 -0.543642
C50   C     C_R   0.614672 0.085643 0.918572 0.677209
O16   O     O_R   0.770300 0.084410 0.086380 -0.511568
O17   O     O_3   0.602600 0.949510 0.991670 -0.351645
V3    V     V_3+5 0.329470 0.009370 0.001550 1.519837
O18   O     O_R   0.940760 0.906160 0.912560 -0.544573
C51   C     C_R   0.109613 0.882858 0.884853 0.712020
O19   O     O_R   0.936150 0.929930 0.060100 -0.525447
C52   C     C_R   0.104880 0.912903 0.079767 0.836717
V4    V     V_3+5 0.828930 0.990450 0.998310 1.550800
O20   O     O_3   0.105670 0.050490 0.008320 -0.371212
Cl1   Cl    Cl    0.513900 0.644792 0.723698 -0.655633
Cl2   Cl    Cl    0.391507 0.776627 0.033552 -0.532403
Cl3   Cl    Cl    0.646133 0.696944 0.112190 -0.542441
Cl4   Cl    Cl    0.989835 0.131436 0.213266 -0.701857
H17   H     H_    0.832589 0.827750 0.780026 0.134688
H18   H     H_    0.856858 0.717010 0.666653 0.186370
Cl5   Cl    Cl    0.466605 0.543906 0.297688 -0.649226
Cl6   Cl    Cl    0.839758 0.711059 0.446920 -0.644647

loop_
_geom_bond_atom_site_label_1
_geom_bond_atom_site_label_2
_ccdc_geom_bond_type
C27   C32   A    
O18   C51   A    
C9    H18   S    
O18   V4    S    
C11   Cl5   S    
C44   Cl4   S    
C22   C23   A    
C49   O16   A    
O17   V4    S    
C39   H13   S    
C36   C37   A    
C35   C36   A    
C16   C23   A    
C13   C14   A    
C5    C10   A    
C47   C48   A    
C15   C16   A    
C6    H1    S    
O5    C3    A    
C17   C18   A    
O12   C49   A    
O11   C50   A    
V2    O10   S    
C21   C22   A    
C24   H4    S    
C11   C16   A    
O13   C52   A    
C37   C38   A    
O8    V2    S    
C18   C19   A    
C43   H14   S    
C44   C45   A    
O1    V2    S    
O16   V4    S    
O19   V4    S    
O7    V1    S    
O14   V3    S    
C1    O6    A    
O12   V3    S    
O9    C4    A    
C14   C17   A    
C28   C50   S    
C45   C49   S    
O14   C50   A    
C20   C21   A    
C30   C33   A    
C37   C42   A    
C31   C36   A    
C47   H16   S    
C29   H7    S    
C34   C35   A    
C34   H9    S    
C11   C12   A    
C46   C47   A    
V4    O20   S    
O4    C2    A    
C33   C34   A    
C12   C13   A    
O17   V3    S    
C21   C26   A    
C4    C10   S    
O2    C1    A    
C26   Cl2   S    
C24   C25   A    
C8    H17   S    
C30   C31   A    
C38   C39   A    
C5    C6    A    
C17   H2    S    
C19   C24   A    
O3    C4    A    
C31   C32   A    
C15   C20   A    
O6    V2    S    
O9    V2    S    
C33   H8    S    
C5    Cl1   S    
O2    V1    S    
C38   H12   S    
C27   C28   A    
C40   H10   S    
C29   C30   A    
O11   V4    S    
C18   H3    S    
O1    C2    A    
C46   H15   S    
O5    V1    S    
O8    C3    A    
C2    C48   S    
C22   Cl3   S    
C43   C48   A    
C32   C39   A    
C25   C52   S    
C3    C12   S    
C19   C20   A    
C41   C42   A    
C45   C46   A    
O3    V1    S    
V1    O10   S    
C42   H11   S    
O15   V3    S    
C40   C41   A    
C25   C26   A    
C27   H6    S    
O15   C51   A    
C7    C51   S    
C6    C7    A    
O7    V2    S    
C35   C40   A    
C28   C29   A    
O4    V1    S    
C7    C8    A    
C43   C44   A    
C1    C41   S    
C14   C15   A    
C9    C10   A    
C23   H5    S    
V3    O20   S    
O19   C52   A    
C8    C9    A    
O13   V3    S    
C13   Cl6   S    
