data_mof_unit_25167.cif
_audit_creation_date              2012-12-10T16:56:33-0500
_audit_creation_method            fapswitch 2.2
_symmetry_space_group_name_H-M    P1
_symmetry_Int_Tables_number       1
_space_group_crystal_system       triclinic
_cell_length_a                    7.846133
_cell_length_b                    8.571639
_cell_length_c                    15.7192
_cell_angle_alpha                 91.906275
_cell_angle_beta                  86.012785
_cell_angle_gamma                 92.801664
_cell_volume                      1052.88983765

loop_
_atom_site_label
_atom_site_type_symbol
_atom_type_description
_atom_site_fract_x
_atom_site_fract_y
_atom_site_fract_z
_atom_type_partial_charge
C1    C     C_R   0.543964 0.793979 0.498522 0.908295
C2    C     C_3   0.387125 0.388415 0.027618 -0.119768
C3    C     C_1   0.508084 0.499805 0.750021 -0.042770
C4    C     C_1   0.492032 0.500881 0.249992 -0.020093
C5    C     C_3   0.346190 0.527130 0.973428 -0.106529
C6    C     C_3   0.654398 0.475497 0.026513 -0.123553
C7    C     C_3   0.509329 0.500042 0.915934 0.071257
C8    C     C_3   0.491109 0.502193 0.084111 0.103326
C9    C     C_1   0.511321 0.499651 0.825042 0.098192
C10   C     C_1   0.488946 0.501756 0.174980 0.148073
C11   C     C_2   0.737160 0.742875 0.943021 0.498734
C12   C     C_R   0.456036 0.206020 0.501476 0.904172
C13   C     C_2   0.259552 0.261875 0.056459 0.416854
C14   C     C_2   0.395145 0.798523 0.063192 0.503957
C15   C     C_2   0.607034 0.204153 0.937671 0.396377
C16   C     C_2   0.825225 0.445544 0.058095 0.449454
C17   C     C_2   0.176867 0.553783 0.939395 0.449410
C18   C     C_R   0.502346 0.500173 0.661599 0.885554
C19   C     C_R   0.497659 0.499864 0.338403 0.881508
C20   C     C_2   0.562421 0.955785 0.511903 0.107944
C21   C     C_2   0.437581 0.044215 0.488092 0.106336
C22   C     C_3   0.450032 0.641028 0.030496 -0.067757
C23   C     C_3   0.550411 0.361459 0.969588 -0.122786
C24   C     C_3   0.613079 0.614121 0.972309 -0.116930
Cl1   Cl    Cl    0.727659 0.020560 0.578723 -0.435376
Cl2   Cl    Cl    0.272346 0.979438 0.421271 -0.428486
Cl3   Cl    Cl    0.039618 0.330256 0.401842 -0.335180
Cl4   Cl    Cl    0.960383 0.669767 0.598146 -0.346484
H1    H     H_    0.798758 0.817843 0.989853 0.103272
H2    H     H_    0.195631 0.189290 0.009407 0.056329
H3    H     H_    0.373541 0.887793 0.018345 0.066027
H4    H     H_    0.631514 0.116602 0.982995 0.044099
H5    H     H_    0.889863 0.340633 0.037244 0.043405
H6    H     H_    0.111456 0.460559 0.904301 0.059881
N1    N     N_2   0.950320 0.457950 0.477300 0.139255
N2    N     N_2   0.049680 0.542050 0.522700 0.137160
O1    O     O_R   0.389250 0.738570 0.505570 -0.584307
O2    O     O_2   0.227004 0.239755 0.132239 -0.480244
O3    O     O_2   0.374996 0.827326 0.139650 -0.502522
O4    O     O_2   0.625745 0.173704 0.861333 -0.500452
O5    O     O_2   0.892520 0.539262 0.106987 -0.503524
O6    O     O_2   0.113044 0.680362 0.950056 -0.544614
O7    O     O_R   0.610750 0.261430 0.494430 -0.585229
O8    O     O_R   0.678390 0.711630 0.491020 -0.559462
O9    O     O_R   0.321610 0.288370 0.508980 -0.562997
O10   O     O_R   0.355460 0.513480 0.630490 -0.611664
O11   O     O_R   0.644540 0.486520 0.369510 -0.599661
O12   O     O_R   0.644600 0.486540 0.615950 -0.567398
O13   O     O_R   0.355400 0.513460 0.384050 -0.566235
O14   O     O_2   0.768679 0.764816 0.867150 -0.484788
Zn1   Zn    Zn3+2 0.306940 0.517990 0.509710 1.167280
Zn2   Zn    Zn3+2 0.693060 0.482010 0.490290 1.172656

loop_
_geom_bond_atom_site_label_1
_geom_bond_atom_site_label_2
_ccdc_geom_bond_type
C8    C22   S    
C21   Cl2   S    
O11   Zn2   S    
C3    C9    T    
C16   H5    S    
C19   O13   A    
C1    O8    A    
N1    N2    D    
C1    O1    A    
C14   H3    S    
C6    C24   S    
C15   O4    D    
C14   C22   S    
C15   C23   S    
C15   H4    S    
C11   O14   D    
C11   H1    S    
O8    Zn2   S    
C13   O2    D    
N2    Zn1   S    
C7    C23   S    
C6    C23   S    
C18   O10   A    
C12   O7    A    
C22   C24   S    
C2    C23   S    
O1    Zn1   S    
C19   O11   A    
O7    Zn2   S    
C2    C5    S    
C5    C17   S    
C20   Cl1   S    
O9    Zn1   S    
C16   O5    D    
C4    C10   T    
C7    C24   S    
C12   C21   S    
C7    C9    S    
C11   C24   S    
O12   Zn2   S    
C20   C21   D    
Cl4   N2    S    
C3    C18   S    
C8    C10   S    
C17   H6    S    
N1    Zn2   S    
C5    C7    S    
C2    C13   S    
C17   O6    D    
C1    C20   S    
C6    C8    S    
Cl3   N1    S    
C14   O3    D    
C13   H2    S    
C4    C19   S    
C6    C16   S    
O10   Zn1   S    
C2    C8    S    
C5    C22   S    
C12   O9    A    
O13   Zn1   S    
C18   O12   A    
