data_mof_unit_46194.cif
_audit_creation_date              2013-03-05T16:00:11-0500
_audit_creation_method            fapswitch 2.2
_symmetry_space_group_name_H-M    P1
_symmetry_Int_Tables_number       1
_space_group_crystal_system       triclinic
_cell_length_a                    12.897442
_cell_length_b                    13.134121
_cell_length_c                    23.430258
_cell_angle_alpha                 94.103882
_cell_angle_beta                  103.790261
_cell_angle_gamma                 81.1553
_cell_volume                      3806.24006063

loop_
_atom_site_label
_atom_site_type_symbol
_atom_site_description
_atom_site_fract_x
_atom_site_fract_y
_atom_site_fract_z
_atom_type_partial_charge
O1    O     O_R   0.366740 0.627150 0.485570 -0.565345
O2    O     O_R   0.544830 0.662520 0.504870 -0.618593
C1    C     C_R   0.439226 0.691812 0.496043 0.881412
O3    O     O_R   0.410930 0.482340 0.574190 -0.574547
O4    O     O_R   0.589010 0.517710 0.593490 -0.614363
C2    C     C_R   0.502901 0.501417 0.610768 0.938422
Zn1   Zn    Zn3+2 0.381090 0.476380 0.487110 1.037386
Zn2   Zn    Zn3+2 0.618910 0.523620 0.512890 1.009521
O5    O     O_R   0.455170 0.337480 0.495130 -0.610038
O6    O     O_R   0.633260 0.372850 0.514430 -0.578981
O7    O     O_R   0.410990 0.482290 0.406510 -0.596878
O8    O     O_R   0.589070 0.517660 0.425810 -0.620642
C3    C     C_R   0.561986 0.308379 0.507596 0.917119
C4    C     C_R   0.496948 0.501594 0.389795 0.944360
C5    C     C_R   0.578680 0.457770 0.131249 0.599419
N1    N     N_R   0.514266 0.537462 0.151879 -0.330230
C6    C     C_R   0.463265 0.618094 0.117180 0.568517
C7    C     C_R   0.487440 0.626452 0.062337 -0.113604
C8    C     C_R   0.536335 0.536307 0.037298 -0.011257
C9    C     C_R   0.576495 0.447424 0.071023 -0.084085
C10   C     C_R   0.461429 0.719217 0.031217 -0.026584
C11   C     C_R   0.478405 0.719340 0.973995 0.040056
C12   C     C_R   0.517053 0.625688 0.946528 -0.075325
C13   C     C_R   0.543207 0.534160 0.978298 -0.024657
C14   C     C_R   0.575014 0.439495 0.950848 -0.018247
C15   C     C_R   0.610356 0.350573 0.983538 -0.162295
C16   C     C_R   0.613275 0.353302 0.043504 -0.048555
C17   C     C_R   0.529912 0.618570 0.888132 0.603858
N2    N     N_R   0.545305 0.524119 0.860315 -0.344891
C18   C     C_R   0.566703 0.435137 0.890354 0.553970
O9    O     O_2   0.644216 0.389884 0.169086 -0.516536
O10   O     O_2   0.388529 0.687937 0.135344 -0.521935
O11   O     O_2   0.526228 0.703985 0.858636 -0.522783
O12   O     O_2   0.579231 0.342886 0.861602 -0.527804
H1    H     H_    0.634486 0.277809 0.962118 0.216958
C19   C     C_R   0.622970 0.473313 0.774060 0.044385
C20   C     C_R   0.606612 0.458404 0.712891 -0.011347
C21   C     C_R   0.512014 0.508200 0.675183 -0.122382
C22   C     C_R   0.432677 0.569820 0.700489 -0.099939
C23   C     C_R   0.437507 0.559066 0.760375 -0.059954
C24   C     C_R   0.535683 0.519061 0.797818 0.080577
C25   C     C_R   0.521978 0.615458 0.252027 -0.054876
C26   C     C_R   0.506811 0.609278 0.308991 0.047799
C27   C     C_R   0.488503 0.513872 0.327206 -0.082714
C28   C     C_R   0.468141 0.430527 0.285954 -0.140042
C29   C     C_R   0.462921 0.446250 0.226336 0.089043
C30   C     C_R   0.498526 0.534013 0.210518 0.176720
C31   C     C_R   0.722111 0.056749 0.572951 0.051590
C32   C     C_R   0.602235 0.197891 0.518708 -0.131293
C33   C     C_R   0.297708 0.844760 0.462149 -0.039954
C34   C     C_R   0.267019 0.951481 0.462258 -0.152291
C35   C     C_R   0.342599 0.016831 0.486050 -0.186385
C36   C     C_R   0.450336 0.976587 0.510853 0.090738
C37   C     C_R   0.471227 0.873619 0.527185 0.022310
C38   C     C_R   0.536062 0.036500 0.523669 -0.007296
C39   C     C_R   0.634101 0.000033 0.563518 0.068141
C40   C     C_R   0.640301 0.909024 0.593697 -0.117814
C41   C     C_R   0.556685 0.847575 0.576622 -0.110324
C42   C     C_R   0.529651 0.128793 0.495215 0.034563
C43   C     C_R   0.704846 0.159227 0.554403 -0.119089
C44   C     C_R   0.400617 0.803894 0.496446 -0.165504
H2    H     H_    0.314784 0.098405 0.486672 0.153076
H3    H     H_    0.186284 0.984644 0.440392 0.186081
C45   C     C_R   0.070296 0.395289 0.396097 -0.127805
N3    N     N_R   0.222200 0.444670 0.469780 -0.190133
C46   C     C_R   0.807608 0.586563 0.586895 0.031211
C47   C     C_R   0.915550 0.572399 0.616238 -0.092117
C48   C     C_R   0.991666 0.531519 0.584327 -0.218174
C49   C     C_R   0.963093 0.514916 0.522708 0.021293
C50   C     C_R   0.850922 0.518773 0.496934 0.157520
C51   C     C_R   0.040149 0.480764 0.487211 -0.049566
C52   C     C_R   0.000143 0.450179 0.428304 0.010318
C53   C     C_R   0.889623 0.475754 0.402890 -0.168685
C54   C     C_R   0.818894 0.476902 0.439279 -0.098163
C55   C     C_R   0.153261 0.485260 0.505024 0.038824
C56   C     C_R   0.180970 0.399992 0.415880 -0.041451
N4    N     N_R   0.776960 0.554790 0.529910 -0.145108
H4    H     H_    0.746707 0.612078 0.611133 0.223917
H5    H     H_    0.070001 0.503443 0.609536 0.221343
C57   C     C_2   0.425710 0.819404 0.059245 1.047782
O13   O     O_2   0.477806 0.846986 0.107068 -0.570263
O14   O     O_R   0.334004 0.883084 0.030226 -0.756191
H6    H     H_    0.318444 0.949464 0.053492 0.363891
N5    N     N_3   0.514797 0.699559 0.347943 -0.396764
H7    H     H_    0.504355 0.687389 0.389418 0.192715
H8    H     H_    0.449295 0.754701 0.330685 0.244966
C58   C     C_2   0.459613 0.325979 0.304954 0.963157
O15   O     O_2   0.508298 0.296980 0.353722 -0.600504
O16   O     O_R   0.395992 0.260109 0.267548 -0.802315
H9    H     H_    0.399082 0.191286 0.285384 0.384107
N6    N     N_3   0.426663 0.372226 0.180666 -0.402022
H10   H     H_    0.346737 0.364758 0.179658 0.242757
H11   H     H_    0.476005 0.301400 0.188712 0.283850
C59   C     C_2   0.796507 0.219970 0.571889 1.022150
O17   O     O_2   0.787606 0.301783 0.599494 -0.642084
O18   O     O_R   0.895540 0.181069 0.558524 -0.769919
H12   H     H_    0.952249 0.228301 0.573447 0.361173
C60   C     C_2   0.722723 0.887423 0.649435 0.982510
O19   O     O_2   0.779807 0.803809 0.655547 -0.603345
O20   O     O_R   0.733997 0.963017 0.694804 -0.759909
H13   H     H_    0.792605 0.939428 0.730415 0.366760
N7    N     N_3   0.828504 0.009288 0.601003 -0.428067
H14   H     H_    0.860708 0.055126 0.637298 0.228313
H15   H     H_    0.877499 0.001032 0.570850 0.250892
N8    N     N_3   0.465128 0.145319 0.436722 -0.368802
H16   H     H_    0.388198 0.179587 0.438972 0.240214
H17   H     H_    0.461521 0.075368 0.412530 0.212367
C61   C     C_2   0.221801 0.780635 0.423964 0.976209
O21   O     O_2   0.126576 0.794875 0.425607 -0.559220
O22   O     O_R   0.257910 0.707585 0.384000 -0.803830
H18   H     H_    0.198383 0.669364 0.360144 0.385288
N9    N     N_3   0.453959 0.815649 0.944857 -0.389944
H19   H     H_    0.394843 0.809621 0.906050 0.277217
H20   H     H_    0.524224 0.834957 0.936225 0.251543
C62   C     C_2   0.533897 0.794557 0.624504 0.963324
O23   O     O_2   0.584970 0.711275 0.640075 -0.614855
O24   O     O_R   0.465662 0.849256 0.657856 -0.752716
H21   H     H_    0.471148 0.815646 0.696261 0.362497
C63   C     C_2   0.243255 0.379870 0.371079 1.055672
O25   O     O_2   0.295943 0.295793 0.366675 -0.640332
O26   O     O_R   0.226648 0.452501 0.327752 -0.748869
H22   H     H_    0.257457 0.425257 0.292904 0.355771
C64   C     C_2   0.848674 0.499927 0.339656 1.015957
O27   O     O_2   0.908136 0.529403 0.312619 -0.562975
O28   O     O_R   0.741972 0.492314 0.311289 -0.747096
H23   H     H_    0.727175 0.505088 0.267793 0.373882
C65   C     C_2   0.028203 0.325182 0.345294 0.937167
O29   O     O_2   0.961110 0.271350 0.349474 -0.591627
O30   O     O_R   0.063252 0.321269 0.293013 -0.734812
H24   H     H_    0.027710 0.271055 0.262410 0.370665
C66   C     C_2   0.189067 0.559238 0.551605 0.987503
O31   O     O_2   0.233349 0.528729 0.600519 -0.631676
O32   O     O_R   0.157180 0.664270 0.541473 -0.751222
H25   H     H_    0.165343 0.708835 0.578815 0.359488
C67   C     C_2   0.948314 0.592357 0.680685 0.989789
O33   O     O_2   0.880676 0.606900 0.710297 -0.579566
O34   O     O_R   0.056927 0.594859 0.707797 -0.741602
H26   H     H_    0.068774 0.610287 0.751709 0.368608
C68   C     C_2   0.776096 0.377509 0.432127 1.038129
O35   O     O_2   0.804713 0.317300 0.471845 -0.613976
O36   O     O_R   0.718182 0.345079 0.377393 -0.724747
H27   H     H_    0.709188 0.269579 0.376201 0.375438
C69   C     C_2   0.643692 0.253304 0.072995 1.011059
O37   O     O_2   0.586991 0.226820 0.102687 -0.581537
O38   O     O_R   0.734280 0.186661 0.063879 -0.770026
H28   H     H_    0.745920 0.119994 0.085311 0.366230
C70   C     C_2   0.731107 0.441314 0.813029 1.020827
O39   O     O_2   0.764765 0.495288 0.856186 -0.601225
O40   O     O_R   0.794526 0.349923 0.800625 -0.736461
H29   H     H_    0.865990 0.337175 0.830440 0.361310
N10   N     N_3   0.688148 0.394035 0.689813 -0.353026
H30   H     H_    0.728643 0.440155 0.670640 0.264589
H31   H     H_    0.651216 0.341345 0.659019 0.214038
C71   C     C_2   0.357609 0.657280 0.668963 0.986497
O41   O     O_2   0.363248 0.678287 0.619988 -0.634772
O42   O     O_R   0.283967 0.719882 0.696134 -0.749845
H32   H     H_    0.242780 0.780136 0.671684 0.355424
C72   C     C_2   0.338185 0.578449 0.783042 1.018467
O43   O     O_2   0.279745 0.511486 0.776065 -0.577661
O44   O     O_R   0.311519 0.671816 0.812255 -0.745853
H33   H     H_    0.242229 0.674602 0.825931 0.345161
C73   C     C_2   0.570807 0.703268 0.237544 1.022494
O45   O     O_2   0.644387 0.686650 0.211962 -0.601702
O46   O     O_R   0.532922 0.804634 0.252805 -0.754678
H34   H     H_    0.572796 0.856888 0.240420 0.378330

loop_
_geom_bond_atom_site_label_1
_geom_bond_atom_site_label_2
_geom_bond_distance
_ccdc_geom_bond_type
C33   C61   1.482020 S    
C58   O15   1.221349 D    
C38   C42   1.406880 A    
C7    C10   1.418993 A    
C53   C54   1.387087 A    
C8    C9    1.416489 A    
C31   C39   1.417421 A    
C38   C39   1.419476 A    
C45   C52   1.398177 A    
N9    H20   1.044942 S    
O38   H28   1.013892 S    
C40   C41   1.410745 A    
C64   O27   1.223655 D    
C36   C37   1.400303 A    
C39   C40   1.414146 A    
Zn1   O7    2.024467 S    
N8    H17   1.045750 S    
C15   C16   1.394549 A    
C42   N8    1.435689 S    
C32   C43   1.426617 A    
C23   C72   1.480718 S    
C19   C20   1.401893 A    
C70   O40   1.398500 S    
N5    H8    1.045300 S    
C73   O45   1.223221 D    
C37   C41   1.416224 A    
O4    C2    1.320193 A    
N7    H15   1.044515 S    
O7    C4    1.324534 A    
C64   O28   1.393693 S    
N6    H11   1.044851 S    
C5    N1    1.367853 A    
C61   O21   1.222985 D    
C69   O38   1.398046 S    
C7    C8    1.411031 A    
C49   C51   1.443668 A    
O5    C3    1.338491 A    
O22   H18   1.013727 S    
N7    H14   1.045654 S    
O36   H27   1.013610 S    
C70   O39   1.223207 D    
C48   C49   1.412008 A    
C62   O24   1.397980 S    
C50   C54   1.412592 A    
C16   C69   1.482746 S    
C12   C13   1.413042 A    
C2    C21   1.482893 S    
N2    C18   1.365042 A    
Zn2   N4    2.080288 S    
C71   O42   1.398794 S    
C52   C53   1.405688 A    
N2    C24   1.437370 S    
C48   H5    1.066644 S    
C1    C44   1.479845 S    
C46   C47   1.388461 A    
N10   H30   1.043833 S    
C10   C11   1.409198 A    
C50   N4    1.375133 A    
C72   O44   1.397481 S    
C26   N5    1.444782 S    
O46   H34   1.013852 S    
C19   C24   1.407544 A    
C59   O17   1.218262 D    
C20   N10   1.430135 S    
O3    Zn1   1.982209 S    
N1    C30   1.440703 S    
N9    H19   1.045036 S    
C55   C66   1.447203 S    
C31   C43   1.412619 A    
C73   O46   1.397929 S    
C36   C38   1.416786 A    
C5    C9    1.401886 A    
C46   H4    1.075291 S    
C68   O35   1.216320 D    
C56   C63   1.453982 S    
O26   H22   1.010798 S    
C18   O12   1.350135 S    
C22   C71   1.497001 S    
C47   C48   1.393352 A    
C67   O33   1.223595 D    
C34   H3    1.083785 S    
C13   C14   1.407939 A    
C57   O14   1.398066 S    
N6    H10   1.044972 S    
N1    C6    1.367209 A    
C29   N6    1.435729 S    
C53   C64   1.489155 S    
C14   C15   1.398678 A    
C28   C29   1.410873 A    
C34   C35   1.388309 A    
O1    C1    1.326828 A    
O42   H32   1.013501 S    
C72   O43   1.221835 D    
C47   C67   1.483440 S    
C26   C27   1.422560 A    
C65   O30   1.398343 S    
C20   C21   1.421386 A    
Zn1   N3    2.092705 S    
O32   H25   1.010410 S    
C19   C70   1.490998 S    
Zn2   O8    1.982209 S    
C45   C65   1.499416 S    
C31   N7    1.438443 S    
O18   H12   1.014206 S    
C6    C7    1.407895 A    
C45   C56   1.401343 A    
C54   C68   1.477541 S    
C33   C34   1.396698 A    
C12   C17   1.411901 A    
N5    H7    1.038894 S    
C59   O18   1.399148 S    
N3    C56   1.375396 A    
C71   O41   1.220438 D    
C63   O26   1.399472 S    
C3    C32   1.483622 S    
O3    C2    1.334299 A    
C23   C24   1.407416 A    
C9    C16   1.421405 A    
O8    C4    1.319810 A    
C17   O11   1.348088 S    
O14   H6    1.013845 S    
C60   O20   1.398762 S    
C58   O16   1.398870 S    
O28   H23   1.012466 S    
C6    O10   1.348895 S    
C25   C26   1.403951 A    
C66   O31   1.218012 D    
C22   C23   1.405947 A    
C35   C36   1.407494 A    
C4    C27   1.463109 S    
O30   H24   1.013811 S    
O34   H26   1.013779 S    
C14   C18   1.393419 A    
C67   O34   1.397817 S    
C46   N4    1.353676 A    
C29   C30   1.407831 A    
C17   N2    1.368692 A    
C28   C58   1.501034 S    
O1    Zn1   1.962452 S    
O2    Zn2   1.924532 S    
C27   C28   1.420368 A    
C57   O13   1.223127 D    
C66   O32   1.397996 S    
O6    C3    1.318123 A    
C32   C42   1.395381 A    
O4    Zn2   2.024466 S    
C63   O25   1.215817 D    
C25   C73   1.491022 S    
C5    O9    1.348894 S    
C65   O29   1.223415 D    
C37   C44   1.426926 A    
N8    H16   1.036343 S    
C11   N9    1.436630 S    
N3    C55   1.377666 A    
O44   H33   1.013633 S    
O2    C1    1.327343 A    
C51   C52   1.406224 A    
C35   H2    1.076508 S    
O24   H21   1.013137 S    
C51   C55   1.427798 A    
C68   O36   1.395330 S    
C41   C62   1.470324 S    
C21   C22   1.421087 A    
C40   C60   1.488115 S    
C10   C57   1.486310 S    
O20   H13   1.013840 S    
C61   O22   1.398616 S    
C8    C13   1.404190 A    
C25   C30   1.411395 A    
N10   H31   1.045188 S    
C49   C50   1.423240 A    
Zn1   O5    1.924531 S    
C15   H1    1.084629 S    
Zn2   O6    1.962451 S    
C60   O19   1.221550 D    
C33   C44   1.424666 A    
C11   C12   1.423615 A    
C62   O23   1.218386 D    
O16   H9    1.014085 S    
O40   H29   1.013852 S    
C69   O37   1.222780 D    
C43   C59   1.488039 S    
