data_mof_unit_31585.cif
_audit_creation_date              2012-12-11T20:51:02-0500
_audit_creation_method            fapswitch 2.2
_symmetry_space_group_name_H-M    P1
_symmetry_Int_Tables_number       1
_space_group_crystal_system       triclinic
_cell_length_a                    30.329247
_cell_length_b                    34.364983
_cell_length_c                    8.437478
_cell_angle_alpha                 90.000336
_cell_angle_beta                  90.402588
_cell_angle_gamma                 89.942686
_cell_volume                      8793.8585685

loop_
_atom_site_label
_atom_site_type_symbol
_atom_type_description
_atom_site_fract_x
_atom_site_fract_y
_atom_site_fract_z
_atom_type_partial_charge
Ba1   Ba    Ba6+2 0.999930 0.472870 0.844940 1.645260
Ba2   Ba    Ba6+2 0.999930 0.527130 0.344940 1.652718
Ba3   Ba    Ba6+2 0.499930 0.972870 0.844940 1.642454
Ba4   Ba    Ba6+2 0.499930 0.027130 0.344940 1.642462
C1    C     C_3   0.023671 0.285111 0.558503 -0.200298
C2    C     C_R   0.214998 0.332570 0.534601 0.586410
C3    C     C_R   0.402760 0.087231 0.691479 0.036221
C4    C     C_R   0.870374 0.384901 0.149047 -0.097255
C5    C     C_R   0.870754 0.615264 0.648141 -0.096372
C6    C     C_R   0.370277 0.885107 0.150344 -0.097309
C7    C     C_R   0.370748 0.115450 0.648169 -0.098658
C8    C     C_R   0.860315 0.352524 0.247885 0.209649
C9    C     C_R   0.861241 0.648061 0.745176 0.211027
C10   C     C_R   0.360251 0.852815 0.249545 0.209788
C11   C     C_R   0.360807 0.147942 0.746759 0.208766
C12   C     C_2   0.081060 0.590582 0.854178 -0.237057
C13   C     C_R   0.713318 0.168655 0.041046 0.586714
C14   C     C_2   0.076172 0.406754 0.367006 -0.229797
C15   C     C_2   0.575652 0.093782 0.868317 -0.234007
C16   C     C_2   0.575690 0.906296 0.367924 -0.233641
C17   C     C_3   0.154513 0.498258 0.998538 0.333559
C18   C     C_3   0.151128 0.505612 0.503829 0.311377
C19   C     C_3   0.653012 0.996881 0.998455 0.328757
C20   C     C_3   0.652700 0.003377 0.498854 0.327956
C21   C     C_3   0.202426 0.512592 0.985577 -0.269803
C22   C     C_3   0.198759 0.492858 0.469717 -0.249995
C23   C     C_3   0.700954 0.010150 0.975113 -0.261116
C24   C     C_R   0.714033 0.831538 0.533824 0.586534
C25   C     C_3   0.700656 0.990252 0.474123 -0.260538
C26   C     C_3   0.874334 0.525061 0.015376 0.294217
C27   C     C_3   0.873307 0.475518 0.514324 0.294951
C28   C     C_3   0.373521 0.024652 0.014180 0.294754
C29   C     C_3   0.373626 0.975336 0.514693 0.293639
C30   C     C_3   0.832845 0.549981 0.011708 -0.341799
C31   C     C_3   0.831527 0.451040 0.512249 -0.343679
C32   C     C_3   0.331759 0.049226 0.011314 -0.343653
C33   C     C_3   0.331896 0.950794 0.512076 -0.342272
C34   C     C_3   0.997608 0.322501 0.528884 0.305250
C35   C     C_R   0.156368 0.722114 0.982765 0.604947
C36   C     C_3   0.006077 0.673714 0.074773 0.379019
C37   C     C_3   0.496903 0.821615 0.531340 0.303032
C38   C     C_3   0.496996 0.178014 0.029799 0.304016
C39   C     C_R   0.925922 0.408765 0.325796 -0.294926
C40   C     C_R   0.927291 0.592124 0.822640 -0.290689
C41   C     C_R   0.426424 0.908613 0.325305 -0.294559
C42   C     C_R   0.426021 0.091286 0.825572 -0.294567
C43   C     C_3   0.206430 0.556379 0.996421 -0.335020
C44   C     C_3   0.203283 0.449067 0.454672 -0.336980
C45   C     C_3   0.705701 0.053979 0.975313 -0.336387
C46   C     C_R   0.162879 0.283651 0.456433 0.603277
C47   C     C_3   0.705527 0.946431 0.471802 -0.335154
C48   C     C_3   0.058982 0.290508 0.686461 -0.299545
C49   C     C_3   0.041622 0.730686 0.217241 -0.296021
C50   C     C_3   0.558180 0.789932 0.690415 -0.296380
C51   C     C_3   0.558046 0.210176 0.188164 -0.298986
C52   C     C_3   0.156013 0.453822 0.000868 -0.266709
C53   C     C_3   0.151222 0.549433 0.531305 -0.266406
C54   C     C_3   0.653408 0.952636 0.011174 -0.270979
C55   C     C_3   0.652872 0.047565 0.513336 -0.271722
C56   C     C_R   0.661552 0.217672 0.960462 0.602808
C57   C     C_R   0.661400 0.782451 0.462791 0.602926
C58   C     C_R   0.187489 0.751521 0.025278 -0.052786
C59   C     C_R   0.192745 0.253443 0.502513 -0.057856
C60   C     C_R   0.691538 0.247799 0.006269 -0.057731
C61   C     C_3   0.018206 0.716808 0.067119 -0.227848
C62   C     C_R   0.691429 0.752380 0.509166 -0.057420
C63   C     C_R   0.230095 0.739896 0.076356 -0.080701
C64   C     C_R   0.234928 0.264040 0.561686 -0.078056
C65   C     C_R   0.733671 0.237064 0.065682 -0.078413
C66   C     C_R   0.734075 0.763151 0.563136 -0.078361
C67   C     C_R   0.283136 0.688723 0.135108 -0.073636
C68   C     C_R   0.288257 0.313945 0.633157 -0.074174
C69   C     C_R   0.786738 0.186952 0.138285 -0.074313
C70   C     C_R   0.788131 0.813280 0.624179 -0.074358
C71   C     C_R   0.817740 0.215276 0.177998 -0.073855
C72   C     C_3   0.522724 0.784208 0.563208 -0.198874
C73   C     C_R   0.819258 0.784961 0.663060 -0.073916
C74   C     C_R   0.314945 0.716433 0.173958 -0.073612
C75   C     C_R   0.319013 0.285467 0.674388 -0.073506
C76   C     C_R   0.807479 0.255038 0.164818 -0.011317
C77   C     C_R   0.808544 0.745226 0.655539 -0.011651
C78   C     C_R   0.305181 0.756382 0.166410 -0.011017
C79   C     C_R   0.308524 0.245740 0.662205 -0.010885
C80   C     C_R   0.765275 0.265999 0.109505 -0.052692
C81   C     C_R   0.765783 0.734252 0.606646 -0.053591
C82   C     C_R   0.262627 0.768173 0.118033 -0.053165
C83   C     C_3   0.522684 0.215519 0.060300 -0.199648
C84   C     C_R   0.266336 0.234967 0.606441 -0.052670
C85   C     C_R   0.177959 0.792157 0.019248 0.203816
C86   C     C_R   0.182413 0.213036 0.492637 0.201349
C87   C     C_R   0.681410 0.288256 0.995711 0.201609
C88   C     C_R   0.680882 0.711962 0.504252 0.201330
C89   C     C_3   0.989175 0.334189 0.068249 0.301439
C90   C     C_3   0.987614 0.672583 0.589839 0.326898
C91   C     C_3   0.488141 0.834438 0.070004 0.302189
C92   C     C_3   0.487902 0.165578 0.567958 0.302041
C93   C     C_R   0.712628 0.316253 0.041979 -0.066996
C94   C     C_R   0.240530 0.699972 0.086014 -0.009861
C95   C     C_R   0.712208 0.684011 0.550616 -0.066175
C96   C     C_R   0.210170 0.819475 0.062605 -0.067761
C97   C     C_R   0.213481 0.184925 0.539411 -0.066896
C98   C     C_R   0.754671 0.305728 0.098514 -0.061557
C99   C     C_R   0.754769 0.694553 0.601459 -0.061989
C100  C     C_R   0.252579 0.808084 0.111844 -0.061896
C101  C     C_R   0.255537 0.195281 0.596030 -0.061778
C102  C     C_R   0.786120 0.334133 0.146028 0.606133
C103  C     C_R   0.786375 0.666229 0.648980 0.605825
C104  C     C_R   0.284994 0.835830 0.156471 0.605560
C105  C     C_R   0.246064 0.303732 0.576555 -0.010143
C106  C     C_R   0.286808 0.166734 0.644100 0.606487
C107  C     C_R   0.838658 0.283933 0.206101 0.579682
C108  C     C_R   0.839841 0.716361 0.696058 0.587282
C109  C     C_R   0.337164 0.784677 0.206502 0.580123
C110  C     C_R   0.339460 0.216693 0.704901 0.578673
C111  C     C_2   0.110742 0.653922 0.807115 -0.102534
C112  C     C_2   0.124916 0.356758 0.277742 -0.066519
C113  C     C_2   0.623213 0.144924 0.782002 -0.067933
C114  C     C_2   0.623316 0.855209 0.281056 -0.067222
C115  C     C_3   0.074215 0.627956 0.782242 -0.060558
C116  C     C_R   0.744563 0.197358 0.081790 -0.009073
C117  C     C_3   0.098084 0.389856 0.233438 -0.060887
C118  C     C_3   0.597246 0.111491 0.735996 -0.061885
C119  C     C_3   0.597327 0.888671 0.235345 -0.061806
C120  C     C_1   0.099415 0.587835 0.004279 0.000936
C121  C     C_1   0.099004 0.412189 0.506654 0.027605
C122  C     C_1   0.598580 0.088120 0.007671 0.025581
C123  C     C_1   0.598650 0.911926 0.507276 0.026240
C124  C     C_2   0.124425 0.618961 0.060616 -0.123023
C125  C     C_2   0.127795 0.382902 0.552891 -0.137470
C126  C     C_2   0.626951 0.117622 0.055167 -0.133516
C127  C     C_R   0.745407 0.802859 0.573824 -0.009315
C128  C     C_2   0.627154 0.882433 0.554335 -0.134227
C129  C     C_2   0.133941 0.652966 0.953482 0.215040
C130  C     C_2   0.142299 0.353239 0.433624 0.210940
C131  C     C_2   0.640829 0.148016 0.937733 0.207861
C132  C     C_2   0.640933 0.852066 0.436618 0.209957
C133  C     C_R   0.881250 0.349076 0.389770 -0.096473
C134  C     C_R   0.882866 0.652137 0.885467 -0.102677
C135  C     C_R   0.381585 0.849077 0.390300 -0.097425
C136  C     C_R   0.381618 0.151265 0.888867 -0.096794
C137  C     C_3   0.969948 0.293369 0.064163 -0.320699
C138  C     C_R   0.208427 0.671911 0.046032 0.589799
C139  C     C_3   0.984567 0.714410 0.648014 -0.378820
C140  C     C_3   0.468303 0.793870 0.063947 -0.319987
C141  C     C_3   0.467960 0.206136 0.561455 -0.317921
C142  C     C_R   0.915516 0.377410 0.436408 -0.049478
C143  C     C_R   0.917246 0.623847 0.932453 -0.041570
C144  C     C_R   0.416068 0.877223 0.436016 -0.050200
C145  C     C_R   0.415693 0.122742 0.935898 -0.049688
C146  C     C_R   0.902587 0.412904 0.191889 0.035140
C147  C     C_R   0.903213 0.587432 0.690584 0.035252
C148  C     C_R   0.402813 0.912891 0.192015 0.036042
H1    H     H_    0.021046 0.346447 0.501684 0.007522
H2    H     H_    0.209865 0.506571 0.357769 0.101218
H3    H     H_    0.472777 0.221201 0.676653 0.140708
H4    H     H_    0.135474 0.508732 0.895635 0.073752
H5    H     H_    0.129754 0.498452 0.402443 0.095780
H6    H     H_    0.632858 0.006176 0.896477 0.081715
H7    H     H_    0.632415 0.994310 0.396930 0.083103
H8    H     H_    0.186231 0.570524 0.902787 0.116031
H9    H     H_    0.195808 0.566248 0.115440 0.159423
H10   H     H_    0.241428 0.564790 0.979698 0.161141
H11   H     H_    0.179501 0.437581 0.366135 0.094441
H12   H     H_    0.237224 0.441633 0.416545 0.153669
H13   H     H_    0.713185 0.998801 0.860143 0.101500
H14   H     H_    0.197247 0.435561 0.571866 0.173463
H15   H     H_    0.683910 0.067217 0.884152 0.101322
H16   H     H_    0.697321 0.065290 0.094522 0.169648
H17   H     H_    0.740375 0.061799 0.948660 0.159581
H18   H     H_    0.740073 0.938706 0.442479 0.160089
H19   H     H_    0.697766 0.934751 0.590916 0.168585
H20   H     H_    0.683309 0.933450 0.381432 0.101329
H21   H     H_    0.043737 0.298577 0.800742 0.164653
H22   H     H_    0.082425 0.313670 0.651799 0.134864
H23   H     H_    0.077554 0.262922 0.702706 0.150865
H24   H     H_    0.712705 0.001992 0.359602 0.101955
H25   H     H_    0.019012 0.728913 0.319378 0.159852
H26   H     H_    0.051859 0.761470 0.202447 0.158876
H27   H     H_    0.071475 0.712796 0.241115 0.141884
H28   H     H_    0.543046 0.798211 0.804581 0.166599
H29   H     H_    0.581518 0.813078 0.654698 0.135378
H30   H     H_    0.576817 0.762408 0.707457 0.151882
H31   H     H_    0.542864 0.202051 0.302419 0.166324
H32   H     H_    0.576478 0.237801 0.204491 0.150697
H33   H     H_    0.581588 0.187062 0.153471 0.134720
H34   H     H_    0.166155 0.442171 0.883864 0.098732
H35   H     H_    0.886627 0.521720 0.893089 0.014707
H36   H     H_    0.179638 0.442952 0.091561 0.058605
H37   H     H_    0.123220 0.442643 0.032838 0.118322
H38   H     H_    0.174418 0.557428 0.628261 0.060386
H39   H     H_    0.160951 0.565190 0.422040 0.102402
H40   H     H_    0.117855 0.558353 0.567747 0.127352
H41   H     H_    0.663923 0.939129 0.897933 0.094068
H42   H     H_    0.676131 0.942764 0.106633 0.059185
H43   H     H_    0.619996 0.942827 0.042041 0.116056
H44   H     H_    0.675372 0.057227 0.609770 0.059012
H45   H     H_    0.663488 0.061380 0.400877 0.094132
H46   H     H_    0.884907 0.479149 0.391267 0.016924
H47   H     H_    0.619330 0.057164 0.543665 0.115769
H48   H     H_    0.385310 0.020996 0.891379 0.018032
H49   H     H_    0.385475 0.978848 0.391911 0.017898
H50   H     H_    0.899465 0.539757 0.090739 0.058151
H51   H     H_    0.898684 0.460362 0.587267 0.053858
H52   H     H_    0.398800 0.039740 0.087636 0.054873
H53   H     H_    0.034503 0.656342 0.119623 0.048762
H54   H     H_    0.398894 0.960305 0.588540 0.055721
H55   H     H_    0.807304 0.535976 0.935989 0.147942
H56   H     H_    0.805573 0.465778 0.440649 0.148140
H57   H     H_    0.305919 0.034568 0.939063 0.148183
H58   H     H_    0.306113 0.965329 0.438996 0.149089
H59   H     H_    0.840096 0.579152 0.962945 0.066109
H60   H     H_    0.838035 0.422133 0.459558 0.068077
H61   H     H_    0.338367 0.078139 0.958948 0.068266
H62   H     H_    0.338596 0.921776 0.460798 0.069446
H63   H     H_    0.819858 0.553480 0.133655 0.133644
H64   H     H_    0.520437 0.845247 0.500793 0.006886
H65   H     H_    0.819455 0.446894 0.635079 0.132771
H66   H     H_    0.319477 0.053356 0.133892 0.132860
H67   H     H_    0.319493 0.946915 0.634616 0.132142
H68   H     H_    0.975818 0.317438 0.424638 -0.006274
H69   H     H_    0.998709 0.664444 0.951486 -0.111362
H70   H     H_    0.474684 0.816101 0.428616 -0.005861
H71   H     H_    0.474982 0.183200 0.926193 -0.005082
H72   H     H_    0.039750 0.276139 0.446376 0.158452
H73   H     H_    0.040184 0.721488 0.964795 0.147898
H74   H     H_    0.538599 0.774672 0.451487 0.158751
H75   H     H_    0.520637 0.154289 0.001143 0.007159
H76   H     H_    0.538661 0.224748 0.948373 0.157960
H77   H     H_    0.934132 0.295075 0.037315 0.126244
H78   H     H_    0.960152 0.716507 0.744770 0.142374
H79   H     H_    0.432408 0.796135 0.039585 0.127489
H80   H     H_    0.432173 0.203875 0.534949 0.124705
H81   H     H_    0.703722 0.346713 0.033154 0.154476
H82   H     H_    0.702983 0.653584 0.546346 0.154568
H83   H     H_    0.201760 0.850091 0.057237 0.155378
H84   H     H_    0.204433 0.154506 0.531008 0.154614
H85   H     H_    0.849815 0.205835 0.220319 0.127637
H86   H     H_    0.223229 0.499596 0.080846 0.117147
H87   H     H_    0.851781 0.794389 0.700450 0.126651
H88   H     H_    0.347293 0.706369 0.210763 0.127357
H89   H     H_    0.351098 0.294764 0.716928 0.127804
H90   H     H_    0.873316 0.325591 0.470122 0.110271
H91   H     H_    0.875264 0.676019 0.964378 0.107455
H92   H     H_    0.373611 0.825618 0.470747 0.108835
H93   H     H_    0.373732 0.174792 0.969145 0.110870
H94   H     H_    0.292160 0.658276 0.143362 0.121569
H95   H     H_    0.297786 0.344176 0.645446 0.123558
H96   H     H_    0.796089 0.156683 0.151428 0.122868
H97   H     H_    0.221217 0.502795 0.566300 0.114735
H98   H     H_    0.797819 0.843544 0.632965 0.122847
H99   H     H_    0.138905 0.617821 0.178398 0.119932
H100  H     H_    0.140280 0.381758 0.673562 0.114282
H101  H     H_    0.639533 0.118457 0.175733 0.116889
H102  H     H_    0.639985 0.881633 0.674579 0.113709
H103  H     H_    0.118184 0.676076 0.719582 0.112273
H104  H     H_    0.136072 0.336843 0.186482 0.103524
H105  H     H_    0.633867 0.165298 0.691715 0.106397
H106  H     H_    0.633957 0.834813 0.190752 0.104303
H107  H     H_    0.852896 0.388466 0.037732 0.123274
H108  H     H_    0.722495 0.998196 0.070589 0.115874
H109  H     H_    0.852634 0.611258 0.538404 0.122664
H110  H     H_    0.352358 0.888850 0.040011 0.121063
H111  H     H_    0.353331 0.111961 0.536711 0.124150
H112  H     H_    0.950483 0.430081 0.359549 0.075010
H113  H     H_    0.951966 0.570856 0.856276 0.075659
H114  H     H_    0.451131 0.929839 0.358581 0.075898
H115  H     H_    0.450442 0.069840 0.859708 0.075018
H116  H     H_    0.000786 0.261510 0.594440 0.129916
H117  H     H_    0.988001 0.734521 0.046787 0.129358
H118  H     H_    0.499706 0.760895 0.601091 0.128838
H119  H     H_    0.722257 0.001912 0.569968 0.115704
H120  H     H_    0.499560 0.238926 0.096791 0.129399
H121  H     H_    0.072884 0.564177 0.789592 0.051183
H122  H     H_    0.040763 0.411597 0.365022 0.050473
H123  H     H_    0.540358 0.088409 0.865696 0.052632
H124  H     H_    0.540365 0.911568 0.365568 0.052539
H125  H     H_    0.981449 0.348319 0.953158 0.120436
H126  H     H_    0.959573 0.666597 0.508102 0.097424
H127  H     H_    0.479644 0.849323 0.957182 0.120768
H128  H     H_    0.479906 0.150777 0.454551 0.121393
H129  H     H_    0.973358 0.350650 0.165698 -0.019550
H130  H     H_    0.216128 0.503078 0.869932 0.099862
H131  H     H_    0.983642 0.653049 0.693676 -0.050644
H132  H     H_    0.473434 0.850460 0.170799 -0.023441
H133  H     H_    0.472835 0.149456 0.667746 -0.022337
H134  H     H_    0.986006 0.275806 0.970481 0.127976
H135  H     H_    0.974261 0.733955 0.549810 0.133537
H136  H     H_    0.483564 0.776589 0.967724 0.128637
H137  H     H_    0.483605 0.223538 0.466475 0.128096
H138  H     H_    0.974932 0.278785 0.180301 0.138863
H139  H     H_    0.017035 0.724173 0.694541 0.133053
H140  H     H_    0.473678 0.778674 0.178559 0.138304
I1    I     I_    0.116425 0.817399 0.949994 -0.367334
I2    I     I_    0.120961 0.189426 0.414269 -0.354196
I3    I     I_    0.620033 0.312095 0.917266 -0.352951
I4    I     I_    0.618665 0.688197 0.435292 -0.355866
N1    N     N_R   0.166729 0.682812 0.995129 -0.424816
N2    N     N_R   0.173864 0.322578 0.475680 -0.428568
N3    N     N_R   0.672311 0.178691 0.980811 -0.427995
N4    N     N_R   0.672521 0.821435 0.479014 -0.428260
N5    N     N_R   0.827917 0.323220 0.198305 -0.424623
N6    N     N_R   0.828659 0.677180 0.695223 -0.423937
N7    N     N_R   0.327044 0.824110 0.202212 -0.424994
N8    N     N_R   0.328596 0.177443 0.696847 -0.424523
O1    O     O_2   0.914200 0.445720 0.903420 -0.458213
O2    O     O_3   0.027516 0.667593 0.507225 -0.582564
O3    O     O_3   0.534019 0.831674 0.090509 -0.602044
O4    O     O_3   0.533694 0.168351 0.590816 -0.602140
O5    O     O_3   0.049930 0.518940 0.045960 -0.468379
O6    O     O_3   0.049930 0.481060 0.545960 -0.473674
O7    O     O_3   0.549930 0.018940 0.045960 -0.471194
O8    O     O_3   0.549930 0.981060 0.545960 -0.471648
O9    O     O_2   0.218026 0.637561 0.054438 -0.630918
O10   O     O_2   0.224929 0.366782 0.548671 -0.626003
O11   O     O_2   0.723032 0.134476 0.057377 -0.629585
O12   O     O_2   0.914200 0.554280 0.403420 -0.457298
O13   O     O_2   0.724062 0.865740 0.545754 -0.628974
O14   O     O_2   0.119908 0.731419 0.935257 -0.586312
O15   O     O_2   0.127046 0.275470 0.399598 -0.566426
O16   O     O_2   0.625838 0.225987 0.902864 -0.567310
O17   O     O_2   0.625379 0.774099 0.408017 -0.568285
O18   O     O_2   0.775934 0.368533 0.143044 -0.584140
O19   O     O_2   0.775949 0.631901 0.651218 -0.583783
O20   O     O_2   0.275467 0.870388 0.156928 -0.584561
O21   O     O_2   0.276465 0.132387 0.641240 -0.584066
O22   O     O_2   0.875598 0.273993 0.248474 -0.614535
O23   O     O_2   0.414200 0.945720 0.903420 -0.458883
O24   O     O_2   0.877314 0.726216 0.731297 -0.618783
O25   O     O_2   0.374203 0.774101 0.244889 -0.614538
O26   O     O_2   0.376288 0.226480 0.748820 -0.615730
O27   O     O_3   0.950020 0.480960 0.143730 -0.492191
O28   O     O_3   0.950020 0.519040 0.643730 -0.492320
O29   O     O_3   0.450020 0.980960 0.143730 -0.491307
O30   O     O_3   0.450020 0.019040 0.643730 -0.491424
O31   O     O_3   0.985090 0.412220 0.642040 -0.470246
O32   O     O_3   0.985090 0.587780 0.142040 -0.478725
O33   O     O_3   0.485090 0.912220 0.642040 -0.469381
O34   O     O_2   0.414200 0.054280 0.403420 -0.458680
O35   O     O_3   0.485090 0.087780 0.142040 -0.469421
O36   O     O_2   0.913282 0.380127 0.768245 -0.489362
O37   O     O_2   0.910917 0.617887 0.261611 -0.482603
O38   O     O_2   0.412975 0.880476 0.767135 -0.489408
O39   O     O_2   0.413016 0.119725 0.267321 -0.490266
O40   O     O_3   0.863495 0.488649 0.077441 -0.622591
O41   O     O_3   0.863201 0.511811 0.579026 -0.623408
O42   O     O_3   0.363287 0.988384 0.078644 -0.622740
O43   O     O_3   0.363302 0.011684 0.578412 -0.622879
O44   O     O_3   0.971970 0.331280 0.662366 -0.600749
O45   O     O_3   0.135872 0.488199 0.642636 -0.655480
O46   O     O_3   0.969561 0.668710 0.174485 -0.583236
O47   O     O_3   0.471874 0.831306 0.665254 -0.600289
O48   O     O_3   0.471712 0.168737 0.163551 -0.600681
O49   O     O_2   0.085560 0.445380 0.786390 -0.458222
O50   O     O_2   0.085560 0.554620 0.286390 -0.457122
O51   O     O_2   0.585560 0.945380 0.786390 -0.460547
O52   O     O_2   0.585560 0.054620 0.286390 -0.461359
O53   O     O_3   0.014550 0.412170 0.047860 -0.483955
O54   O     O_3   0.014550 0.587830 0.547860 -0.463848
O55   O     O_3   0.514550 0.912170 0.047860 -0.484104
O56   O     O_3   0.135184 0.510462 0.140677 -0.653214
O57   O     O_3   0.514550 0.087830 0.547860 -0.484225
O58   O     O_2   0.080689 0.375702 0.906538 -0.491016
O59   O     O_2   0.090331 0.618297 0.448745 -0.494798
O60   O     O_2   0.580738 0.875655 0.907547 -0.489803
O61   O     O_2   0.580673 0.124459 0.408052 -0.489989
O62   O     O_3   0.635897 0.988454 0.640469 -0.655549
O63   O     O_3   0.635900 0.011435 0.140332 -0.655490
O64   O     O_3   0.034915 0.332076 0.094045 -0.601717
P1    P     P_3+3 0.909970 0.458430 0.077330 0.999296
P2    P     P_3+3 0.053426 0.624890 0.571435 0.968274
P3    P     P_3+3 0.557310 0.878093 0.069709 0.955164
P4    P     P_3+3 0.557197 0.121974 0.570101 0.954531
P5    P     P_3+3 0.944725 0.624225 0.127859 0.968930
P6    P     P_3+3 0.945184 0.375546 0.627223 0.947298
P7    P     P_3+3 0.445138 0.124479 0.127086 0.946704
P8    P     P_3+3 0.445272 0.875524 0.627512 0.947375
P9    P     P_3+3 0.909970 0.541570 0.577330 1.000921
P10   P     P_3+3 0.409970 0.958430 0.077330 0.999452
P11   P     P_3+3 0.409970 0.041570 0.577330 0.999437
P12   P     P_3+3 0.089830 0.458070 0.612460 0.978257
P13   P     P_3+3 0.089830 0.541930 0.112460 0.976662
P14   P     P_3+3 0.589830 0.958070 0.612460 0.978393
P15   P     P_3+3 0.589830 0.041930 0.112460 0.978087
P16   P     P_3+3 0.057782 0.378556 0.069566 0.956872

loop_
_geom_bond_atom_site_label_1
_geom_bond_atom_site_label_2
_ccdc_geom_bond_type
C19   C54   S    
C95   C99   A    
C101  C106  A    
C15   C118  A    
C126  H101  S    
C104  O20   D    
C41   C144  S    
Ba3   O23   S    
C145  P7    S    
C86   I2    S    
C92   C141  S    
O33   P8    S    
C102  N5    Am   
C68   C75   A    
C30   H63   S    
C14   C121  A    
C39   H112  S    
C19   H6    S    
C31   H65   S    
C54   H43   S    
C96   C100  A    
C5    C9    A    
C16   C119  A    
O61   P4    D    
C7    C11   A    
C108  O24   D    
C36   O46   S    
C42   H115  S    
C108  N6    Am   
C19   O63   S    
O32   P5    S    
C89   H125  S    
C81   C99   A    
C128  H102  S    
C79   C84   A    
C91   C140  S    
C102  O18   D    
C57   N4    Am   
O42   P10   S    
C79   C110  A    
C91   O3    S    
O4    P4    S    
C26   H50   S    
C112  C117  A    
C92   H128  S    
C133  C142  S    
C53   H40   S    
C107  N5    Am   
Ba3   O30   S    
C146  P1    S    
O3    P3    S    
C6    H110  S    
O55   P3    S    
C16   H124  S    
C22   H97   S    
C34   H68   S    
C74   C78   A    
C92   H133  S    
C61   H73   S    
C48   H23   S    
C23   H13   S    
C114  H106  S    
C141  H80   S    
C36   C61   S    
O47   P8    S    
C113  C131  A    
C33   H62   S    
C114  C132  A    
C112  H104  S    
C5    C147  A    
C15   C122  A    
C17   O56   S    
C27   O41   S    
C49   H25   S    
C40   H113  S    
C44   H12   S    
C18   H5    S    
C30   H55   S    
C123  P14   S    
C59   C64   A    
C54   H41   S    
Ba3   P10   S    
C36   H69   S    
C56   C60   A    
C26   H35   S    
C103  O19   D    
C12   C120  A    
C46   N2    Am   
C37   C72   S    
C62   C66   A    
C148  P10   S    
C18   O45   S    
C75   H89   S    
C139  H78   S    
C121  C125  A    
C31   H56   S    
C83   H76   S    
C90   O2    S    
Ba1   O49   S    
C138  O9    D    
C99   C103  A    
C60   C87   A    
C27   H46   S    
C134  H91   S    
O1    P1    D    
Ba1   O6    S    
C58   C85   A    
C80   C98   A    
Ba3   O8    S    
O57   P4    S    
O45   P12   S    
C113  C118  A    
C82   C100  A    
C40   C143  S    
C86   C97   A    
C13   O11   D    
O28   P9    S    
C28   C32   S    
O49   P12   D    
Ba4   O7    S    
C26   O40   S    
C130  N2    S    
O35   P7    S    
C35   O14   D    
C13   C116  A    
C43   H10   S    
C70   C73   A    
C51   H32   S    
O8    P14   S    
C49   C61   S    
C37   H70   S    
C4    C8    A    
C64   C105  A    
Ba4   O29   S    
C70   C127  A    
C94   C138  A    
C46   C59   A    
C37   O47   S    
Ba4   O35   S    
C49   H27   S    
C135  C144  S    
C124  H99   S    
Ba2   O32   S    
C26   C30   S    
C25   H119  S    
C3    C42   D    
Ba2   O50   S    
C45   H16   S    
C6    C10   A    
C62   C88   A    
Ba1   O1    S    
C31   H60   S    
C110  O26   D    
C122  P15   S    
O30   P11   S    
C131  N3    S    
C83   H120  S    
C90   H126  S    
C77   C108  A    
C128  C132  S    
C97   H84   S    
C50   H29   S    
C60   C65   A    
C39   C146  D    
C117  P16   S    
C111  C115  A    
O63   P15   S    
C9    N6    S    
C2    C105  A    
C38   O48   S    
Ba3   Ba4   S    
C48   H22   S    
C25   C47   S    
C17   C21   S    
C36   H53   S    
C118  P4    S    
C78   C109  A    
C120  C124  A    
C9    C134  D    
C65   C80   A    
C84   C101  A    
Ba1   P1    S    
C138  N1    Am   
C51   C83   S    
C33   H58   S    
C1    H72   S    
C20   O62   S    
C38   C83   S    
C34   H1    S    
C66   C81   A    
C136  C145  S    
C24   N4    Am   
C121  P12   S    
C77   C81   A    
C23   C45   S    
Ba4   P11   S    
C90   H131  S    
C14   H122  S    
C13   N3    Am   
C139  H135  S    
C140  H136  S    
O52   P15   D    
C69   C71   A    
O34   P11   D    
C126  C131  S    
C76   C80   A    
C20   H7    S    
C137  H138  S    
C140  H140  S    
C23   H108  S    
O60   P3    D    
C47   H20   S    
C53   H39   S    
Ba4   O52   S    
Ba1   O31   S    
O46   P5    S    
C112  C130  A    
C122  C126  A    
C137  H77   S    
O31   P6    S    
Ba1   O53   S    
O53   P16   S    
C143  P5    S    
Ba2   P9    S    
Ba3   O55   S    
O40   P1    S    
C20   C25   S    
O29   P10   S    
O23   P10   D    
C6    C148  A    
C68   C105  A    
O50   P13   D    
C8    N5    S    
Ba2   O5    S    
C72   H118  S    
C10   N7    S    
Ba4   O57   S    
C21   C43   S    
C93   C98   A    
C22   C44   S    
C32   H57   S    
C56   O16   D    
Ba1   P12   S    
C147  P9    S    
C69   C116  A    
O43   P11   S    
C1    C34   S    
O51   P14   D    
C85   C96   A    
C57   O17   D    
Ba4   O34   S    
C32   H66   S    
C69   H96   S    
C95   H82   S    
C111  C129  A    
C78   C82   A    
C56   N3    Am   
C54   H42   S    
C29   C33   S    
Ba2   O27   S    
C120  P13   S    
O2    P2    S    
C28   H52   S    
O39   P7    D    
O54   P2    S    
C2    O10   D    
C73   C77   A    
C35   N1    Am   
C87   C93   A    
C106  O21   D    
O37   P5    D    
C140  H79   S    
C141  H137  S    
C133  H90   S    
C41   H114  S    
O7    P15   S    
C129  N1    S    
C27   C31   S    
C71   H85   S    
Ba2   O54   S    
C25   H24   S    
C34   O44   S    
C100  C104  A    
C89   C137  S    
C11   C136  D    
C35   C58   A    
Ba1   O5    S    
C63   C82   A    
Ba3   O7    S    
C47   H18   S    
C28   O42   S    
Ba3   O33   S    
C17   C52   S    
C55   H44   S    
C88   I4    S    
C65   C116  A    
C41   C148  D    
C119  P3    S    
C28   H48   S    
C39   C142  S    
Ba4   O8    S    
C45   H17   S    
C46   O15   D    
C85   I1    S    
C21   H86   S    
C76   C107  A    
C87   I3    S    
C114  C119  A    
C107  O22   D    
O12   P9    D    
C30   H59   S    
C14   C117  A    
C125  C130  S    
C43   H9    S    
C104  N7    Am   
C44   H14   S    
C1    H116  S    
C91   H132  S    
C18   C22   S    
C73   H87   S    
C51   H31   S    
C96   H83   S    
C67   H94   S    
C21   H130  S    
C106  N8    Am   
O48   P7    S    
C4    C146  A    
C49   H26   S    
C18   C53   S    
C89   H129  S    
C44   H11   S    
C38   H75   S    
C3    C7    A    
C58   C63   A    
C90   C139  S    
C68   H95   S    
C45   H15   S    
C20   C55   S    
O58   P16   D    
Ba1   Ba2   S    
C142  P6    S    
C123  C128  A    
O44   P6    S    
Ba4   P15   S    
Ba1   O28   S    
C57   C62   A    
C15   H123  S    
O56   P13   S    
C52   H36   S    
C3    P11   S    
C75   C79   A    
C5    H109  S    
C50   H30   S    
C1    C48   S    
O27   P1    S    
C7    H111  S    
C61   H117  S    
C71   C76   A    
C27   H51   S    
C63   C94   A    
C125  H100  S    
C70   H98   S    
C43   H8    S    
C97   C101  A    
C67   C94   A    
C29   H54   S    
C40   C147  D    
C91   H127  S    
C72   H74   S    
C136  H93   S    
Ba2   P13   S    
Ba3   O51   S    
C2    N2    Am   
C12   C115  A    
C55   H47   S    
C37   H64   S    
O59   P2    D    
C103  N6    Am   
C109  O25   D    
C32   H61   S    
C113  H105  S    
C134  C143  S    
C109  N7    Am   
C93   H81   S    
C42   C145  S    
C110  N8    Am   
Ba3   P14   S    
C135  H92   S    
O5    P13   S    
O62   P14   S    
C50   C72   S    
C139  H139  S    
C19   C23   S    
C29   O43   S    
C89   O64   S    
C64   C84   A    
C115  P2    S    
Ba2   O12   S    
C22   H2    S    
C38   H71   S    
C137  H134  S    
C16   C123  A    
O6    P12   S    
C52   H37   S    
C74   H88   S    
C52   H34   S    
C12   H121  S    
C24   C127  A    
C4    H107  S    
C47   H19   S    
C53   H38   S    
C124  C129  S    
C92   O4    S    
O41   P9    S    
C11   N8    S    
C55   H45   S    
C59   C86   A    
C29   H49   S    
C66   C127  A    
C17   H4    S    
C50   H28   S    
C98   C102  A    
C51   H33   S    
O64   P16   S    
C141  H3    S    
C144  P8    S    
C111  H103  S    
C10   C135  D    
C88   C95   A    
O36   P6    D    
Ba2   O6    S    
C33   H67   S    
C8    C133  D    
C24   O13   D    
O38   P8    D    
C48   H21   S    
C67   C74   A    
C132  N4    S    
