data_mof_unit_34195.cif
_audit_creation_date              2012-12-10T18:33:37-0500
_audit_creation_method            fapswitch 2.2
_symmetry_space_group_name_H-M    P1
_symmetry_Int_Tables_number       1
_space_group_crystal_system       triclinic
_cell_length_a                    10.4976
_cell_length_b                    15.018094
_cell_length_c                    15.530531
_cell_angle_alpha                 81.692562
_cell_angle_beta                  89.715429
_cell_angle_gamma                 104.687467
_cell_volume                      2341.37563142

loop_
_atom_site_label
_atom_site_type_symbol
_atom_type_description
_atom_site_fract_x
_atom_site_fract_y
_atom_site_fract_z
_atom_type_partial_charge
C1    C     C_R   0.481907 0.441413 0.661725 0.879357
C2    C     C_R   0.516036 0.558540 0.338331 0.856427
C3    C     C_R   0.527270 0.458866 0.813655 0.042664
C4    C     C_R   0.454298 0.544077 0.187195 0.032718
C5    C     C_R   0.471693 0.445920 0.898902 0.051974
C6    C     C_R   0.500942 0.558776 0.099988 0.095179
C7    C     C_R   0.378684 0.360241 0.929071 0.157066
C8    C     C_R   0.592804 0.644651 0.068482 0.142524
C9    C     C_R   0.504268 0.514749 0.954550 0.057521
C10   C     C_R   0.461952 0.490949 0.043668 0.087014
C11   C     C_R   0.389391 0.398613 0.074332 -0.198525
C12   C     C_R   0.572064 0.607763 0.922960 -0.244390
C13   C     C_R   0.341913 0.336276 0.017142 -0.248359
C14   C     C_R   0.622009 0.670145 0.979573 -0.236177
C15   C     C_R   0.709453 0.845150 0.628738 0.443846
C16   C     C_R   0.289335 0.154507 0.372008 0.444605
C17   C     C_R   0.672684 0.755153 0.607633 -0.114261
C18   C     C_R   0.326480 0.244630 0.393020 -0.114056
C19   C     C_R   0.509107 0.792660 0.514859 -0.079344
C20   C     C_R   0.491270 0.207442 0.484824 -0.078694
C21   C     C_R   0.542708 0.885563 0.531002 -0.069597
C22   C     C_R   0.457067 0.114390 0.469141 -0.070696
C23   C     C_R   0.742568 0.501021 0.500141 0.862895
C24   C     C_R   0.257457 0.499018 0.499751 0.848698
C25   C     C_R   0.646076 0.911354 0.588482 0.049555
C26   C     C_R   0.353154 0.088454 0.412064 0.050748
C27   C     C_R   0.478880 0.953256 0.491305 0.124015
C28   C     C_R   0.520794 0.046667 0.508947 0.123772
C29   C     C_R   0.624738 0.069261 0.565931 -0.254200
C30   C     C_R   0.374567 0.930550 0.434634 -0.255400
C31   C     C_R   0.685167 0.002903 0.605022 -0.158742
C32   C     C_R   0.313860 0.996820 0.395742 -0.157011
C33   C     C_3   0.931237 0.430827 0.559948 -0.175460
C34   C     C_3   0.068849 0.569244 0.439788 -0.185529
C35   C     C_3   0.046704 0.511286 0.579052 -0.166607
C36   C     C_3   0.953362 0.488787 0.420687 -0.175385
C37   C     C_3   0.121626 0.497752 0.499365 0.025372
C38   C     C_3   0.878439 0.502321 0.500384 0.024953
C39   C     C_3   0.008810 0.417266 0.480248 -0.140404
C40   C     C_3   0.991270 0.582810 0.519489 -0.133113
C41   C     C_R   0.459920 0.404945 0.753951 -0.051511
C42   C     C_R   0.529948 0.595541 0.246069 -0.095923
C43   C     C_R   0.325960 0.298762 0.870883 -0.203024
C44   C     C_R   0.652563 0.704502 0.126330 -0.208390
C45   C     C_R   0.360983 0.323774 0.782586 -0.246471
C46   C     C_R   0.626899 0.677205 0.215439 -0.226825
H1    H     H_    0.089322 0.520049 0.643531 0.139749
H2    H     H_    0.910770 0.480020 0.356202 0.139800
H3    H     H_    0.566784 0.233867 0.527808 0.145715
H4    H     H_    0.434393 0.766449 0.471277 0.145008
H5    H     H_    0.274434 0.295722 0.368024 0.139024
H6    H     H_    0.724295 0.703972 0.633290 0.143824
H7    H     H_    0.662846 0.138000 0.582198 0.138184
H8    H     H_    0.336098 0.861708 0.418685 0.137733
H9    H     H_    0.870523 0.374770 0.609000 0.135391
H10   H     H_    0.129605 0.625263 0.390720 0.130154
H11   H     H_    0.019981 0.349869 0.464227 0.150428
H12   H     H_    0.980126 0.650218 0.535498 0.150281
H13   H     H_    0.279008 0.268140 0.042278 0.138724
H14   H     H_    0.682837 0.738724 0.953697 0.139003
H15   H     H_    0.683137 0.719237 0.260257 0.168832
H16   H     H_    0.310324 0.280468 0.736800 0.169834
H17   H     H_    0.252721 0.234083 0.892956 0.144795
H18   H     H_    0.724631 0.769397 0.103031 0.144464
H19   H     H_    0.369173 0.372161 0.142436 0.159700
H20   H     H_    0.587721 0.633653 0.854477 0.150236
H21   H     H_    0.763880 0.024195 0.648477 0.191769
H22   H     H_    0.234748 0.975361 0.352616 0.192038
N1    N     N_R   0.574200 0.731700 0.552740 -0.123802
N2    N     N_R   0.425800 0.268300 0.447260 -0.122901
O1    O     O_R   0.462600 0.383110 0.605620 -0.617076
O2    O     O_R   0.537400 0.616890 0.394380 -0.612724
O3    O     O_R   0.510210 0.531900 0.639510 -0.611665
O4    O     O_R   0.489790 0.468100 0.360490 -0.615436
O5    O     O_R   0.662240 0.425610 0.483080 -0.617119
O6    O     O_R   0.337760 0.574390 0.516920 -0.617794
O7    O     O_R   0.709860 0.574400 0.516970 -0.623970
O8    O     O_R   0.290140 0.425600 0.483030 -0.628691
Zn1   Zn    Zn3+2 0.468210 0.400660 0.477370 0.934832
Zn2   Zn    Zn3+2 0.531790 0.599340 0.522630 0.937775
O9    O     O_3   0.814319 0.871422 0.681576 -0.606513
C47   C     C_3   0.783776 0.820538 0.766076 -0.355805
H23   H     H_    0.792185 0.748041 0.767964 0.158317
H24   H     H_    0.684177 0.820842 0.791038 0.157660
H25   H     H_    0.856467 0.853931 0.810887 0.200995
O10   O     O_3   0.183617 0.127534 0.319855 -0.607937
C48   C     C_3   0.206925 0.183107 0.237089 -0.352415
H26   H     H_    0.308693 0.191898 0.210082 0.156099
H27   H     H_    0.186923 0.251891 0.239442 0.165191
H28   H     H_    0.137594 0.147913 0.191429 0.199970
N3    N     N_3   0.321530 0.490637 0.211817 -0.477602
H29   H     H_    0.271132 0.533387 0.237398 0.179736
H30   H     H_    0.321674 0.434605 0.259950 0.190167
N4    N     N_3   0.662149 0.509833 0.791341 -0.477553
H31   H     H_    0.666104 0.574678 0.755137 0.185168
H32   H     H_    0.716871 0.518088 0.847003 0.195595

loop_
_geom_bond_atom_site_label_1
_geom_bond_atom_site_label_2
_ccdc_geom_bond_type
C18   N2    A    
C38   C40   S    
C48   H26   S    
C17   N1    A    
C34   C37   S    
C35   H1    S    
O1    Zn1   S    
O9    C47   S    
C43   H17   S    
C15   O9    S    
C44   H18   S    
C34   H10   S    
C30   H8    S    
C1    O1    A    
C4    C42   A    
C34   C40   S    
C28   C29   A    
C35   C37   S    
C15   C25   A    
C39   H11   S    
C45   H16   S    
C42   C46   A    
C7    C43   A    
C9    C10   A    
C2    O4    A    
C32   H22   S    
C4    N3    S    
C21   C27   A    
C22   C28   A    
C27   C30   A    
C16   O10   S    
C20   N2    A    
C2    O2    A    
C17   H6    S    
C44   C46   A    
C18   H5    S    
C16   C26   A    
C37   C39   S    
C40   H12   S    
C46   H15   S    
O6    Zn2   S    
C4    C6    A    
N3    H29   S    
C5    C7    A    
O8    Zn1   S    
C24   O6    A    
C6    C8    A    
C12   H20   S    
C31   H21   S    
C5    C9    A    
C20   H3    S    
N3    H30   S    
C24   C37   S    
C33   H9    S    
C16   C18   A    
C33   C39   S    
C23   O7    A    
N4    H32   S    
C43   C45   A    
C1    C41   S    
C12   C14   A    
C47   H24   S    
O4    Zn1   S    
C48   H27   S    
C19   N1    A    
C20   C22   A    
C47   H25   S    
O7    Zn2   S    
C24   O8    A    
C15   C17   A    
C21   C25   A    
C3    C41   A    
C8    C14   A    
C19   C21   A    
N2    Zn1   S    
O10   C48   S    
C25   C31   A    
C36   C39   S    
C8    C44   A    
C23   O5    A    
C3    C5    A    
C6    C10   A    
C13   H13   S    
C23   C38   S    
C14   H14   S    
C33   C38   S    
C1    O3    A    
C36   C38   S    
C35   C40   S    
O2    Zn2   S    
C30   C32   A    
C11   C13   A    
C19   H4    S    
C29   H7    S    
C2    C42   S    
C33   C35   S    
O3    Zn2   S    
C36   H2    S    
C3    N4    S    
C34   C36   S    
N4    H31   S    
C9    C12   A    
C10   C11   A    
C7    C13   A    
C29   C31   A    
C47   H23   S    
C22   C26   A    
C48   H28   S    
C27   C28   A    
C41   C45   A    
N1    Zn2   S    
O5    Zn1   S    
C26   C32   A    
C11   H19   S    
