data_mof_unit_31033.cif
_audit_creation_date              2012-12-10T20:37:35-0500
_audit_creation_method            fapswitch 2.2
_symmetry_space_group_name_H-M    P1
_symmetry_Int_Tables_number       1
_space_group_crystal_system       triclinic
_cell_length_a                    15.704252
_cell_length_b                    10.678919
_cell_length_c                    9.87164
_cell_angle_alpha                 90.08661
_cell_angle_beta                  89.828673
_cell_angle_gamma                 90.428619
_cell_volume                      1655.46224899

loop_
_atom_site_label
_atom_site_type_symbol
_atom_type_description
_atom_site_fract_x
_atom_site_fract_y
_atom_site_fract_z
_atom_type_partial_charge
C1    C     C_R   0.498620 0.260294 0.500204 0.881866
C2    C     C_R   0.489590 0.128827 0.502875 -0.142660
C3    C     C_R   0.445033 0.066529 0.400117 -0.158044
C4    C     C_R   0.337917 0.499858 0.500170 0.897549
C5    C     C_R   0.439931 0.936023 0.400424 -0.055791
C6    C     C_R   0.485162 0.871206 0.502437 -0.157559
C7    C     C_R   0.517910 0.936617 0.612941 0.087059
C8    C     C_3   0.598895 0.927926 0.692898 -0.093125
C9    C     C_3   0.598175 0.071590 0.696871 -0.240920
C10   C     C_R   0.435756 0.441940 0.071247 0.183354
C11   C     C_R   0.558482 0.567553 0.071795 -0.114212
C12   C     C_3   0.082732 0.497519 0.500193 0.118849
C13   C     C_R   0.558435 0.567673 0.927850 -0.113557
C14   C     C_R   0.436045 0.441452 0.928700 0.248864
C15   C     C_3   0.413780 0.305104 0.923133 -0.344592
C16   C     C_R   0.495821 0.739548 0.500092 0.881980
C17   C     C_3   0.411051 0.306757 0.078241 -0.112981
C18   C     C_R   0.662089 0.499058 0.499819 0.942385
C19   C     C_3   0.971325 0.383808 0.538537 -0.129167
C20   C     C_3   0.028206 0.409414 0.413135 -0.173786
C21   C     C_1   0.248974 0.498874 0.500574 -0.081900
C22   C     C_1   0.751068 0.497661 0.499369 -0.110612
C23   C     C_3   0.971709 0.585103 0.586460 -0.174323
C24   C     C_3   0.027591 0.472009 0.625559 -0.170037
C25   C     C_2   0.670100 0.137587 0.624290 0.508787
C26   C     C_2   0.330346 0.275694 0.854506 0.548442
C27   C     C_2   0.387232 0.871400 0.296305 0.460515
C28   C     C_3   0.917325 0.496884 0.499346 0.134373
C29   C     C_3   0.028379 0.609850 0.461249 0.200831
C30   C     C_3   0.972309 0.522453 0.373838 -0.184278
C31   C     C_1   0.173632 0.497973 0.500608 0.020370
C32   C     C_1   0.826426 0.496940 0.499215 0.000207
C33   C     C_R   0.518017 0.063489 0.615061 -0.025681
H1    H     H_    0.053509 0.337653 0.342494 0.183317
H2    H     H_    0.052356 0.451314 0.728278 0.182492
H3    H     H_    0.415179 0.119272 0.320186 0.207661
H4    H     H_    0.586823 0.886158 0.794319 0.158482
H5    H     H_    0.682463 0.119343 0.517829 0.078893
H6    H     H_    0.310192 0.178728 0.844759 0.078992
H7    H     H_    0.367327 0.774804 0.309794 0.087448
H8    H     H_    0.586116 0.108944 0.800387 0.169198
H9    H     H_    0.606739 0.620121 0.125911 0.164894
H10   H     H_    0.606613 0.620428 0.873446 0.167452
H11   H     H_    0.466979 0.248381 0.881862 0.134433
H12   H     H_    0.461876 0.248807 0.124060 0.159291
H13   H     H_    0.945635 0.291193 0.570167 0.177473
H14   H     H_    0.947663 0.543425 0.271118 0.167674
H15   H     H_    0.946513 0.657142 0.656863 0.177742
I1    I     I_    0.703182 0.839828 0.586702 -0.383479
I2    I     I_    0.288065 0.285156 0.174009 -0.292154
I3    I     I_    0.075587 0.789203 0.400015 -0.315476
N1    N     N_R   0.499430 0.499140 0.142800 -0.126865
N2    N     N_R   0.499430 0.499180 0.857150 -0.125714
O1    O     O_R   0.500010 0.316790 0.614690 -0.618040
O2    O     O_2   0.284695 0.358343 0.810825 -0.551942
O3    O     O_2   0.363720 0.926454 0.194867 -0.552415
O4    O     O_R   0.500000 0.316760 0.385350 -0.625563
O5    O     O_R   0.376780 0.500010 0.614650 -0.575964
O6    O     O_R   0.376770 0.499970 0.385310 -0.609942
O7    O     O_R   0.500000 0.683240 0.614650 -0.606156
O8    O     O_R   0.499990 0.683210 0.385310 -0.634503
O9    O     O_R   0.623230 0.500030 0.614690 -0.588381
O10   O     O_R   0.623220 0.499990 0.385350 -0.621609
O11   O     O_2   0.714395 0.213588 0.684535 -0.568970
Zn1   Zn    Zn3+2 0.500010 0.500020 0.653130 1.000823
Zn2   Zn    Zn3+2 0.499990 0.499980 0.346870 0.968707

loop_
_geom_bond_atom_site_label_1
_geom_bond_atom_site_label_2
_ccdc_geom_bond_type
C17   I2    S    
C15   H11   S    
C23   C24   S    
C29   C30   S    
C4    C21   S    
C1    O4    A    
C12   C29   S    
C18   C22   S    
N2    Zn1   S    
C12   C24   S    
O5    Zn1   S    
C9    H8    S    
C19   C20   S    
C14   C15   S    
C28   C32   S    
O4    Zn2   S    
C1    O1    A    
C10   N1    A    
C26   O2    D    
C12   C20   S    
C28   C30   S    
C19   C24   S    
C19   H13   S    
C9    C25   S    
C7    C8    S    
O6    Zn2   S    
O1    Zn1   S    
C20   C30   S    
C23   C28   S    
C9    C33   S    
C19   C28   S    
C21   C31   T    
C6    C7    A    
C22   C32   T    
C3    H3    S    
O8    Zn2   S    
C23   C29   S    
C4    O6    A    
O9    Zn1   S    
C17   H12   S    
O7    Zn1   S    
C2    C3    A    
C13   N2    A    
C12   C31   S    
C16   O7    A    
C5    C6    A    
C25   H5    S    
C11   C13   A    
C26   H6    S    
O10   Zn2   S    
C24   H2    S    
C16   O8    A    
C7    C33   A    
C10   C17   S    
C6    C16   S    
C20   H1    S    
C8    H4    S    
C13   H10   S    
C14   N2    A    
N1    Zn2   S    
C2    C33   A    
C11   H9    S    
C15   C17   S    
C18   O10   A    
C29   I3    S    
C4    O5    A    
C1    C2    S    
C11   N1    A    
C27   O3    D    
C18   O9    A    
C15   C26   S    
C23   H15   S    
C27   H7    S    
C5    C27   S    
C30   H14   S    
C8    I1    S    
C10   C14   A    
C8    C9    S    
C3    C5    A    
C25   O11   D    
