data_mof_unit_13748.cif
_audit_creation_date              2012-12-10T19:35:56-0500
_audit_creation_method            fapswitch 2.2
_symmetry_space_group_name_H-M    P1
_symmetry_Int_Tables_number       1
_space_group_crystal_system       triclinic
_cell_length_a                    14.984837
_cell_length_b                    15.776852
_cell_length_c                    16.959567
_cell_angle_alpha                 96.062506
_cell_angle_beta                  90.268419
_cell_angle_gamma                 92.734743
_cell_volume                      3982.31606084

loop_
_atom_site_label
_atom_site_type_symbol
_atom_type_description
_atom_site_fract_x
_atom_site_fract_y
_atom_site_fract_z
_atom_type_partial_charge
C1    C     C_R   0.506113 0.489842 0.347975 0.840092
C2    C     C_R   0.491288 0.510138 0.651510 0.840077
C3    C     C_R   0.041614 0.434321 0.360721 0.452590
C4    C     C_R   0.956385 0.514208 0.647525 0.439671
C5    C     C_R   0.519223 0.485855 0.260536 -0.212477
C6    C     C_R   0.469288 0.513729 0.737418 -0.231700
C7    C     C_R   0.533488 0.563038 0.224721 0.393269
C8    C     C_R   0.446390 0.436329 0.770975 0.407776
C9    C     C_R   0.529516 0.562040 0.141335 -0.098908
C10   C     C_R   0.441766 0.436049 0.853974 -0.073613
C11   C     C_R   0.519479 0.483077 0.094038 0.232996
C12   C     C_R   0.451717 0.514138 0.902601 0.220747
C13   C     C_R   0.515949 0.407170 0.128950 -0.271597
C14   C     C_R   0.461689 0.590705 0.869078 -0.259604
C15   C     C_R   0.516611 0.406954 0.211135 -0.082465
C16   C     C_R   0.469055 0.592111 0.787333 -0.092395
C17   C     C_R   0.456877 0.749704 0.460303 -0.040598
C18   C     C_R   0.542788 0.249701 0.539593 -0.053054
C19   C     C_R   0.458732 0.839341 0.459957 0.294675
C20   C     C_R   0.538016 0.160321 0.541294 0.273259
C21   C     C_R   0.521932 0.890188 0.509467 0.174040
C22   C     C_R   0.479943 0.109361 0.487004 0.185715
C23   C     C_R   0.328882 0.499940 0.499566 0.835883
C24   C     C_R   0.671215 0.499981 0.501164 0.854150
C25   C     C_R   0.579940 0.848395 0.556836 0.278471
C26   C     C_R   0.426350 0.151195 0.436038 0.248956
C27   C     C_R   0.570277 0.759704 0.558333 -0.042921
C28   C     C_R   0.430970 0.240627 0.439919 -0.028700
C29   C     C_R   0.814744 0.517148 0.573790 0.369440
C30   C     C_R   0.185462 0.474373 0.428292 0.379389
C31   C     C_R   0.767617 0.498986 0.502322 -0.139995
C32   C     C_R   0.232593 0.499058 0.498831 -0.141071
C33   C     C_R   0.810788 0.473673 0.432184 -0.286991
C34   C     C_R   0.188904 0.516865 0.570155 -0.298546
C35   C     C_R   0.903552 0.466718 0.430771 0.005471
C36   C     C_R   0.095618 0.508553 0.573779 0.001810
C37   C     C_R   0.952643 0.486090 0.502777 -0.043014
C38   C     C_R   0.046478 0.486152 0.502146 -0.042839
C39   C     C_R   0.907744 0.506482 0.575331 -0.099945
C40   C     C_R   0.091402 0.465092 0.429681 -0.099835
C41   C     C_R   0.948085 0.440423 0.359509 -0.120301
C42   C     C_R   0.050503 0.521139 0.647030 -0.126813
Cu1   Cu    Cu3+1 0.495660 0.415220 0.496180 0.978214
Cu2   Cu    Cu3+1 0.504340 0.584780 0.503820 0.965031
H1    H     H_    0.612221 0.728352 0.596911 0.150848
H2    H     H_    0.388276 0.272357 0.401860 0.162541
H3    H     H_    0.770267 0.460430 0.379071 0.140408
H4    H     H_    0.229478 0.536506 0.622340 0.144292
H5    H     H_    0.512074 0.347210 0.091058 0.156950
H6    H     H_    0.464861 0.650126 0.907762 0.157497
H7    H     H_    0.589124 0.289143 0.578337 0.162991
H8    H     H_    0.412710 0.709388 0.420450 0.157801
N1    N     N_2   0.515602 0.477774 0.010464 -0.248851
N2    N     N_2   0.453191 0.517815 0.986093 -0.258098
N3    N     N_R   0.510860 0.712130 0.509560 -0.213300
N4    N     N_R   0.489140 0.287870 0.490440 -0.212927
N5    N     N_2   0.531740 0.981680 0.513258 -0.143641
N6    N     N_2   0.469451 0.017945 0.483397 -0.147769
O1    O     O_R   0.495940 0.420530 0.382500 -0.540092
O2    O     O_R   0.504060 0.579470 0.617500 -0.539890
O3    O     O_R   0.503270 0.563720 0.388950 -0.556920
O4    O     O_R   0.496730 0.436280 0.611050 -0.563055
O5    O     O_R   0.366590 0.428400 0.496760 -0.593778
O6    O     O_R   0.633410 0.571600 0.503240 -0.614559
O7    O     O_R   0.373920 0.571590 0.503210 -0.579926
O8    O     O_R   0.626080 0.428410 0.496790 -0.562886
O9    O     O_3   0.767829 0.539510 0.642337 -0.608213
C43   C     C_3   0.774193 0.629100 0.659888 0.108011
H9    H     H_    0.743072 0.660415 0.611674 0.116834
H10   H     H_    0.845131 0.653306 0.667275 0.168016
C44   C     C_3   0.725283 0.652362 0.737396 -0.315882
H11   H     H_    0.654313 0.629132 0.730463 0.207232
H12   H     H_    0.755905 0.620158 0.785346 0.250736
C45   C     C_3   0.729645 0.748439 0.761324 -0.931902
H13   H     H_    0.800234 0.773231 0.767543 0.269002
H14   H     H_    0.695961 0.762193 0.819117 0.257765
H15   H     H_    0.695116 0.781801 0.716490 0.273691
O10   O     O_3   0.232288 0.456761 0.358743 -0.603612
C46   C     C_3   0.244991 0.532394 0.321508 0.085720
H16   H     H_    0.297856 0.574788 0.353521 0.133112
H17   H     H_    0.182259 0.567628 0.319787 0.153461
C47   C     C_3   0.274406 0.508741 0.236177 -0.321174
H18   H     H_    0.333859 0.469432 0.236090 0.211043
H19   H     H_    0.219893 0.469974 0.202893 0.256814
C48   C     C_3   0.297059 0.587805 0.194222 -0.867560
H20   H     H_    0.237828 0.627254 0.192279 0.258132
H21   H     H_    0.317947 0.568086 0.132529 0.271796
H22   H     H_    0.352837 0.626558 0.225450 0.278423
O11   O     O_3   0.592276 0.122943 0.592796 -0.588528
C49   C     C_3   0.568453 0.148555 0.671998 0.090233
H23   H     H_    0.494737 0.140947 0.680280 0.162535
H24   H     H_    0.590963 0.216244 0.689166 0.156608
C50   C     C_3   0.614467 0.092882 0.726742 -0.331913
H25   H     H_    0.590398 0.025296 0.712165 0.263395
H26   H     H_    0.687858 0.097356 0.717391 0.222259
C51   C     C_3   0.595136 0.120634 0.813669 -0.851445
H27   H     H_    0.620064 0.187685 0.829979 0.272007
H28   H     H_    0.629381 0.078943 0.851787 0.249960
H29   H     H_    0.522167 0.115204 0.824671 0.280889
O12   O     O_3   0.407453 0.876073 0.405488 -0.583063
C52   C     C_3   0.315161 0.854514 0.413133 0.080141
H30   H     H_    0.279610 0.914999 0.421294 0.184496
H31   H     H_    0.298338 0.819874 0.465694 0.125518
C53   C     C_3   0.279844 0.802503 0.337063 -0.351428
H32   H     H_    0.289359 0.840722 0.286126 0.237859
H33   H     H_    0.317763 0.744012 0.324863 0.219540
C54   C     C_3   0.180938 0.776702 0.343630 -0.933310
H34   H     H_    0.170521 0.735610 0.392437 0.254300
H35   H     H_    0.157141 0.740235 0.287283 0.262658
H36   H     H_    0.141079 0.834234 0.355091 0.263546
O13   O     O_3   0.643897 0.894156 0.605167 -0.613689
C55   C     C_3   0.719815 0.913716 0.559736 0.114768
H37   H     H_    0.755126 0.971224 0.591010 0.178443
H38   H     H_    0.702349 0.930692 0.499506 0.145271
C56   C     C_3   0.783832 0.840245 0.553222 -0.426636
H39   H     H_    0.802112 0.825128 0.613535 0.230709
H40   H     H_    0.750719 0.782478 0.520459 0.211292
C57   C     C_3   0.868829 0.863287 0.509473 -0.893646
H41   H     H_    0.852319 0.877937 0.448602 0.255493
H42   H     H_    0.913134 0.808558 0.505096 0.259974
H43   H     H_    0.905102 0.919484 0.542004 0.258723
O14   O     O_3   0.365410 0.105487 0.384809 -0.610162
C58   C     C_3   0.409760 0.076917 0.314386 0.095554
H44   H     H_    0.455872 0.026218 0.325900 0.198301
H45   H     H_    0.448583 0.130251 0.290022 0.130599
C59   C     C_3   0.340311 0.040155 0.252260 -0.351178
H46   H     H_    0.294794 0.992935 0.277979 0.235846
H47   H     H_    0.299854 0.092447 0.234723 0.215510
C60   C     C_3   0.384365 0.996873 0.178739 -0.882902
H48   H     H_    0.429808 0.043231 0.151760 0.253432
H49   H     H_    0.332147 0.972052 0.134459 0.260434
H50   H     H_    0.422958 0.942563 0.194516 0.279456
C61   C     C_2   0.898439 0.417719 0.283240 0.362782
H51   H     H_    0.832607 0.386039 0.281931 0.075632
O15   O     O_2   0.931277 0.433930 0.220468 -0.505907
C62   C     C_2   0.100062 0.539400 0.723913 0.390016
H52   H     H_    0.164618 0.513393 0.732381 0.049466
O16   O     O_2   0.068812 0.584013 0.779238 -0.495696
O17   O     O_3   0.084731 0.399044 0.293702 -0.552564
C63   C     C_3   0.073747 0.308714 0.287208 0.112560
H53   H     H_    0.076264 0.285147 0.223216 0.171995
H54   H     H_    0.007728 0.285273 0.308716 0.107649
C64   C     C_3   0.149404 0.269751 0.330338 -0.338728
H55   H     H_    0.214777 0.289255 0.305416 0.247972
H56   H     H_    0.148898 0.293004 0.394459 0.221518
C65   C     C_3   0.138931 0.172551 0.321660 -0.941391
H57   H     H_    0.074450 0.151489 0.347112 0.259526
H58   H     H_    0.194046 0.146274 0.353995 0.295463
H59   H     H_    0.141286 0.146996 0.258159 0.252241
O18   O     O_3   0.911749 0.515691 0.719126 -0.553021
C66   C     C_3   0.912009 0.434175 0.747369 0.112816
H60   H     H_    0.915982 0.444439 0.813134 0.180452
H61   H     H_    0.970942 0.396819 0.727829 0.101700
C67   C     C_3   0.825344 0.382048 0.723445 -0.330381
H62   H     H_    0.767065 0.418954 0.744392 0.254823
H63   H     H_    0.821200 0.369103 0.657843 0.222400
C68   C     C_3   0.820997 0.297022 0.758910 -0.931120
H64   H     H_    0.877903 0.258285 0.737918 0.258424
H65   H     H_    0.757694 0.260923 0.740148 0.262470
H66   H     H_    0.822939 0.307858 0.824697 0.264413
O19   O     O_3   0.430923 0.359719 0.723518 -0.572483
C69   C     C_3   0.345978 0.357647 0.685715 0.116450
H67   H     H_    0.350918 0.318562 0.627559 0.179855
H68   H     H_    0.324946 0.421610 0.672560 0.095414
C70   C     C_3   0.274076 0.315680 0.734608 -0.356343
H69   H     H_    0.296458 0.253200 0.749810 0.256621
H70   H     H_    0.263304 0.357308 0.790445 0.206146
C71   C     C_3   0.185769 0.301188 0.688758 -0.935512
H71   H     H_    0.162412 0.362417 0.671608 0.248794
H72   H     H_    0.134242 0.273168 0.726485 0.260511
H73   H     H_    0.193908 0.256505 0.634387 0.263375
O20   O     O_3   0.549024 0.640083 0.271458 -0.565646
C72   C     C_3   0.640720 0.667016 0.269232 0.105846
H74   H     H_    0.644375 0.736713 0.264075 0.184234
H75   H     H_    0.677728 0.636395 0.217599 0.113706
C73   C     C_3   0.687639 0.651326 0.346146 -0.339295
H76   H     H_    0.653628 0.685666 0.397171 0.243979
H77   H     H_    0.683408 0.581952 0.352119 0.209722
C74   C     C_3   0.785826 0.681819 0.347289 -0.929046
H78   H     H_    0.821936 0.646588 0.298049 0.273123
H79   H     H_    0.817107 0.669887 0.404335 0.266782
H80   H     H_    0.792113 0.751313 0.341517 0.257070
C75   C     C_2   0.424511 0.355110 0.890494 0.391681
H81   H     H_    0.398273 0.356590 0.950116 0.082616
O21   O     O_2   0.440808 0.286075 0.855363 -0.540273
C76   C     C_2   0.537651 0.642926 0.103388 0.381781
H82   H     H_    0.563136 0.642885 0.043621 0.087051
O22   O     O_2   0.514345 0.710127 0.137660 -0.528095
C77   C     C_2   0.517040 0.322109 0.240844 0.404942
H83   H     H_    0.470869 0.271198 0.215631 0.036189
O23   O     O_2   0.573362 0.306379 0.288774 -0.536848
C78   C     C_2   0.473223 0.677492 0.758461 0.411761
H84   H     H_    0.517211 0.727901 0.787804 0.060967
O24   O     O_2   0.422537 0.694273 0.706345 -0.515854

loop_
_geom_bond_atom_site_label_1
_geom_bond_atom_site_label_2
_ccdc_geom_bond_type
C64   C65   S    
C38   C40   A    
C70   H69   S    
Cu1   O1    S    
C36   C42   A    
O13   C55   S    
C63   C64   S    
C75   H81   S    
C55   H38   S    
O19   C69   S    
C28   N4    A    
Cu1   O5    S    
C58   H44   S    
C48   H20   S    
Cu2   O6    S    
C28   H2    S    
C59   H46   S    
C45   H14   S    
C1    C5    S    
C35   C37   A    
C63   H54   S    
C69   H67   S    
C8    O19   S    
C75   O21   D    
C2    O2    A    
C58   H45   S    
C64   H55   S    
C69   C70   S    
C51   H29   S    
C64   H56   S    
C18   C20   A    
C42   C62   S    
C66   C67   S    
C61   O15   D    
C77   O23   D    
C57   H41   S    
C53   H32   S    
C16   C78   S    
C17   C19   A    
C29   O9    S    
C71   H73   S    
C3    C41   A    
C43   H9    S    
C56   H40   S    
C45   H15   S    
C51   H28   S    
C54   H34   S    
C31   C33   A    
C17   N3    A    
C65   H58   S    
C11   N1    S    
C24   O8    A    
C60   H50   S    
C27   H1    S    
C71   H72   S    
C15   C77   S    
C24   O6    A    
C72   H74   S    
C7    O20   S    
C68   H64   S    
C10   C75   S    
C54   H35   S    
Cu2   O7    S    
C2    C6    S    
C17   H8    S    
C53   H33   S    
C55   H37   S    
C18   H7    S    
C69   H68   S    
C48   H21   S    
C50   H26   S    
C45   H13   S    
O9    C43   S    
C52   H30   S    
C55   C56   S    
C63   H53   S    
C67   C68   S    
C62   O16   D    
C9    C76   S    
C46   H17   S    
O10   C46   S    
C58   C59   S    
C6    C8    A    
C59   C60   S    
N1    N2    D    
C74   H78   S    
C57   H43   S    
C78   O24   D    
Cu1   Cu2   S    
C21   N5    S    
C37   C38   A    
C46   C47   S    
C65   H59   S    
C49   H24   S    
C4    C39   A    
C66   H60   S    
C56   C57   S    
C51   H27   S    
C29   C39   A    
C30   C40   A    
C50   H25   S    
C9    C11   A    
C67   H62   S    
C72   H75   S    
C10   C12   A    
C74   H80   S    
C76   H82   S    
C13   H5    S    
C41   C61   S    
C8    C10   A    
C71   H71   S    
C1    O1    A    
C12   C14   A    
C3    C40   A    
C68   H66   S    
C47   H19   S    
C13   C15   A    
C61   H51   S    
C33   H3    S    
C54   H36   S    
C14   C16   A    
C34   H4    S    
C76   O22   D    
O20   C72   S    
C49   C50   S    
C5    C7    A    
C65   H57   S    
C52   H31   S    
C48   H22   S    
C7    C9    A    
C21   C25   A    
C73   H76   S    
C59   H47   S    
C19   C21   A    
C29   C31   A    
C67   H63   S    
C20   C22   A    
C62   H52   S    
C70   H70   S    
C1    O3    A    
C22   N6    S    
C44   C45   S    
C72   C73   S    
O17   C63   S    
C43   C44   S    
C70   C71   S    
C18   N4    A    
Cu2   O3    S    
C50   C51   S    
C47   C48   S    
C4    O18   S    
C20   O11   S    
C26   C28   A    
C23   C32   S    
C73   C74   S    
C36   C38   A    
C60   H48   S    
C24   C31   S    
C44   H11   S    
C37   C39   A    
C78   H84   S    
C19   O12   S    
C30   C32   A    
C11   C13   A    
Cu2   N3    S    
C23   O7    A    
N5    N6    D    
C14   H6    S    
C4    C42   A    
Cu2   O2    S    
Cu1   O8    S    
C23   O5    A    
O12   C52   S    
C33   C35   A    
C34   C36   A    
C27   N3    A    
C66   H61   S    
C77   H83   S    
C35   C41   A    
C57   H42   S    
C5    C15   A    
C25   O13   S    
C6    C16   A    
C46   H16   S    
C30   O10   S    
C2    O4    A    
Cu1   N4    S    
C3    O17   S    
C68   H65   S    
C47   H18   S    
C22   C26   A    
C44   H12   S    
O14   C58   S    
C43   H10   S    
O18   C66   S    
C74   H79   S    
C52   C53   S    
C26   O14   S    
C56   H39   S    
O11   C49   S    
C53   C54   S    
C12   N2    S    
C49   H23   S    
Cu1   O4    S    
C32   C34   A    
C73   H77   S    
C60   H49   S    
C25   C27   A    
