data_mof_unit_61778.cif
_audit_creation_date              2012-12-10T19:19:01-0500
_audit_creation_method            fapswitch 2.2
_symmetry_space_group_name_H-M    P1
_symmetry_Int_Tables_number       1
_space_group_crystal_system       triclinic
_cell_length_a                    16.018176
_cell_length_b                    14.769736
_cell_length_c                    19.388933
_cell_angle_alpha                 90.000107
_cell_angle_beta                  89.990012
_cell_angle_gamma                 90.004993
_cell_volume                      4587.11571119

loop_
_atom_site_label
_atom_site_type_symbol
_atom_type_description
_atom_site_fract_x
_atom_site_fract_y
_atom_site_fract_z
_atom_type_partial_charge
C1    C     C_R   0.340924 0.499996 0.500012 0.826546
C2    C     C_R   0.659076 0.500003 0.499988 0.826543
C3    C     C_1   0.822916 0.499954 0.499993 0.019204
C4    C     C_1   0.177084 0.500037 0.500009 0.019032
C5    C     C_1   0.251994 0.499990 0.500011 -0.157012
C6    C     C_1   0.748006 0.500006 0.499990 -0.156951
C7    C     C_R   0.511239 0.951646 0.561903 0.127298
C8    C     C_R   0.488726 0.047954 0.437956 0.104425
C9    C     C_R   0.488763 0.951645 0.438101 0.127066
C10   C     C_R   0.511277 0.047958 0.562051 0.104268
C11   C     C_R   0.499996 0.902844 0.500001 -0.046933
C12   C     C_R   0.500002 0.097122 0.500001 -0.091134
C13   C     C_1   0.499998 0.802599 0.500000 0.265854
C14   C     C_1   0.500001 0.197410 0.500001 0.137180
C15   C     C_R   0.499975 0.499997 0.367120 0.863131
C16   C     C_R   0.500023 0.499997 0.632880 0.863137
C17   C     C_R   0.500019 0.581923 0.254784 -0.248939
C18   C     C_R   0.499978 0.418010 0.745192 -0.253096
C19   C     C_R   0.500123 0.581924 0.745216 -0.248965
C20   C     C_R   0.499825 0.418010 0.254808 -0.253121
C21   C     C_R   0.499979 0.582195 0.182920 0.593348
C22   C     C_R   0.499991 0.417703 0.817057 0.594503
C23   C     C_R   0.500091 0.582196 0.817079 0.593353
C24   C     C_R   0.499831 0.417702 0.182944 0.594503
C25   C     C_R   0.499903 0.499939 0.146091 -0.207238
C26   C     C_R   0.500025 0.499941 0.853909 -0.207239
C27   C     C_R   0.499941 0.499978 0.291291 -0.223485
C28   C     C_R   0.500043 0.499978 0.708709 -0.223484
C29   C     C_R   0.499982 0.499928 0.930023 0.459227
C30   C     C_R   0.499913 0.499924 0.069978 0.459243
C31   C     C_R   0.955864 0.582512 0.499504 0.158051
C32   C     C_R   0.044136 0.417477 0.500499 0.158127
C33   C     C_R   0.043550 0.582910 0.499505 0.059116
C34   C     C_R   0.956450 0.417079 0.500498 0.059577
C35   C     C_R   0.912597 0.499792 0.499999 0.021377
C36   C     C_R   0.087403 0.500197 0.500004 0.021472
Cu1   Cu    Cu3+1 0.500000 0.589220 0.500000 1.004376
Cu2   Cu    Cu3+1 0.500000 0.410780 0.500000 0.985199
H1    H     H_    0.500399 0.646120 0.281795 0.204777
H2    H     H_    0.499628 0.353825 0.718161 0.197634
H3    H     H_    0.500487 0.646121 0.718203 0.204763
H4    H     H_    0.499451 0.353824 0.281840 0.197613
N1    N     N_R   0.529225 0.427580 0.034296 -0.129864
N2    N     N_R   0.470663 0.572267 0.965706 -0.129829
N3    N     N_R   0.529258 0.427582 0.965714 -0.129807
N4    N     N_R   0.470630 0.572266 0.034287 -0.129804
N5    N     N_1   0.500000 0.276710 0.500000 -0.154066
N6    N     N_1   0.500000 0.723290 0.500000 -0.156818
O1    O     O_R   0.380310 0.575320 0.500010 -0.574511
O2    O     O_R   0.619690 0.424680 0.499990 -0.575661
O3    O     O_R   0.619690 0.575320 0.499990 -0.561515
O4    O     O_R   0.380310 0.424680 0.500010 -0.562727
O5    O     O_R   0.499990 0.575370 0.400140 -0.575264
O6    O     O_R   0.500010 0.424630 0.599860 -0.580380
O7    O     O_R   0.500010 0.575370 0.599860 -0.575295
O8    O     O_R   0.499990 0.424630 0.400140 -0.580418
F1    F     F_    0.501781 0.663138 0.149776 -0.609973
F2    F     F_    0.498203 0.336743 0.850179 -0.610418
F3    F     F_    0.501878 0.663140 0.850222 -0.609974
F4    F     F_    0.498010 0.336744 0.149822 -0.610418
N7    N     N_3   0.087009 0.667876 0.498995 -0.587398
H5    H     H_    0.125150 0.670065 0.455259 0.236029
H6    H     H_    0.125132 0.670970 0.542698 0.236042
N8    N     N_3   0.912990 0.332113 0.501007 -0.588132
H7    H     H_    0.874869 0.329020 0.457302 0.235293
H8    H     H_    0.874846 0.329925 0.544740 0.235009
N9    N     N_3   0.910189 0.666078 0.498999 -0.558353
H9    H     H_    0.927541 0.703537 0.542453 0.246889
H10   H     H_    0.927564 0.702631 0.455102 0.246992
N10   N     N_3   0.089812 0.333911 0.501002 -0.560024
H11   H     H_    0.072434 0.297353 0.544896 0.246713
H12   H     H_    0.072463 0.296456 0.457546 0.246448
N11   N     N_3   0.522954 0.094720 0.626161 -0.571708
H13   H     H_    0.471028 0.136107 0.634742 0.237205
H14   H     H_    0.575638 0.136108 0.621713 0.232931
N12   N     N_3   0.477340 0.902758 0.374908 -0.568509
H15   H     H_    0.524634 0.921857 0.340705 0.259135
H16   H     H_    0.420058 0.921912 0.353581 0.254533
N13   N     N_3   0.477033 0.094716 0.373857 -0.571480
H17   H     H_    0.424353 0.136094 0.378324 0.234880
H18   H     H_    0.528950 0.136123 0.365276 0.235946
N14   N     N_3   0.522713 0.902766 0.625099 -0.567893
H19   H     H_    0.580045 0.921874 0.646361 0.255385
H20   H     H_    0.475484 0.921886 0.659353 0.258467

loop_
_geom_bond_atom_site_label_1
_geom_bond_atom_site_label_2
_ccdc_geom_bond_type
C16   C28   S    
C7    C10   A    
C4    C36   S    
N11   H13   S    
C3    C6    T    
C23   F3    S    
C1    C5    S    
C15   O5    A    
N12   H16   S    
Cu1   O3    S    
C10   N11   S    
Cu2   O4    S    
C33   C36   A    
C34   C35   A    
C17   H1    S    
C23   C26   A    
N7    H6    S    
C18   H2    S    
C2    O2    A    
C20   C24   A    
C8    C9    A    
C8    N13   S    
C31   C33   A    
N10   H11   S    
C9    N12   S    
C24   F4    S    
Cu1   O5    S    
N11   H14   S    
C2    C6    S    
N2    N4    A    
C7    C11   A    
N9    H9    S    
C17   C27   A    
C18   C28   A    
N12   H15   S    
N13   H18   S    
C32   N10   S    
C17   C21   A    
C29   N3    A    
N9    H10   S    
N8    H8    S    
C19   C23   A    
C21   F1    S    
Cu1   Cu2   S    
Cu1   O1    S    
C15   C27   S    
Cu2   O6    S    
C3    C35   S    
C8    C12   A    
C34   N8    S    
C24   C25   A    
Cu1   N6    S    
C19   C28   A    
N1    N3    A    
Cu2   N5    S    
C10   C12   A    
C12   C14   S    
N14   H20   S    
C9    C11   A    
C29   N2    A    
C31   C35   A    
C30   N1    A    
C32   C36   A    
C25   C30   S    
C21   C25   A    
C18   C22   A    
C30   N4    A    
C4    C5    T    
C22   F2    S    
C13   N6    T    
C20   H4    S    
C14   N5    T    
Cu2   O2    S    
C20   C27   A    
C15   O8    A    
C16   O7    A    
N8    H7    S    
C11   C13   S    
N7    H5    S    
C1    O4    A    
C16   O6    A    
C2    O3    A    
C31   N9    S    
N13   H17   S    
Cu1   O7    S    
C7    N14   S    
Cu2   O8    S    
C26   C29   S    
C33   N7    S    
N14   H19   S    
C22   C26   A    
N10   H12   S    
C1    O1    A    
C19   H3    S    
C32   C34   A    
