data_mof_unit_12914.cif
_audit_creation_date              2012-10-26T18:52:10-0400
_audit_creation_method            fapswitch 2.2
_symmetry_space_group_name_H-M    P1
_symmetry_Int_Tables_number       1
_space_group_crystal_system       triclinic
_cell_length_a                    13.86191
_cell_length_b                    14.768555
_cell_length_c                    14.820832
_cell_angle_alpha                 115.694472
_cell_angle_beta                  107.122603
_cell_angle_gamma                 72.734218
_cell_volume                      2562.023814

loop_
_atom_site_label
_atom_site_type_symbol
_atom_type_description
_atom_site_fract_x
_atom_site_fract_y
_atom_site_fract_z
_atom_type_partial_charge
Br1   Br    Br    0.247806 0.258150 0.181760 -0.504525
Br2   Br    Br    0.820369 0.685365 0.745195 -0.483479
Br3   Br    Br    0.649892 0.672775 0.250396 -0.473602
Br4   Br    Br    0.333783 0.314479 0.744565 -0.480633
C1    C     C_R   0.514788 0.118622 0.687783 0.565302
C2    C     C_R   0.437023 0.508283 0.873317 -0.096696
C3    C     C_R   0.567215 0.387000 0.103198 -0.111687
C4    C     C_R   0.403053 0.613132 0.899118 -0.092725
C5    C     C_R   0.346921 0.275458 0.307024 0.118100
C6    C     C_R   0.694566 0.690168 0.646514 0.125188
C7    C     C_R   0.366399 0.201923 0.348762 0.072759
C8    C     C_R   0.655459 0.780186 0.628509 0.072757
C9    C     C_R   0.485111 0.290002 0.489540 0.230067
C10   C     C_R   0.510515 0.714056 0.510155 0.252097
C11   C     C_R   0.475640 0.362356 0.446224 0.023204
C12   C     C_R   0.483847 0.881332 0.312128 0.568747
C13   C     C_R   0.550719 0.615789 0.518331 -0.005525
C14   C     C_R   0.401368 0.356600 0.355799 0.024071
C15   C     C_R   0.642639 0.607308 0.591686 0.031499
C16   C     C_R   0.686814 0.986933 0.504058 0.554392
C17   C     C_R   0.313188 0.013087 0.495975 0.562607
C18   C     C_R   0.534696 0.442240 0.491441 0.042688
C19   C     C_R   0.503317 0.527012 0.460149 0.016628
C20   C     C_R   0.433338 0.514636 0.366730 -0.153811
C21   C     C_R   0.629331 0.435493 0.559646 -0.114658
C22   C     C_R   0.384282 0.431227 0.315437 -0.101700
C23   C     C_R   0.499602 0.358215 0.923963 0.033325
C24   C     C_R   0.682099 0.515675 0.608041 -0.095998
C25   C     C_1   0.207733 0.020850 0.494009 0.026672
C26   C     C_1   0.792289 0.979235 0.506143 0.017100
C27   C     C_2   0.013163 0.034579 0.490741 -0.105417
C28   C     C_2   0.986884 0.965625 0.509603 -0.102850
C29   C     C_1   0.881175 0.972543 0.507883 -0.018979
C30   C     C_1   0.118861 0.027603 0.492372 -0.015078
C31   C     C_R   0.523896 0.185581 0.796076 -0.012536
C32   C     C_R   0.468374 0.814221 0.203835 -0.004704
C33   C     C_R   0.600908 0.213815 0.973360 0.099547
C34   C     C_R   0.476655 0.640685 0.077087 0.018544
C35   C     C_R   0.380996 0.786903 0.028526 0.102094
C36   C     C_R   0.588942 0.149290 0.870570 -0.090151
C37   C     C_R   0.401893 0.852268 0.131083 -0.130297
C38   C     C_R   0.469421 0.287084 0.825115 0.111462
C39   C     C_R   0.514706 0.710101 0.173980 0.117041
C40   C     C_R   0.557110 0.319530 0.000921 0.036598
C41   C     C_R   0.418548 0.680420 0.001210 0.058910
C42   C     C_R   0.475258 0.465943 0.948881 0.048364
C43   C     C_R   0.496528 0.533268 0.052296 0.045616
C44   C     C_R   0.532037 0.491570 0.128231 -0.093022
Cu1   Cu    Cu3+1 0.526370 0.916390 0.524860 1.017509
Cu2   Cu    Cu3+1 0.473630 0.083610 0.475140 0.979245
H1    H     H_    0.044482 0.903734 0.526332 0.152023
H2    H     H_    0.433131 0.461421 0.793334 0.157654
H3    H     H_    0.331865 0.426732 0.243936 0.183655
H4    H     H_    0.754328 0.504801 0.659377 0.182439
H5    H     H_    0.697047 0.842483 0.667260 0.155372
H6    H     H_    0.328027 0.137313 0.308998 0.154746
H7    H     H_    0.723071 0.209247 0.088294 0.246778
H8    H     H_    0.616046 0.182167 0.097402 0.243868
H9    H     H_    0.303625 0.907780 0.984647 0.254699
H10   H     H_    0.247593 0.805361 0.930650 0.245170
H11   H     H_    0.406555 0.723783 0.382393 0.231353
H12   H     H_    0.955565 0.096467 0.474004 0.146270
H13   H     H_    0.356813 0.706435 0.467690 0.221780
H14   H     H_    0.596874 0.244920 0.595051 0.264336
H15   H     H_    0.487176 0.327319 0.638530 0.276408
H16   H     H_    0.420252 0.564581 0.327380 0.108287
H17   H     H_    0.668335 0.365601 0.571756 0.149354
H18   H     H_    0.601463 0.359811 0.164842 0.125434
H19   H     H_    0.367674 0.641289 0.838177 0.163634
H20   H     H_    0.367253 0.933055 0.153828 0.138775
H21   H     H_    0.628886 0.070009 0.849226 0.164041
H22   H     H_    0.534185 0.539390 0.208012 0.152771
N1    N     N_R   0.433980 0.209250 0.437830 -0.239487
N2    N     N_R   0.566020 0.790750 0.562170 -0.222068
N3    N     N_3   0.661905 0.170854 0.047218 -0.607306
N4    N     N_3   0.318616 0.827651 0.952989 -0.610867
N5    N     N_3   0.407833 0.740268 0.458624 -0.567248
N6    N     N_3   0.539498 0.308409 0.592016 -0.639047
O1    O     O_R   0.534760 0.019630 0.662610 -0.511997
O2    O     O_R   0.465240 0.980370 0.337390 -0.520529
O3    O     O_R   0.490220 0.160840 0.620610 -0.485144
O4    O     O_R   0.509780 0.839160 0.379390 -0.460761
O5    O     O_R   0.663260 0.919400 0.523940 -0.484805
O6    O     O_R   0.336740 0.080600 0.476060 -0.479686
O7    O     O_R   0.618720 0.060610 0.481950 -0.511920
O8    O     O_R   0.381280 0.939390 0.518050 -0.462045

loop_
_geom_bond_atom_site_label_1
_geom_bond_atom_site_label_2
_ccdc_geom_bond_type
C11   C14   A    
C36   H21   S    
C8    N2    A    
C14   C22   A    
Cu2   O6    S    
C35   C37   A    
C16   C26   S    
C21   C24   A    
Br3   C39   S    
C4    H19   S    
C13   C19   A    
C10   N2    A    
C20   C22   A    
C33   C36   A    
C10   N5    S    
C31   C38   A    
C4    C41   A    
C34   C41   A    
Cu2   O7    S    
C3    H18   S    
C42   C43   A    
C23   C40   A    
C11   C18   A    
C43   C44   A    
H11   N5    S    
C18   C21   A    
C21   H17   S    
C19   C20   A    
C1    O1    A    
C20   H16   S    
C35   C41   A    
C33   N3    S    
C27   H12   S    
C32   C37   A    
C44   H22   S    
H8    N3    S    
Br1   C5    S    
C7    N1    A    
Cu2   N1    S    
C24   H4    S    
C2    C4    A    
C3    C40   A    
C17   C25   S    
C25   C30   T    
H10   N4    S    
Cu1   O1    S    
C12   O2    A    
Cu1   O4    S    
C28   H1    S    
C1    O3    A    
C27   C28   D    
C17   O6    A    
C6    C15   A    
C16   O7    A    
C12   O4    A    
C27   C30   S    
C35   N4    S    
C15   C24   A    
C5    C7    A    
C34   C43   A    
C6    C8    A    
C23   C42   A    
C9    N1    A    
C9    C11   A    
Br2   C6    S    
C22   H3    S    
H13   N5    S    
C17   O8    A    
H15   N6    S    
C2    C42   A    
C26   C29   T    
Cu1   N2    S    
H14   N6    S    
Cu1   O8    S    
Cu2   O2    S    
C3    C44   A    
H7    N3    S    
C33   C40   A    
C31   C36   A    
C34   C39   A    
C28   C29   S    
C23   C38   A    
Cu1   O5    S    
Br4   C38   S    
C1    C31   S    
C13   C15   A    
C8    H5    S    
C9    N6    S    
C5    C14   A    
Cu1   Cu2   S    
C16   O5    A    
C18   C19   A    
C32   C39   A    
C2    H2    S    
H9    N4    S    
C12   C32   S    
C7    H6    S    
Cu2   O3    S    
C37   H20   S    
C10   C13   A    
