data_mof_unit_46073.cif
_audit_creation_date              2013-03-05T15:55:18-0500
_audit_creation_method            fapswitch 2.2
_symmetry_space_group_name_H-M    P1
_symmetry_Int_Tables_number       1
_space_group_crystal_system       triclinic
_cell_length_a                    6.944597
_cell_length_b                    16.785382
_cell_length_c                    17.043083
_cell_angle_alpha                 100.346979
_cell_angle_beta                  89.014679
_cell_angle_gamma                 90.597711
_cell_volume                      1954.02269252

loop_
_atom_site_label
_atom_site_type_symbol
_atom_site_description
_atom_site_fract_x
_atom_site_fract_y
_atom_site_fract_z
_atom_type_partial_charge
O1    O     O_R   0.494370 0.415690 0.413450 -0.596162
O2    O     O_R   0.819420 0.429360 0.578420 -0.579085
O3    O     O_R   0.994280 0.584310 0.586550 -0.580133
C1    C     C_R   0.649621 0.413232 0.604484 0.935226
O4    O     O_R   0.823790 0.406230 0.413570 -0.596588
O5    O     O_R   0.998670 0.561000 0.420530 -0.592464
C2    C     C_R   0.655513 0.383444 0.384820 0.954620
O6    O     O_R   0.489970 0.439000 0.579470 -0.586112
O7    O     O_3   0.662300 0.550810 0.502470 -0.279780
V1    V     V_3+5 0.935380 0.490570 0.499540 1.180099
O8    O     O_R   0.328650 0.570640 0.421580 -0.596966
C3    C     C_R   0.162180 0.586018 0.394798 0.949530
O9    O     O_R   0.324290 0.593770 0.586430 -0.604880
C4    C     C_R   0.154478 0.616234 0.615690 0.940523
V2    V     V_3+5 0.435930 0.509430 0.500460 1.159931
O10   O     O_3   0.159140 0.449190 0.497530 -0.265591
C5    C     C_R   0.276870 0.747786 0.693221 -0.178290
H1    H     H_    0.389787 0.748214 0.648677 0.136457
C6    C     C_R   0.267910 0.811880 0.758348 -0.129553
H2    H     H_    0.373797 0.859984 0.762598 0.130385
C7    C     C_R   0.121224 0.814922 0.816465 -0.123646
C8    C     C_R   0.985208 0.751862 0.808892 -0.174210
H3    H     H_    0.873324 0.752363 0.854097 0.146728
C9    C     C_R   0.994342 0.686519 0.744364 0.189894
C10   C     C_R   0.141211 0.684207 0.685187 -0.177524
C11   C     C_R   0.164963 0.635233 0.330722 -0.137582
C12   C     C_R   0.103937 0.859285 0.165098 -0.280780
C13   C     C_R   0.956684 0.824159 0.284965 -0.182464
C14   C     C_R   0.971921 0.875089 0.228976 -0.158226
C15   C     C_R   0.223271 0.790286 0.157370 0.283777
C16   C     C_R   0.208393 0.737259 0.214427 -0.029374
C17   C     C_R   0.071092 0.754969 0.278132 0.156939
C18   C     C_R   0.048923 0.703552 0.334776 -0.249819
C19   C     C_R   0.300112 0.617403 0.268335 -0.223909
C20   C     C_R   0.323620 0.666866 0.210496 0.174696
H4    H     H_    0.945716 0.718159 0.383595 0.132080
H5    H     H_    0.391439 0.564863 0.265114 0.135382
H6    H     H_    0.852129 0.838315 0.333288 0.144617
H7    H     H_    0.878564 0.927259 0.235304 0.144164
C21   C     C_R   0.641125 0.363671 0.668076 -0.137796
C22   C     C_R   0.624498 0.136121 0.831439 -0.357157
C23   C     C_R   0.558116 0.148182 0.693298 0.297901
C24   C     C_R   0.572378 0.100351 0.753331 0.005660
C25   C     C_R   0.673556 0.219175 0.848807 0.248155
C26   C     C_R   0.661640 0.267396 0.788592 -0.000990
C27   C     C_R   0.602069 0.232004 0.710621 -0.014325
C28   C     C_R   0.593354 0.280980 0.650964 -0.122985
C29   C     C_R   0.697032 0.397912 0.745250 -0.176957
C30   C     C_R   0.705347 0.350929 0.804916 -0.035857
H8    H     H_    0.555185 0.255090 0.590376 0.151011
H9    H     H_    0.735837 0.461344 0.759355 0.117343
H10   H     H_    0.747200 0.380781 0.863823 0.166485
C31   C     C_R   0.787242 0.256364 0.300818 -0.097784
H11   H     H_    0.908437 0.258438 0.340313 0.135408
C32   C     C_R   0.772317 0.192114 0.236174 -0.067921
H12   H     H_    0.882138 0.145907 0.228022 0.152682
C33   C     C_R   0.616894 0.186528 0.183357 -0.291061
C34   C     C_R   0.474476 0.247766 0.197299 0.401722
C35   C     C_R   0.489668 0.311179 0.262986 -0.234499
H13   H     H_    0.379674 0.357415 0.272527 0.152583
C36   C     C_R   0.644836 0.316073 0.315405 -0.178716
O11   O     O_R   0.774880 0.061150 0.920630 -0.596828
O12   O     O_R   0.440980 0.093710 0.086500 -0.566003
O13   O     O_R   0.266190 0.938890 0.079390 -0.567997
C37   C     C_R   0.608856 0.117525 0.114641 1.002606
O14   O     O_R   0.445420 0.070740 0.921670 -0.589814
O15   O     O_R   0.270660 0.915760 0.913380 -0.595135
C38   C     C_R   0.615365 0.086669 0.895491 1.095831
O16   O     O_R   0.770400 0.084270 0.086640 -0.579503
O17   O     O_3   0.602590 0.949210 0.997500 -0.257344
V3    V     V_3+5 0.329470 0.009420 0.000470 1.281904
O18   O     O_R   0.940650 0.906250 0.913470 -0.610494
C39   C     C_R   0.110164 0.883419 0.884842 0.939990
O19   O     O_R   0.936210 0.929220 0.078300 -0.587758
C40   C     C_R   0.103191 0.912456 0.104012 0.996449
V4    V     V_3+5 0.828930 0.990510 0.999490 1.248391
O20   O     O_3   0.105680 0.050790 0.002500 -0.236103
N1    N     N_R   0.346767 0.771643 0.088494 0.233088
O21   O     O_R   0.283365 0.725899 0.024180 -0.414905
O22   O     O_R   0.512199 0.808367 0.086592 -0.386295
N2    N     N_R   0.500550 0.110967 0.614661 0.226276
O23   O     O_R   0.602532 0.052943 0.573600 -0.388657
O24   O     O_R   0.338864 0.131058 0.586330 -0.401875
N3    N     N_2   0.532700 0.015522 0.735715 -0.111499
H14   H     H_    0.427745 0.996974 0.694170 0.207055
C41   C     C_3   0.699522 0.963173 0.728652 -0.835194
H15   H     H_    0.709462 0.926741 0.667506 0.260924
H16   H     H_    0.685175 0.921443 0.772069 0.225764
H17   H     H_    0.836194 0.998068 0.740853 0.251739
N4    N     N_R   0.735788 0.254170 0.927493 0.230008
O25   O     O_R   0.624034 0.251791 0.989068 -0.381818
O26   O     O_R   0.910615 0.282114 0.938281 -0.352982
N5    N     N_R   0.317278 0.248810 0.144231 0.244741
O27   O     O_R   0.172477 0.199597 0.146803 -0.394096
O28   O     O_R   0.295686 0.311199 0.109741 -0.325791
N6    N     N_2   0.862807 0.620829 0.742316 -0.123783
H18   H     H_    0.859895 0.598593 0.794948 0.166203
C42   C     C_3   0.671236 0.637518 0.718036 -0.823396
H19   H     H_    0.602696 0.685076 0.763374 0.239671
H20   H     H_    0.581733 0.581670 0.712151 0.235810
H21   H     H_    0.676815 0.657709 0.659439 0.262101
N7    N     N_2   0.466782 0.645354 0.149979 -0.083202
H22   H     H_    0.461537 0.584943 0.123953 0.197818
C43   C     C_3   0.659402 0.670675 0.174758 -0.762601
H23   H     H_    0.759918 0.658223 0.122720 0.260969
H24   H     H_    0.708573 0.637119 0.221265 0.219641
H25   H     H_    0.662811 0.736645 0.198753 0.261289

loop_
_geom_bond_atom_site_label_1
_geom_bond_atom_site_label_2
_geom_bond_distance
_ccdc_geom_bond_type
C21   C28   1.403555 A    
O14   C38   1.296763 A    
C32   H12   1.082810 S    
O12   C37   1.299858 A    
N5    O27   1.299864 A    
C12   C14   1.401111 A    
C19   H5    1.084473 S    
C6    H2    1.079987 S    
C1    O6    1.300220 A    
C20   N7    1.421623 S    
C43   H24   1.111659 S    
N2    O23   1.300915 A    
N4    O25   1.300617 A    
C26   C27   1.421308 A    
O19   V4    1.991055 S    
C8    C9    1.407917 A    
C13   C14   1.392929 A    
C6    C7    1.403416 A    
C34   N5    1.431834 S    
N3    C41   1.451624 S    
C9    N6    1.420449 S    
O5    C3    1.302748 A    
C15   C16   1.433208 A    
N1    O22   1.300780 A    
V2    O10   2.159714 S    
C7    C39   1.484358 S    
C18   H4    1.084422 S    
O16   V4    2.000268 S    
C19   C20   1.404760 A    
C23   C27   1.415929 A    
O13   V3    1.986108 S    
C2    C36   1.484789 S    
O8    V2    1.991119 S    
N3    H14   1.031189 S    
C11   C19   1.399366 A    
C29   H9    1.080898 S    
C1    C21   1.480146 S    
N6    C42   1.444989 S    
O17   V3    2.154016 S    
O15   C39   1.297968 A    
C26   C30   1.410462 A    
C22   C38   1.485508 S    
O7    V1    2.154061 S    
O18   V4    1.997630 S    
C35   H13   1.083977 S    
N5    O28   1.300817 A    
O9    C4    1.305007 A    
C12   C15   1.416684 A    
C24   N3    1.426397 S    
C22   C24   1.410156 A    
O11   V4    1.988038 S    
C23   N2    1.434821 S    
C31   C36   1.402505 A    
C12   C40   1.488127 S    
C43   H23   1.110263 S    
N2    O24   1.301030 A    
C28   H8    1.082208 S    
C31   C32   1.400870 A    
C35   C36   1.403905 A    
O19   C40   1.297883 A    
C41   H16   1.109172 S    
C13   C17   1.400394 A    
V4    O20   2.159712 S    
O4    C2    1.301955 A    
C41   H15   1.110948 S    
C34   C35   1.403948 A    
C31   H11   1.083108 S    
C3    C11   1.482687 S    
O2    C1    1.295994 A    
C11   C18   1.399336 A    
N4    O26   1.301029 A    
O14   V3    1.988343 S    
C13   H6    1.083815 S    
C30   H10   1.081559 S    
N6    H18   1.031424 S    
C14   H7    1.083669 S    
C5    H1    1.082900 S    
C9    C10   1.417881 A    
N7    C43   1.446182 S    
O3    C4    1.297088 A    
O1    V2    1.998499 S    
C29   C30   1.396568 A    
O12   V3    2.005556 S    
O6    V2    1.987499 S    
C42   H20   1.109679 S    
C32   C33   1.408928 A    
O17   V4    1.709697 S    
C22   C25   1.411559 A    
C16   C20   1.424914 A    
C23   C24   1.414725 A    
O2    V1    1.988239 S    
V3    O20   1.706096 S    
C25   N4    1.435934 S    
C25   C26   1.420521 A    
C21   C29   1.397281 A    
C27   C28   1.420098 A    
O1    C2    1.297058 A    
C16   C17   1.425025 A    
C33   C37   1.493263 S    
O18   C39   1.301239 A    
C41   H17   1.112932 S    
O5    V1    1.986120 S    
O8    C3    1.295440 A    
C42   H21   1.110713 S    
O11   C38   1.298590 A    
C5    C10   1.405765 A    
C17   C18   1.411355 A    
O9    V2    1.997687 S    
O7    V2    1.710402 S    
O4    V1    2.005627 S    
O3    V1    2.002848 S    
V1    O10   1.705998 S    
N1    O21   1.300811 A    
C33   C34   1.420080 A    
C37   O16   1.302632 A    
C5    C6    1.401208 A    
O13   C40   1.301676 A    
O15   V3    2.002668 S    
C4    C10   1.492037 S    
N7    H22   1.031758 S    
C15   N1    1.431932 S    
C42   H19   1.111112 S    
C8    H3    1.083777 S    
C7    C8    1.401270 A    
C43   H25   1.109554 S    
