data_mof_unit_21682.cif
_audit_creation_date              2012-12-11T15:09:40-0500
_audit_creation_method            fapswitch 2.2
_symmetry_space_group_name_H-M    P1
_symmetry_Int_Tables_number       1
_space_group_crystal_system       triclinic
_cell_length_a                    20.997229
_cell_length_b                    7.131529
_cell_length_c                    14.009634
_cell_angle_alpha                 89.997594
_cell_angle_beta                  98.425595
_cell_angle_gamma                 90.003776
_cell_volume                      2075.19348992

loop_
_atom_site_label
_atom_site_type_symbol
_atom_type_description
_atom_site_fract_x
_atom_site_fract_y
_atom_site_fract_z
_atom_type_partial_charge
O1    O     O_R   0.447130 0.507140 0.597350 -0.539052
O2    O     O_R   0.552870 0.007140 0.402650 -0.539058
O3    O     O_R   0.578910 0.181280 0.586990 -0.535288
O4    O     O_R   0.421090 0.681280 0.413010 -0.535308
C1    C     C_R   0.604437 0.344464 0.607505 0.725574
C2    C     C_R   0.395563 0.844460 0.392495 0.725610
O5    O     O_R   0.449230 0.177860 0.608640 -0.538243
O6    O     O_R   0.550770 0.677860 0.391360 -0.538230
O7    O     O_R   0.422260 0.000770 0.424450 -0.537815
O8    O     O_R   0.577740 0.500770 0.575550 -0.537879
C3    C     C_R   0.433146 0.346475 0.634677 0.726527
C4    C     C_R   0.566856 0.846491 0.365324 0.726495
O9    O     O_3   0.491310 0.336980 0.439550 -0.373701
O10   O     O_3   0.508690 0.836980 0.560450 -0.373748
V1    V     V_3+5 0.501610 0.064760 0.511210 1.480793
V2    V     V_3+5 0.498390 0.564760 0.488790 1.480754
C5    C     C_R   0.612199 0.915438 0.119675 0.645572
C6    C     C_R   0.387843 0.414345 0.880428 0.645530
H1    H     H_    0.523900 0.916517 0.179283 0.159290
H2    H     H_    0.476143 0.415568 0.820822 0.159328
C7    C     C_R   0.605187 0.857815 0.287000 -0.136012
C8    C     C_R   0.394816 0.357708 0.713000 -0.136017
C9    C     C_R   0.915628 0.848370 0.299928 0.584104
C10   C     C_R   0.084368 0.349017 0.700057 0.584109
C11   C     C_R   0.878309 0.849019 0.373734 -0.116972
C12   C     C_R   0.121684 0.349860 0.626254 -0.116973
C13   C     C_R   0.811603 0.857990 0.352134 -0.292558
C14   C     C_R   0.188394 0.358525 0.647873 -0.292563
C15   C     C_R   0.779772 0.862130 0.255426 0.119203
C16   C     C_R   0.220232 0.362156 0.744590 0.119207
C17   C     C_R   0.817824 0.867726 0.178812 -0.048850
C18   C     C_R   0.182184 0.367526 0.821213 -0.048831
C19   C     C_R   0.711142 0.865671 0.234113 0.039598
C20   C     C_R   0.288867 0.365458 0.765904 0.039642
C21   C     C_R   0.680437 0.896359 0.137685 -0.065679
C22   C     C_R   0.319595 0.395408 0.862391 -0.065759
C23   C     C_R   0.718170 0.904665 0.062212 -0.109527
C24   C     C_R   0.281878 0.403157 0.937891 -0.109570
C25   C     C_R   0.785616 0.882901 0.081656 -0.115276
C26   C     C_R   0.214401 0.382121 0.918395 -0.115257
C27   C     C_R   0.671705 0.838633 0.306771 -0.217436
C28   C     C_R   0.328286 0.338836 0.693191 -0.217375
C29   C     C_R   0.575683 0.898930 0.194234 -0.191081
C30   C     C_R   0.424348 0.398194 0.805839 -0.191180
C31   C     C_R   0.886660 0.859886 0.203551 -0.225010
C32   C     C_R   0.113343 0.360001 0.796455 -0.225042
H3    H     H_    0.690762 0.800613 0.379792 0.117921
H4    H     H_    0.309210 0.301319 0.620101 0.117867
H5    H     H_    0.786113 0.867324 0.413305 0.138310
H6    H     H_    0.213882 0.368007 0.586712 0.138317
C33   C     C_1   0.166683 0.857198 0.168019 -0.124888
C34   C     C_1   0.833317 0.357185 0.831981 -0.124913
C35   C     C_1   0.219132 0.854849 0.219014 0.036099
C36   C     C_1   0.780869 0.354841 0.780985 0.036183
C37   C     C_1   0.280879 0.853325 0.279039 0.037505
C38   C     C_1   0.719121 0.353329 0.720959 0.037700
C39   C     C_1   0.333215 0.850997 0.330364 -0.159218
C40   C     C_1   0.666786 0.351008 0.669635 -0.159172
O11   O     O_R   0.922300 0.202240 0.924350 -0.527048
O12   O     O_R   0.077700 0.702240 0.075650 -0.527001
O13   O     O_R   0.050780 0.535130 0.891350 -0.542177
O14   O     O_R   0.949220 0.035130 0.108650 -0.542238
C41   C     C_R   0.069244 0.368326 0.867941 0.803894
C42   C     C_R   0.930757 0.868308 0.132062 0.803883
O15   O     O_R   0.921100 0.531560 0.912990 -0.528267
O16   O     O_R   0.078900 0.031560 0.087010 -0.528302
O17   O     O_R   0.947120 0.708470 0.097370 -0.539821
O18   O     O_R   0.052880 0.208470 0.902630 -0.539890
C43   C     C_R   0.895860 0.363593 0.893545 0.736199
C44   C     C_R   0.104140 0.863598 0.106454 0.736203
O19   O     O_3   0.008710 0.375800 0.060400 -0.370636
O20   O     O_3   0.991290 0.875800 0.939600 -0.370667
V3    V     V_3+5 0.998380 0.648080 0.988790 1.566887
V4    V     V_3+5 0.001620 0.148080 0.011210 1.566692
C45   C     C_1   0.688215 0.931362 0.962577 0.457311
N1    N     N_1   0.664788 0.952577 0.883226 -0.305583
C46   C     C_1   0.311888 0.428222 0.037608 0.457329
N2    N     N_1   0.335358 0.448074 0.117025 -0.305434
F1    F     F_    0.579582 0.952008 0.030663 -0.657115
F2    F     F_    0.420474 0.450532 0.969491 -0.657062
F3    F     F_    0.980917 0.840686 0.321967 -0.678468
F4    F     F_    0.019074 0.341661 0.678000 -0.678470
C47   C     C_1   0.908613 0.843322 0.473007 0.447834
N3    N     N_1   0.932947 0.838774 0.552637 -0.278098
C48   C     C_1   0.091372 0.344681 0.526962 0.447828
N4    N     N_1   0.067033 0.340545 0.447317 -0.278050
C49   C     C_1   0.819338 0.874354 0.998379 0.238697
N5    N     N_1   0.844696 0.867345 0.930504 -0.307440
C50   C     C_1   0.180642 0.373946 0.001648 0.238598
N6    N     N_1   0.155257 0.367278 0.069507 -0.307345

loop_
_geom_bond_atom_site_label_1
_geom_bond_atom_site_label_2
_ccdc_geom_bond_type
C16   C18   A    
C49   N5    T    
C9    C31   A    
C13   C15   A    
O1    C3    A    
C25   C49   S    
O2    C4    A    
C2    O7    A    
O16   C44   A    
C48   N4    T    
O5    C3    A    
C1    C40   S    
C21   C23   A    
C10   C12   A    
O18   V4    S    
O16   V4    S    
C15   C19   A    
O12   V3    S    
C5    F1    S    
O15   V3    S    
O13   C41   A    
C10   F4    S    
O14   C42   A    
C34   C43   S    
C7    C29   A    
C14   H6    S    
C8    C30   A    
H1    C29   S    
C20   C28   A    
O17   V3    S    
C33   C44   S    
C26   C50   S    
O5    V1    S    
C23   C45   S    
O6    V2    S    
C15   C17   A    
C2    C39   S    
H2    C30   S    
C34   C36   T    
C35   C37   S    
C36   C38   S    
C16   C20   A    
C42   O17   A    
O20   V4    S    
O19   V3    S    
O13   V3    S    
C46   N2    T    
C38   C40   T    
C4    C7    S    
C33   C35   T    
O4    V2    S    
C45   N1    T    
C5    C29   A    
C6    C30   A    
C47   N3    T    
O12   C44   A    
O6    C4    A    
C27   H3    S    
O1    V2    S    
C28   H4    S    
O2    V1    S    
O11   V4    S    
O11   C43   A    
C7    C27   A    
O4    C2    A    
C37   C39   T    
O3    V1    S    
C41   O18   A    
C9    F3    S    
C18   C32   A    
O20   V3    S    
O3    C1    A    
O19   V4    S    
C24   C46   S    
C11   C13   A    
C31   C42   S    
C12   C14   A    
C32   C41   S    
C10   C32   A    
C14   C16   A    
O7    V1    S    
C19   C27   A    
C1    O8    A    
C23   C25   A    
O8    V2    S    
C24   C26   A    
C8    C28   A    
C12   C48   S    
O15   C43   A    
C22   C24   A    
C19   C21   A    
C17   C25   A    
C20   C22   A    
C18   C26   A    
C9    C11   A    
C3    C8    S    
C6    F2    S    
C17   C31   A    
O9    V2    S    
C11   C47   S    
O10   V1    S    
O14   V4    S    
C5    C21   A    
C50   N6    T    
C6    C22   A    
C13   H5    S    
