data_mof_unit_15303.cif
_audit_creation_date              2012-12-10T17:35:52-0500
_audit_creation_method            fapswitch 2.2
_symmetry_space_group_name_H-M    P1
_symmetry_Int_Tables_number       1
_space_group_crystal_system       triclinic
_cell_length_a                    10.5617
_cell_length_b                    12.030917
_cell_length_c                    12.817541
_cell_angle_alpha                 94.464933
_cell_angle_beta                  89.153709
_cell_angle_gamma                 87.061239
_cell_volume                      1621.31958055

loop_
_atom_site_label
_atom_site_type_symbol
_atom_type_description
_atom_site_fract_x
_atom_site_fract_y
_atom_site_fract_z
_atom_type_partial_charge
C1    C     C_R   0.494287 0.523302 0.700482 0.939284
C2    C     C_R   0.584570 0.167800 0.601745 -0.062357
C3    C     C_R   0.534457 0.861620 0.552095 0.131324
C4    C     C_R   0.465507 0.138416 0.448032 0.143364
C5    C     C_R   0.531164 0.978459 0.543647 -0.126987
C6    C     C_R   0.468999 0.021599 0.456435 -0.120418
C7    C     C_R   0.742456 0.500871 0.499980 0.971779
C8    C     C_R   0.257535 0.499069 0.499934 0.965720
C9    C     C_3   0.961116 0.407021 0.540236 -0.294356
C10   C     C_3   0.038823 0.592669 0.459569 -0.251903
C11   C     C_3   0.039796 0.495996 0.599585 -0.234489
C12   C     C_R   0.505850 0.476689 0.299519 0.935073
C13   C     C_3   0.960168 0.503643 0.400198 -0.247060
C14   C     C_3   0.122652 0.497907 0.500494 -0.162460
C15   C     C_3   0.877334 0.501779 0.499294 -0.178228
C16   C     C_3   0.045552 0.410438 0.442064 0.460593
C17   C     C_3   0.954408 0.589175 0.557735 0.512733
C18   C     C_R   0.514455 0.460587 0.187373 -0.159186
C19   C     C_R   0.486082 0.539393 0.812627 -0.171416
C20   C     C_R   0.387399 0.617796 0.974567 -0.202151
C21   C     C_R   0.613647 0.382429 0.025516 -0.228224
C22   C     C_R   0.399631 0.618466 0.866510 0.427567
C23   C     C_R   0.559306 0.463797 0.866365 -0.240160
C24   C     C_R   0.601266 0.381698 0.133586 0.386336
C25   C     C_R   0.441327 0.536170 0.133588 -0.234965
C26   C     C_R   0.543816 0.461432 0.972884 0.110327
C27   C     C_R   0.457037 0.538641 0.027128 0.089202
C28   C     C_R   0.412195 0.946348 0.381771 0.371129
C29   C     C_R   0.588290 0.053822 0.618105 0.329156
C30   C     C_R   0.415727 0.832318 0.398094 -0.054426
H1    H     H_    0.073443 0.491525 0.680790 0.215793
H2    H     H_    0.172072 0.850450 0.863508 0.401291
H3    H     H_    0.321322 0.676816 0.017730 0.221039
H4    H     H_    0.680004 0.323657 0.982396 0.197910
H5    H     H_    0.415239 0.175888 0.386091 0.233485
H6    H     H_    0.584460 0.824281 0.614277 0.240369
H7    H     H_    0.629185 0.226191 0.656117 0.179724
H8    H     H_    0.371369 0.774019 0.343458 0.175933
H9    H     H_    0.353627 0.113980 0.158357 0.408465
H10   H     H_    0.521532 0.955661 0.831424 0.389690
H11   H     H_    0.926550 0.508123 0.318985 0.223414
H12   H     H_    0.926609 0.330543 0.571994 0.203638
H13   H     H_    0.073280 0.669165 0.427814 0.212754
H14   H     H_    0.939949 0.194998 0.365504 0.378362
H15   H     H_    0.967401 0.808064 0.761110 0.413443
H16   H     H_    0.374349 0.595764 0.175555 0.180291
H17   H     H_    0.626144 0.404131 0.824336 0.181571
H18   H     H_    0.774903 0.163991 0.077969 0.385048
N1    N     N_R   0.523490 0.207800 0.519350 -0.151063
N2    N     N_R   0.476510 0.792200 0.480650 -0.147965
O1    O     O_R   0.506270 0.421700 0.658830 -0.654210
O2    O     O_2   0.173191 0.213406 0.445023 -0.296299
O3    O     O_3   0.994133 0.219171 0.308618 -0.383555
O4    O     O_2   0.828338 0.786602 0.555056 -0.263267
O5    O     O_2   0.792014 0.679758 0.707578 -0.304583
O6    O     O_3   0.005482 0.778197 0.692929 -0.445725
O7    O     O_2   0.768826 0.354542 0.284450 -0.308161
O8    O     O_2   0.630651 0.201557 0.243956 -0.251404
O9    O     O_3   0.816029 0.227882 0.114363 -0.465597
O10   O     O_2   0.372274 0.796963 0.754903 -0.285812
O11   O     O_2   0.229412 0.646330 0.717509 -0.296022
O12   O     O_R   0.493730 0.578300 0.341170 -0.651339
O13   O     O_3   0.188782 0.775094 0.887980 -0.525695
O14   O     O_2   0.329509 0.887769 0.188740 -0.299032
O15   O     O_2   0.202721 0.029736 0.296229 -0.190667
O16   O     O_3   0.412554 0.086273 0.211068 -0.506479
O17   O     O_2   0.798956 0.970153 0.701520 -0.185786
O18   O     O_2   0.675946 0.113081 0.809671 -0.334765
O19   O     O_3   0.591595 0.914709 0.790104 -0.484983
O20   O     O_R   0.491200 0.609310 0.646410 -0.545861
O21   O     O_R   0.508800 0.390690 0.353590 -0.554389
O22   O     O_R   0.693580 0.406210 0.506230 -0.609699
O23   O     O_R   0.306420 0.593790 0.493770 -0.600540
O24   O     O_R   0.678510 0.593830 0.493810 -0.589582
O25   O     O_R   0.321490 0.406170 0.506190 -0.590705
O26   O     O_2   0.205515 0.318058 0.290774 -0.276221
S1    S     S_3+6 0.109779 0.287513 0.370114 0.094212
S2    S     S_3+6 0.889546 0.711434 0.630115 0.094237
S3    S     S_3+6 0.704529 0.289722 0.197773 0.071361
S4    S     S_3+6 0.296712 0.710875 0.802630 0.061400
S5    S     S_3+6 0.335554 0.986953 0.267170 0.071166
S6    S     S_3+6 0.666873 0.013608 0.731920 0.054929
Zn1   Zn    Zn3+2 0.510060 0.374730 0.508290 1.045671
Zn2   Zn    Zn3+2 0.489940 0.625270 0.491710 1.059409

loop_
_geom_bond_atom_site_label_1
_geom_bond_atom_site_label_2
_ccdc_geom_bond_type
C21   C26   A    
O7    S3    D    
C19   C23   A    
C13   H11   S    
N2    Zn2   S    
C9    H12   S    
C2    C29   A    
C18   C24   A    
C9    C16   S    
C5    C6    A    
C11   C14   S    
O11   S4    D    
O6    S2    S    
C30   H8    S    
C16   S1    S    
C23   C26   A    
C17   S2    S    
O19   S6    S    
H14   O3    S    
C6    C28   A    
H15   O6    S    
O20   Zn2   S    
C10   H13   S    
O23   Zn2   S    
C5    C29   A    
C9    C11   S    
C7    C15   S    
C30   N2    A    
C4    H5    S    
C11   H1    S    
C18   C25   A    
C3    N2    A    
C7    O24   A    
O21   Zn1   S    
O13   S4    S    
C1    C19   S    
C23   H17   S    
H10   O19   S    
C19   C22   A    
O26   S1    D    
C4    C6    A    
C10   C14   S    
O9    S3    S    
C7    O22   A    
O5    S2    D    
C21   H4    S    
C8    O25   A    
O3    S1    S    
C2    N1    A    
C12   O12   A    
C24   S3    S    
O15   S5    D    
C26   C27   A    
C1    O1    A    
O8    S3    D    
C20   H3    S    
C12   O21   A    
C20   C22   A    
C13   C15   S    
H9    O16   S    
C14   C16   S    
C21   C24   A    
O2    S1    D    
O1    Zn1   S    
H18   O9    S    
C15   C17   S    
O12   Zn2   S    
O10   S4    D    
C8    C14   S    
C28   S5    S    
H2    O13   S    
O24   Zn2   S    
C3    C5    A    
C10   C13   S    
C11   C17   S    
C20   C27   A    
C25   C27   A    
C1    O20   A    
C4    N1    A    
O18   S6    D    
N1    Zn1   S    
C28   C30   A    
C9    C15   S    
C22   S4    S    
C29   S6    S    
O16   S5    S    
C2    H7    S    
O25   Zn1   S    
C3    H6    S    
C8    O23   A    
O14   S5    D    
O22   Zn1   S    
O17   S6    D    
C13   C16   S    
C12   C18   S    
C10   C17   S    
C25   H16   S    
O4    S2    D    
