data_mof_unit_29467.cif
_audit_creation_date              2012-12-11T14:50:41-0500
_audit_creation_method            fapswitch 2.2
_symmetry_space_group_name_H-M    P1
_symmetry_Int_Tables_number       1
_space_group_crystal_system       triclinic
_cell_length_a                    11.045412
_cell_length_b                    10.907602
_cell_length_c                    18.63851
_cell_angle_alpha                 89.938333
_cell_angle_beta                  89.425818
_cell_angle_gamma                 59.717811
_cell_volume                      1939.03053602

loop_
_atom_site_label
_atom_site_type_symbol
_atom_type_description
_atom_site_fract_x
_atom_site_fract_y
_atom_site_fract_z
_atom_type_partial_charge
C1    C     C_R   0.300061 0.617704 0.615185 0.515298
C2    C     C_3   0.686562 0.581672 0.800442 -0.248631
C3    C     C_3   0.722758 0.701025 0.805738 0.073940
C4    C     C_3   0.678688 0.662331 0.671834 -0.008914
C5    C     C_3   0.828755 0.635771 0.677977 -0.229386
C6    C     C_3   0.664278 0.558233 0.722480 -0.247676
C7    C     C_R   0.751435 0.223833 0.717140 -0.156555
C8    C     C_R   0.771865 0.203902 0.791168 0.186132
C9    C     C_R   0.668460 0.196548 0.833184 -0.017305
C10   C     C_R   0.537213 0.241206 0.802571 -0.182587
C11   C     C_R   0.520452 0.255004 0.729523 -0.169829
C12   C     C_R   0.655294 0.626306 0.598975 0.528814
C13   C     C_R   0.626058 0.248552 0.686124 -0.041241
C14   C     C_R   0.233441 0.533004 0.726225 -0.120567
C15   C     C_R   0.202668 0.544897 0.799484 -0.091601
C16   C     C_R   0.206655 0.650780 0.840322 0.041938
C17   C     C_R   0.263319 0.727795 0.809554 -0.079717
C18   C     C_R   0.293549 0.716167 0.736534 -0.131651
C19   C     C_R   0.277690 0.620208 0.693679 -0.020346
C20   C     C_R   0.816110 0.587675 0.291860 0.217637
C21   C     C_R   0.830338 0.617256 0.220975 -0.113586
C22   C     C_R   0.715121 0.715841 0.181838 -0.012849
C23   C     C_R   0.596523 0.284689 0.610547 0.527098
C24   C     C_R   0.586817 0.802103 0.216199 -0.156539
C25   C     C_R   0.571474 0.780835 0.288298 -0.186860
C26   C     C_R   0.681290 0.669370 0.325943 0.003837
C27   C     C_R   0.559289 0.138433 0.290305 -0.137632
C28   C     C_R   0.554040 0.136250 0.217000 -0.139085
C29   C     C_R   0.647478 0.159118 0.175738 0.020360
C30   C     C_R   0.740118 0.193175 0.208195 -0.108950
C31   C     C_R   0.741051 0.201353 0.281810 -0.066201
C32   C     C_R   0.649396 0.175868 0.323066 0.029856
C33   C     C_R   0.222448 0.761114 0.277637 0.198969
C34   C     C_R   0.286676 0.622294 0.392196 0.560362
C35   C     C_R   0.219999 0.755294 0.204270 -0.116535
C36   C     C_R   0.194802 0.654721 0.171307 -0.019877
C37   C     C_R   0.232966 0.528162 0.206415 -0.125341
C38   C     C_R   0.273109 0.515245 0.278127 -0.112769
C39   C     C_R   0.255838 0.635107 0.315922 0.005561
C40   C     C_R   0.698100 0.110667 0.898788 0.542001
C41   C     C_R   0.754425 0.712284 0.882452 0.600775
C42   C     C_R   0.123143 0.702639 0.906953 0.560811
C43   C     C_R   0.673482 0.108286 0.103343 0.536044
C44   C     C_R   0.734055 0.720252 0.104835 0.581438
C45   C     C_R   0.647071 0.625575 0.393987 0.541606
C46   C     C_R   0.105827 0.703012 0.108021 0.539731
C47   C     C_R   0.618306 0.227960 0.395434 0.541722
C48   C     C_3   0.592058 0.839975 0.776182 0.160229
C49   C     C_3   0.574514 0.818528 0.695009 -0.202705
C50   C     C_3   0.855153 0.660063 0.757159 0.094344
Cr1   Cr    Cr6+3 0.392930 0.397900 0.502230 1.062464
Cr2   Cr    Cr6+3 0.398240 0.708600 0.501260 1.067338
Cr3   Cr    Cr6+3 0.708800 0.393470 0.496460 1.093265
Cr4   Cr    Cr6+3 0.937620 0.938540 0.007640 1.088032
Cr5   Cr    Cr6+3 0.625150 0.937450 0.994520 0.989718
Cr6   Cr    Cr6+3 0.937990 0.625080 0.001190 1.009083
H1    H     H_    0.613717 0.927929 0.784208 0.119517
H2    H     H_    0.747869 0.450729 0.707549 0.166315
H3    H     H_    0.936565 0.553421 0.776145 0.162767
H4    H     H_    0.907309 0.524733 0.662261 0.144495
H5    H     H_    0.834318 0.219244 0.683681 0.173015
H6    H     H_    0.450653 0.250956 0.834208 0.136230
H7    H     H_    0.425087 0.268467 0.706866 0.136532
H8    H     H_    0.213815 0.461953 0.694470 0.126405
H9    H     H_    0.161872 0.481538 0.822170 0.118620
H10   H     H_    0.272320 0.806041 0.840633 0.188630
H11   H     H_    0.319988 0.788861 0.712585 0.142697
H12   H     H_    0.931056 0.557535 0.194210 0.162484
H13   H     H_    0.497014 0.881082 0.186921 0.132369
H14   H     H_    0.470422 0.845245 0.313056 0.191097
H15   H     H_    0.486503 0.119534 0.321066 0.168264
H16   H     H_    0.481600 0.109265 0.193029 0.138872
H17   H     H_    0.813983 0.209432 0.176844 0.162960
H18   H     H_    0.809113 0.233216 0.306018 0.227651
H19   H     H_    0.465489 0.848411 0.683906 0.152403
H20   H     H_    0.207682 0.846331 0.174886 0.165834
H21   H     H_    0.227869 0.443188 0.179360 0.153316
H22   H     H_    0.307271 0.415721 0.305456 0.201067
H23   H     H_    0.590728 0.892833 0.661205 0.078219
H24   H     H_    0.840562 0.703104 0.637881 0.130690
H25   H     H_    0.772843 0.481293 0.821919 0.176243
H26   H     H_    0.591641 0.606896 0.832921 0.173209
H27   H     H_    0.562653 0.562701 0.716073 0.124048
O1    O     O_R   0.507430 0.255570 0.581420 -0.516936
O2    O     O_R   0.524460 0.695920 0.424060 -0.513969
O3    O     O_R   0.736530 0.504260 0.414810 -0.433633
O4    O     O_R   0.691460 0.277160 0.422180 -0.477376
O5    O     O_3   0.499990 0.499990 0.499980 -0.334225
O6    O     O_R   0.089490 0.825610 0.930610 -0.470872
O7    O     O_R   0.818370 0.054540 0.929880 -0.412897
O8    O     O_R   0.605870 0.077310 0.915530 -0.555434
O9    O     O_R   0.646440 0.806700 0.917570 -0.471541
O10   O     O_R   0.837200 0.593290 0.915250 -0.519968
O11   O     O_R   0.065330 0.635370 0.931590 -0.520618
O12   O     O_R   0.280190 0.527390 0.578910 -0.504340
O13   O     O_R   0.068300 0.828790 0.091860 -0.514833
O14   O     O_R   0.798730 0.057480 0.079370 -0.492005
O15   O     O_R   0.584680 0.080480 0.076790 -0.546937
O16   O     O_R   0.626790 0.809640 0.067050 -0.506172
O17   O     O_R   0.816010 0.596460 0.076500 -0.514523
O18   O     O_R   0.045680 0.638310 0.081070 -0.532514
O19   O     O_3   0.833590 0.833690 0.001120 -0.294537
O20   O     O_R   0.260310 0.739740 0.584580 -0.515308
O21   O     O_R   0.532250 0.695150 0.573830 -0.524826
O22   O     O_R   0.744930 0.503430 0.576380 -0.513234
O23   O     O_R   0.699250 0.276390 0.571950 -0.513536
O24   O     O_R   0.499020 0.256400 0.419850 -0.523595
O25   O     O_R   0.272400 0.528160 0.429140 -0.453103
O26   O     O_R   0.251910 0.740570 0.423020 -0.413988
S1    S     S_3+6 0.931684 0.177069 0.825268 -0.060463
O27   O     O_2   0.033938 0.020998 0.824379 -0.290877
O28   O     O_2   0.987695 0.248859 0.777670 -0.377223
O29   O     O_3   0.913563 0.239258 0.909697 -0.508136
H28   H     H_    0.815151 0.317582 0.914032 0.323471
O30   O     O_3   0.468715 0.866711 0.814535 -0.590613
C51   C     C_3   0.364488 0.012732 0.817497 0.008660
H29   H     H_    0.277373 0.030220 0.781783 0.193106
H30   H     H_    0.400373 0.085484 0.798561 0.108508
C52   C     C_3   0.307642 0.051555 0.894774 -0.213528
H31   H     H_    0.239656 0.006078 0.906679 0.202466
H32   H     H_    0.395265 0.004596 0.933319 0.201784
C53   C     C_3   0.224039 0.211677 0.908087 -0.409008
H33   H     H_    0.152176 0.267707 0.863245 0.215943
H34   H     H_    0.295674 0.254065 0.914828 0.115984
H35   H     H_    0.161337 0.234199 0.958329 0.169778
S2    S     S_3+6 0.971175 0.446581 0.331970 0.038030
O31   O     O_2   0.008185 0.503531 0.396280 -0.224633
O32   O     O_2   0.953600 0.324430 0.355007 -0.216894
O33   O     O_3   0.106289 0.378345 0.273798 -0.568547
H36   H     H_    0.086540 0.321508 0.239496 0.338739
S3    S     S_3+6 0.141512 0.937145 0.314709 0.034474
O34   O     O_2   0.017258 0.961893 0.359557 -0.221963
O35   O     O_2   0.239448 0.958712 0.361323 -0.270425
O36   O     O_3   0.084271 0.059807 0.249362 -0.541266
H37   H     H_    0.168303 0.063045 0.233144 0.326867
O37   O     O_3   0.915203 0.747712 0.768046 -0.586183
C54   C     C_3   0.866294 0.868272 0.723320 0.011056
H38   H     H_    0.863261 0.951622 0.757089 0.194961
H39   H     H_    0.759476 0.910610 0.703951 0.106402
C55   C     C_3   0.967591 0.842126 0.660628 -0.259836
H40   H     H_    0.044575 0.872808 0.677515 0.198492
H41   H     H_    0.022985 0.728529 0.645770 0.199640
C56   C     C_3   0.896175 0.925583 0.593181 -0.426769
H42   H     H_    0.798384 0.924224 0.581740 0.150741
H43   H     H_    0.968468 0.878763 0.546424 0.207662
H44   H     H_    0.873365 0.035515 0.599471 0.183103

loop_
_geom_bond_atom_site_label_1
_geom_bond_atom_site_label_2
_ccdc_geom_bond_type
C56   H44   S    
Cr2   O20   S    
S2    O31   D    
C11   C13   A    
C6    H2    S    
C35   C36   A    
C43   O15   A    
S3    O36   S    
C7    C8    A    
C10   H6    S    
Cr6   O11   S    
C54   H39   S    
Cr5   O19   S    
C28   C29   A    
C17   H10   S    
C33   C39   A    
C50   H3    S    
Cr2   O2    S    
C37   C38   A    
C55   H41   S    
Cr6   O18   S    
Cr4   O7    S    
C11   H7    S    
C12   O22   A    
C44   O16   A    
C56   H42   S    
C15   H9    S    
C3    C48   S    
C51   H29   S    
C13   C23   S    
C18   C19   A    
S1    O27   D    
C7    H5    S    
Cr5   O8    S    
C26   C45   S    
Cr3   O23   S    
C41   O10   A    
C51   H30   S    
C8    C9    A    
C55   C56   S    
Cr4   O14   S    
C36   C46   S    
Cr3   O3    S    
C4    C12   S    
C9    C10   A    
C1    O20   A    
Cr4   O13   S    
C33   S3    S    
C21   C22   A    
C29   C43   S    
C2    C6    S    
C46   O18   A    
C3    C50   S    
C24   H13   S    
C52   H32   S    
Cr6   O10   S    
C54   C55   S    
C22   C44   S    
C35   H20   S    
C1    C19   S    
C23   O1    A    
C34   C39   S    
Cr2   O5    S    
C38   C39   A    
C55   H40   S    
Cr4   O6    S    
C4    C6    S    
C30   H17   S    
C16   C17   A    
C31   H18   S    
C38   H22   S    
S2    O33   S    
C18   H11   S    
C23   O23   A    
C37   H21   S    
C9    C40   S    
C49   H23   S    
C47   O4    A    
C45   O2    A    
C20   S2    S    
C29   C30   A    
C8    S1    S    
C31   C32   A    
C7    C13   A    
C1    O12   A    
C14   H8    S    
C49   H19   S    
C17   C18   A    
Cr3   O4    S    
C25   C26   A    
C24   C25   A    
C5    H24   S    
S1    O29   S    
C48   O30   S    
C48   C49   S    
Cr5   O9    S    
Cr1   O25   S    
C47   O24   A    
C21   H12   S    
C32   C47   S    
C22   C24   A    
C5    C50   S    
C2    H26   S    
C48   H1    S    
Cr6   O17   S    
C53   H34   S    
S3    O34   D    
C16   C42   S    
C27   H15   S    
O29   H28   S    
C52   C53   S    
C56   H43   S    
C36   C37   A    
S2    O32   D    
C6    H27   S    
C5    H4    S    
C27   C32   A    
C42   O11   A    
C14   C19   A    
Cr4   O19   S    
C43   O14   A    
O37   C54   S    
S3    O35   D    
Cr1   O5    S    
C52   H31   S    
C12   O21   A    
O36   H37   S    
C54   H38   S    
C51   C52   S    
C4    C49   S    
C42   O6    A    
C34   O25   A    
C53   H35   S    
C2    C3    S    
O33   H36   S    
Cr6   O19   S    
C50   O37   S    
C28   H16   S    
C44   O17   A    
O30   C51   S    
C30   C31   A    
C20   C26   A    
Cr2   O26   S    
Cr5   O15   S    
C33   C35   A    
Cr2   O21   S    
C45   O3    A    
Cr3   O5    S    
C40   O8    A    
S1    O28   D    
C3    C41   S    
C10   C11   A    
Cr3   O22   S    
C4    C5    S    
C41   O9    A    
C46   O13   A    
C20   C21   A    
Cr1   O24   S    
Cr5   O16   S    
C27   C28   A    
C34   O26   A    
C14   C15   A    
C2    H25   S    
C25   H14   S    
C40   O7    A    
C53   H33   S    
Cr1   O1    S    
C15   C16   A    
Cr1   O12   S    
