data_mof_unit_42015.cif
_audit_creation_date              2012-12-10T19:01:24-0500
_audit_creation_method            fapswitch 2.2
_symmetry_space_group_name_H-M    P1
_symmetry_Int_Tables_number       1
_space_group_crystal_system       triclinic
_cell_length_a                    9.556775
_cell_length_b                    10.844237
_cell_length_c                    15.451319
_cell_angle_alpha                 89.778832
_cell_angle_beta                  74.323377
_cell_angle_gamma                 90.349257
_cell_volume                      1541.69251385

loop_
_atom_site_label
_atom_site_type_symbol
_atom_type_description
_atom_site_fract_x
_atom_site_fract_y
_atom_site_fract_z
_atom_type_partial_charge
C1    C     C_R   0.998564 0.262539 0.502375 0.833808
C2    C     C_R   0.668613 0.459933 0.904370 0.044960
C3    C     C_R   0.764735 0.409737 0.950745 0.027899
C4    C     C_R   0.517473 0.469476 0.948629 -0.028458
C5    C     C_R   0.469950 0.450721 0.043410 0.011195
C6    C     C_R   0.569988 0.403888 0.087944 -0.194732
C7    C     C_R   0.713383 0.380929 0.041824 -0.171445
C8    C     C_R   0.411177 0.491550 0.901487 0.555987
C9    C     C_R   0.266701 0.509771 0.947431 -0.201478
C10   C     C_R   0.221569 0.504031 0.040762 0.079080
C11   C     C_R   0.322632 0.475413 0.090008 0.071828
C12   C     C_R   0.918183 0.497144 0.672140 0.831979
C13   C     C_R   0.075119 0.524576 0.085354 -0.085396
C14   C     C_R   0.027966 0.519685 0.178711 -0.188547
C15   C     C_R   0.273197 0.475744 0.184434 -0.201878
C16   C     C_R   0.119231 0.065068 0.511684 0.019418
C17   C     C_R   0.993525 0.129835 0.512548 -0.142949
C18   C     C_R   0.861871 0.064541 0.526686 -0.263216
C19   C     C_R   0.861511 0.935824 0.526524 0.591535
C20   C     C_R   0.994022 0.871275 0.511626 -0.178602
C21   C     C_R   0.119802 0.938133 0.510949 -0.049673
C22   C     C_3   0.268742 0.935818 0.447391 0.469315
C23   C     C_R   0.999125 0.737851 0.502005 0.876517
C24   C     C_3   0.267731 0.075567 0.448825 -0.435113
C25   C     C_R   0.607587 0.524865 0.423015 0.235682
C26   C     C_R   0.541685 0.462533 0.573457 -0.017641
C27   C     C_R   0.393056 0.463133 0.573616 -0.041369
C28   C     C_R   0.460427 0.523450 0.422727 0.214214
C29   C     C_3   0.478828 0.637836 0.367232 -0.421312
C30   C     C_3   0.636685 0.640891 0.368925 -0.478496
C31   C     C_R   0.081942 0.499502 0.327688 0.811396
C32   C     C_R   0.872348 0.477891 0.769756 -0.168191
C33   C     C_R   0.127298 0.497846 0.228875 -0.045143
C34   C     C_R   0.911313 0.389144 0.905127 0.568226
C35   C     C_R   0.964194 0.421845 0.814775 -0.261150
C36   C     C_R   0.728097 0.501653 0.815829 -0.182586
Cu1   Cu    Cu3+1 0.140670 0.499980 0.500000 0.962582
Cu2   Cu    Cu3+1 0.859330 0.500020 0.500000 0.987855
H1    H     H_    0.785048 0.342585 0.078515 0.196411
H2    H     H_    0.996969 0.544937 0.047968 0.145670
H3    H     H_    0.464817 0.620903 0.299184 0.201825
H4    H     H_    0.712720 0.627277 0.301534 0.184532
H5    H     H_    0.663643 0.720039 0.407177 0.262348
H6    H     H_    0.914567 0.535258 0.211437 0.139656
H7    H     H_    0.665115 0.555434 0.781400 0.229682
H8    H     H_    0.539368 0.378407 0.158042 0.139826
N1    N     N_R   0.648210 0.500930 0.499430 -0.189771
N2    N     N_R   0.352300 0.500890 0.499430 -0.196288
O1    O     O_R   0.118810 0.319640 0.500000 -0.580839
O2    O     O_R   0.881230 0.319680 0.499990 -0.591490
O3    O     O_R   0.055580 0.499970 0.629840 -0.594163
O4    O     O_R   0.818000 0.500010 0.629830 -0.581072
O5    O     O_R   0.118770 0.680320 0.500010 -0.575520
O6    O     O_R   0.881190 0.680360 0.500000 -0.523448
O7    O     O_R   0.182000 0.499990 0.370170 -0.583844
O8    O     O_R   0.944420 0.500030 0.370160 -0.588278
H9    H     H_    0.760299 0.112401 0.533613 0.186965
F1    F     F_    0.732790 0.876138 0.536392 -0.666121
H10   H     H_    0.351348 0.895100 0.477385 0.088434
F2    F     F_    0.268217 0.889634 0.363986 -0.656123
H11   H     H_    0.347182 0.115708 0.481967 0.161065
H12   H     H_    0.267808 0.118667 0.383352 0.220177
H13   H     H_    0.569777 0.432847 0.633361 0.195505
H14   H     H_    0.311416 0.434814 0.633682 0.164142
H15   H     H_    0.347100 0.462056 0.225129 0.137550
H16   H     H_    0.414536 0.714665 0.404061 0.249286
H17   H     H_    0.189061 0.527599 0.909195 0.184726
F3    F     F_    0.001929 0.333080 0.946981 -0.678907
H18   H     H_    0.075682 0.400783 0.779657 0.188781
F4    F     F_    0.440642 0.483623 0.810810 -0.706816

loop_
_geom_bond_atom_site_label_1
_geom_bond_atom_site_label_2
_ccdc_geom_bond_type
C27   N2    A    
C8    C9    A    
C2    C4    A    
C26   H13   S    
C31   C33   S    
C5    C11   A    
C16   C21   A    
Cu2   O2    S    
C1    O2    A    
C31   O8    A    
C29   C30   S    
Cu1   O1    S    
C9    C10   A    
C25   N1    A    
C18   H9    S    
C1    C17   S    
C19   C20   A    
Cu2   O6    S    
C20   C23   S    
C4    C8    A    
C8    F4    S    
Cu1   O5    S    
C14   C33   A    
C9    H17   S    
C2    C3    A    
C26   C27   A    
C36   H7    S    
C16   C24   S    
C21   C22   S    
C12   C32   S    
C25   C28   A    
Cu2   N1    S    
C24   H11   S    
C11   C15   A    
C26   N1    A    
C30   H4    S    
C31   O7    A    
C32   C36   A    
C14   H6    S    
C28   C29   S    
C12   O4    A    
Cu1   Cu2   S    
C23   O5    A    
C6    C7    A    
C3    C7    A    
C19   F1    S    
C22   F2    S    
C5    C6    A    
Cu1   O3    S    
C22   C24   S    
C30   H5    S    
Cu2   O4    S    
C10   C11   A    
C2    C36   A    
C29   H16   S    
Cu1   O7    S    
C32   C35   A    
C22   H10   S    
C12   O3    A    
Cu2   O8    S    
C20   C21   A    
C35   H18   S    
C23   O6    A    
C17   C18   A    
C34   C35   A    
C27   H14   S    
C34   F3    S    
C25   C30   S    
C7    H1    S    
C18   C19   A    
C13   H2    S    
C24   H12   S    
C6    H8    S    
C3    C34   A    
C29   H3    S    
C13   C14   A    
C1    O1    A    
C15   C33   A    
C28   N2    A    
C16   C17   A    
C4    C5    A    
Cu1   N2    S    
C10   C13   A    
C15   H15   S    
