data_mof_unit_66240.cif
_audit_creation_date              2012-12-10T17:08:46-0500
_audit_creation_method            fapswitch 2.2
_symmetry_space_group_name_H-M    P1
_symmetry_Int_Tables_number       1
_space_group_crystal_system       triclinic
_cell_length_a                    37.280619
_cell_length_b                    30.319136
_cell_length_c                    21.838031
_cell_angle_alpha                 90.010762
_cell_angle_beta                  54.422689
_cell_angle_gamma                 90.00862
_cell_volume                      20076.1691954

loop_
_atom_site_label
_atom_site_type_symbol
_atom_type_description
_atom_site_fract_x
_atom_site_fract_y
_atom_site_fract_z
_atom_type_partial_charge
C1    C     C_R   0.914000 0.500015 0.586607 0.881591
C2    C     C_R   0.086000 0.500018 0.413405 0.881068
C3    C     C_R   0.414018 0.000001 0.586601 0.879140
C4    C     C_R   0.586000 0.000017 0.413371 0.880818
C5    C     C_3   0.985669 0.452027 0.225907 0.108054
C6    C     C_3   0.014046 0.452021 0.774393 0.107750
C7    C     C_3   0.485620 0.952026 0.225966 0.107850
C8    C     C_3   0.514980 0.952147 0.773392 0.108074
C9    C     C_R   0.655168 0.463594 0.871155 0.308817
C10   C     C_R   0.344829 0.463602 0.128869 0.308738
C11   C     C_R   0.155451 0.960325 0.867895 0.351956
C12   C     C_R   0.844822 0.963552 0.128925 0.309316
C13   C     C_R   0.632846 0.498920 0.866717 -0.140075
C14   C     C_R   0.367157 0.498946 0.133267 -0.140084
C15   C     C_R   0.132789 0.997312 0.867078 -0.199935
C16   C     C_R   0.867149 0.998909 0.133295 -0.141606
C17   C     C_R   0.655270 0.534290 0.818333 0.294853
C18   C     C_R   0.344741 0.534348 0.181580 0.294922
C19   C     C_R   0.155281 0.033676 0.821341 0.331329
C20   C     C_R   0.844729 0.034318 0.181595 0.294343
C21   C     C_R   0.701744 0.533076 0.768001 -0.117968
C22   C     C_R   0.298270 0.533132 0.231937 -0.117931
C23   C     C_R   0.201625 0.032481 0.770183 -0.123690
C24   C     C_R   0.798247 0.033147 0.231853 -0.117255
C25   C     C_R   0.725026 0.497537 0.772310 -0.109184
C26   C     C_R   0.274978 0.497579 0.227665 -0.109266
C27   C     C_R   0.225103 0.996820 0.773340 -0.131948
C28   C     C_R   0.774967 0.997542 0.227674 -0.108890
C29   C     C_R   0.701758 0.461662 0.822022 0.018269
C30   C     C_R   0.298238 0.461689 0.177969 0.018414
C31   C     C_R   0.202088 0.960440 0.821886 0.056766
C32   C     C_R   0.798235 0.961597 0.178135 0.017706
C33   C     C_R   0.725541 0.566003 0.712464 0.303972
C34   C     C_R   0.274488 0.566068 0.287470 0.304155
C35   C     C_R   0.225071 0.065888 0.715448 0.302732
C36   C     C_R   0.774434 0.066184 0.287183 0.303934
C37   C     C_R   0.771250 0.569786 0.675512 0.409338
C38   C     C_R   0.228773 0.569833 0.324490 0.409573
C39   C     C_R   0.270824 0.069742 0.677857 0.412079
C40   C     C_R   0.728736 0.069968 0.324002 0.408973
C41   C     C_R   0.794453 0.536162 0.684103 -0.047186
C42   C     C_R   0.205554 0.536197 0.315931 -0.047208
C43   C     C_R   0.294319 0.036028 0.685539 -0.043480
C44   C     C_R   0.705543 0.036239 0.315588 -0.047012
C45   C     C_R   0.998060 0.499937 0.381872 0.875313
C46   C     C_R   0.001925 0.499946 0.618148 0.875919
C47   C     C_R   0.498063 0.999935 0.381871 0.875498
C48   C     C_R   0.501996 0.999941 0.618068 0.873740
C49   C     C_R   0.771567 0.497956 0.726600 -0.035232
C50   C     C_R   0.228437 0.497996 0.273398 -0.035193
C51   C     C_R   0.271647 0.997686 0.727831 -0.033842
C52   C     C_R   0.728428 0.997964 0.273346 -0.035273
C53   C     C_R   0.795174 0.460396 0.723329 -0.013685
C54   C     C_R   0.204826 0.460429 0.276678 -0.013536
C55   C     C_R   0.295495 0.960309 0.724320 -0.009896
C56   C     C_R   0.704820 0.960349 0.276802 -0.013746
C57   C     C_R   0.771736 0.423670 0.770995 -0.106125
C58   C     C_R   0.228252 0.423710 0.228979 -0.106161
C59   C     C_R   0.272465 0.923998 0.773276 -0.136893
C60   C     C_R   0.728254 0.923549 0.229339 -0.105453
C61   C     C_R   0.725239 0.424786 0.821211 0.342271
C62   C     C_R   0.274748 0.424820 0.178758 0.342482
C63   C     C_R   0.226056 0.925102 0.824232 0.377467
C64   C     C_R   0.774757 0.924631 0.179189 0.341722
C65   C     C_R   0.840378 0.539023 0.648822 -0.126517
C66   C     C_R   0.159619 0.539041 0.351272 -0.126625
C67   C     C_R   0.340315 0.038942 0.649639 -0.127402
C68   C     C_R   0.659626 0.039072 0.350801 -0.125976
C69   C     C_R   0.864772 0.499971 0.636426 -0.227440
C70   C     C_R   0.135230 0.499984 0.363623 -0.228029
C71   C     C_R   0.364831 0.999884 0.636628 -0.229717
C72   C     C_R   0.635226 0.999975 0.363499 -0.226966
C73   C     C_R   0.841553 0.460147 0.670617 0.418492
C74   C     C_R   0.158454 0.460165 0.329432 0.418377
C75   C     C_R   0.341731 0.960013 0.670810 0.424104
C76   C     C_R   0.658443 0.960117 0.329528 0.418505
C77   C     C_R   0.999987 0.585778 0.000176 0.715892
C78   C     C_R   0.499999 0.085786 0.999995 0.716131
C79   C     C_R   0.000202 0.499887 0.119608 0.804263
C80   C     C_R   0.999802 0.499967 0.880391 0.804468
C81   C     C_R   0.500202 0.999874 0.119610 0.804669
C82   C     C_R   0.499803 0.999824 0.880385 0.805892
C83   C     C_R   0.999994 0.414276 0.000007 0.876433
C84   C     C_R   0.500005 0.914273 0.999978 0.876727
C85   C     C_3   0.970506 0.543088 0.314733 -0.195357
C86   C     C_3   0.029742 0.542974 0.685024 -0.195244
C87   C     C_3   0.470549 0.043104 0.314696 -0.194918
C88   C     C_3   0.529013 0.043424 0.685806 -0.194522
C89   C     C_R   0.500002 0.414976 0.999993 0.770130
C90   C     C_R   0.000668 0.914945 0.999272 0.734184
C91   C     C_R   0.585031 0.499605 0.914967 0.891324
C92   C     C_R   0.414970 0.499616 0.085030 0.891366
C93   C     C_R   0.084994 0.999201 0.915037 0.814014
C94   C     C_R   0.914967 0.999595 0.085035 0.896337
C95   C     C_R   0.500001 0.585131 0.000002 0.775871
C96   C     C_R   0.000046 0.085135 0.999968 0.783460
C97   C     C_R   0.536334 0.344528 0.939248 0.375333
C98   C     C_R   0.463663 0.344529 0.060702 0.375319
C99   C     C_R   0.036738 0.843943 0.938426 0.366987
C100  C     C_R   0.964361 0.844681 0.060556 0.384588
C101  C     C_R   0.500001 0.367227 0.999982 -0.218603
C102  C     C_R   0.000605 0.867142 0.999095 -0.217846
C103  C     C_R   0.461627 0.298205 0.057273 -0.017750
C104  C     C_R   0.538361 0.298202 0.942648 -0.017761
C105  C     C_R   0.962182 0.798315 0.058075 -0.021048
C106  C     C_R   0.039012 0.797868 0.944186 -0.007831
C107  C     C_R   0.499993 0.274914 0.999959 -0.078409
C108  C     C_R   0.000525 0.774808 0.001433 -0.080037
C109  C     C_R   0.422098 0.274535 0.108696 -0.099782
C110  C     C_R   0.577882 0.274527 0.891199 -0.099718
C111  C     C_R   0.922586 0.774823 0.109739 -0.100050
C112  C     C_R   0.078812 0.774200 0.894455 -0.097367
C113  C     C_R   0.922135 0.728465 0.106495 0.343069
C114  C     C_R   0.078798 0.727859 0.897948 0.338761
C115  C     C_R   0.421888 0.228194 0.105289 0.341579
C116  C     C_R   0.578084 0.228186 0.894597 0.341516
C117  C     C_R   0.961890 0.704972 0.057212 0.039054
C118  C     C_R   0.038681 0.704796 0.946099 0.037378
C119  C     C_R   0.461748 0.204940 0.055962 0.038509
C120  C     C_R   0.538226 0.204935 0.943950 0.038599
C121  C     C_3   0.967455 0.537891 0.244755 0.552107
C122  C     C_3   0.032791 0.537774 0.755007 0.551767
C123  C     C_3   0.467497 0.037909 0.244722 0.551722
C124  C     C_3   0.532121 0.038232 0.755726 0.551499
C125  C     C_R   0.000372 0.728194 0.001700 -0.041071
C126  C     C_R   0.499989 0.228273 0.999958 -0.041338
C127  C     C_R   0.963575 0.658506 0.061424 -0.023879
C128  C     C_R   0.036556 0.658558 0.940670 -0.020609
C129  C     C_R   0.463716 0.158574 0.060723 -0.021985
C130  C     C_R   0.536255 0.158565 0.939207 -0.022136
C131  C     C_R   0.999979 0.634784 0.000718 -0.253061
C132  C     C_R   0.499992 0.134808 0.999978 -0.253463
C133  C     C_R   0.535479 0.656201 0.991929 0.368130
C134  C     C_R   0.464546 0.656178 0.007941 0.367961
C135  C     C_R   0.035466 0.156233 0.992216 0.368781
C136  C     C_R   0.964578 0.156187 0.008040 0.367882
C137  C     C_R   0.500000 0.633275 0.999992 -0.202305
C138  C     C_R   0.000049 0.133284 0.000036 -0.206568
C139  C     C_R   0.462960 0.702685 0.012969 -0.050413
C140  C     C_R   0.537116 0.702695 0.986671 -0.050344
C141  C     C_R   0.962917 0.202681 0.013313 -0.049741
C142  C     C_R   0.037069 0.202728 0.987013 -0.049969
C143  C     C_R   0.500043 0.725868 0.999797 -0.075308
C144  C     C_R   0.999987 0.225881 0.000150 -0.075234
C145  C     C_R   0.424969 0.726853 0.032057 -0.040169
C146  C     C_R   0.575155 0.726860 0.967375 -0.039875
C147  C     C_R   0.924859 0.226817 0.032655 -0.039855
C148  C     C_R   0.075077 0.226919 0.967811 -0.039893
C149  C     C_R   0.925464 0.272986 0.032176 0.348275
C150  C     C_R   0.074454 0.273077 0.968228 0.348020
C151  C     C_R   0.425637 0.773024 0.031367 0.348464
C152  C     C_R   0.574509 0.773028 0.967966 0.348485
C153  C     C_R   0.964462 0.295915 0.009458 -0.028852
C154  C     C_R   0.035459 0.295961 0.990868 -0.028554
C155  C     C_R   0.464612 0.795929 0.008851 -0.028452
C156  C     C_R   0.535511 0.795926 0.990619 -0.028607
C157  C     C_3   0.048641 0.504297 0.238878 0.140309
C158  C     C_3   0.951383 0.504649 0.761118 0.140559
C159  C     C_3   0.548650 0.004230 0.238879 0.140301
C160  C     C_3   0.451378 0.003615 0.761097 0.138281
C161  C     C_R   0.999970 0.272505 0.000157 0.027605
C162  C     C_R   0.500053 0.772492 0.999758 0.027627
C163  C     C_R   0.968969 0.341723 0.994841 -0.120469
C164  C     C_R   0.030937 0.341770 0.005443 -0.121128
C165  C     C_R   0.469163 0.841744 0.994260 -0.121950
C166  C     C_R   0.530960 0.841729 0.005307 -0.120695
C167  C     C_R   0.999970 0.365630 0.000084 -0.177504
C168  C     C_R   0.500031 0.865621 0.999876 -0.176666
C169  C     C_3   0.974598 0.455417 0.308027 0.159207
C170  C     C_3   0.025125 0.455323 0.692264 0.159261
C171  C     C_3   0.474557 0.955430 0.308082 0.159237
C172  C     C_3   0.526047 0.955715 0.691280 0.159182
C173  C     C_3   0.998063 0.500194 0.312393 -0.356864
C174  C     C_3   0.001929 0.500231 0.687624 -0.356579
C175  C     C_3   0.498067 0.000184 0.312395 -0.356872
C176  C     C_3   0.502005 0.000188 0.687537 -0.356963
C177  C     C_3   0.000143 0.499989 0.188633 -0.161025
C178  C     C_3   0.999869 0.500070 0.811365 -0.160885
C179  C     C_3   0.500144 0.999971 0.188639 -0.160708
C180  C     C_3   0.499892 0.999927 0.811330 -0.160409
C181  C     C_3   0.048402 0.510463 0.166589 0.704388
C182  C     C_3   0.951671 0.510827 0.833360 0.704245
C183  C     C_3   0.548415 0.010393 0.166583 0.704553
C184  C     C_3   0.451524 0.009817 0.833472 0.704516
Cu1   Cu    Cu3+1 0.000000 0.544430 0.500000 1.118228
Cu2   Cu    Cu3+1 0.500000 0.044430 0.500000 1.118823
Cu3   Cu    Cu3+1 0.000000 0.455520 0.500000 1.143031
Cu4   Cu    Cu3+1 0.500000 0.955520 0.500000 1.141868
Cu5   Cu    Cu3+1 0.955510 0.499950 0.044460 1.132235
Cu6   Cu    Cu3+1 0.044490 0.499950 0.955540 1.132343
Cu7   Cu    Cu3+1 0.455510 0.999950 0.044460 1.132470
Cu8   Cu    Cu3+1 0.544490 0.999950 0.955540 1.132553
Cu9   Cu    Cu3+1 0.499930 0.499950 0.937580 1.081582
Cu10  Cu    Cu3+1 0.500070 0.499950 0.062420 1.081420
Cu11  Cu    Cu3+1 0.999930 0.999950 0.937580 1.072841
Cu12  Cu    Cu3+1 0.000070 0.999950 0.062420 1.083003
O1    O     O_R   0.935120 0.537520 0.564840 -0.582362
O2    O     O_R   0.064880 0.537520 0.435160 -0.582450
O3    O     O_R   0.435120 0.037520 0.564840 -0.581754
O4    O     O_R   0.564880 0.037520 0.435160 -0.582028
O5    O     O_R   0.564810 0.499970 0.882380 -0.558143
O6    O     O_R   0.435190 0.499970 0.117620 -0.558252
O7    O     O_R   0.064810 0.999970 0.882380 -0.552932
O8    O     O_R   0.935190 0.999970 0.117620 -0.554727
O9    O     O_R   0.564880 0.499960 0.987830 -0.579504
O10   O     O_R   0.435120 0.499960 0.012170 -0.579521
O11   O     O_R   0.064880 0.999960 0.987830 -0.584004
O12   O     O_R   0.935120 0.999960 0.012170 -0.577108
O13   O     O_R   0.499950 0.564810 0.947310 -0.557363
O14   O     O_R   0.500050 0.564810 0.052690 -0.557558
O15   O     O_R   0.999950 0.064810 0.947310 -0.554736
O16   O     O_R   0.000050 0.064810 0.052690 -0.553888
O17   O     O_R   0.935080 0.462440 0.564870 -0.525939
O18   O     O_R   0.064920 0.462440 0.435130 -0.525675
O19   O     O_R   0.435080 0.962440 0.564870 -0.527323
O20   O     O_R   0.564920 0.962440 0.435130 -0.525936
O21   O     O_R   0.999990 0.537520 0.408860 -0.572116
O22   O     O_R   0.000010 0.537520 0.591140 -0.572178
O23   O     O_R   0.499990 0.037520 0.408860 -0.572119
O24   O     O_R   0.500010 0.037520 0.591140 -0.571421
O25   O     O_R   0.999950 0.462430 0.408890 -0.548959
O26   O     O_R   0.000050 0.462430 0.591110 -0.548831
O27   O     O_R   0.499950 0.962430 0.408890 -0.548833
O28   O     O_R   0.500050 0.962430 0.591110 -0.549516
O29   O     O_R   0.962420 0.564820 0.037570 -0.564205
O30   O     O_R   0.037580 0.564820 0.962430 -0.563929
O31   O     O_R   0.462420 0.064820 0.037570 -0.562948
O32   O     O_R   0.537580 0.064820 0.962430 -0.562945
O33   O     O_R   0.962440 0.499950 0.128690 -0.564199
O34   O     O_R   0.037560 0.499950 0.871310 -0.563869
O35   O     O_R   0.462440 0.999950 0.128690 -0.563597
O36   O     O_R   0.537560 0.999950 0.871310 -0.563532
O37   O     O_R   0.037530 0.500000 0.053640 -0.533846
O38   O     O_R   0.962470 0.500000 0.946360 -0.533095
O39   O     O_R   0.537530 0.000000 0.053640 -0.534233
O40   O     O_R   0.462470 0.000000 0.946360 -0.534988
O41   O     O_R   0.962440 0.435080 0.037530 -0.544370
O42   O     O_R   0.037560 0.435080 0.962470 -0.544498
O43   O     O_R   0.462440 0.935080 0.037530 -0.544719
O44   O     O_R   0.537560 0.935080 0.962470 -0.544612
O45   O     O_R   0.499930 0.435080 0.947280 -0.562259
O46   O     O_R   0.500070 0.435080 0.052720 -0.562226
O47   O     O_R   0.999930 0.935080 0.947280 -0.569670
O48   O     O_R   0.000070 0.935080 0.052720 -0.565400
C185  C     C_2   0.991172 0.588526 0.313548 0.991329
O49   O     O_2   0.977835 0.607680 0.372696 -0.565065
O50   O     O_R   0.023426 0.609853 0.246656 -0.581653
H1    H     H_    0.033031 0.639118 0.255231 0.356185
C186  C     C_2   0.009330 0.588518 0.685970 0.990731
O51   O     O_2   0.022698 0.607539 0.626711 -0.565528
O52   O     O_R   0.977277 0.610080 0.752749 -0.581709
H2    H     H_    0.967823 0.639386 0.744017 0.355816
C187  C     C_2   0.491258 0.088525 0.313464 0.990638
O53   O     O_2   0.477921 0.107707 0.372590 -0.565487
O54   O     O_R   0.523554 0.109804 0.246550 -0.581662
H3    H     H_    0.533184 0.139063 0.255093 0.355860
C188  C     C_2   0.507780 0.088606 0.687601 0.990479
O55   O     O_2   0.520919 0.107972 0.628719 -0.564945
O56   O     O_R   0.475229 0.109494 0.754768 -0.581706
H4    H     H_    0.465268 0.138646 0.746585 0.356057
O57   O     O_3   0.022528 0.424294 0.180399 -0.649899
H5    H     H_    0.014006 0.393070 0.195374 0.370549
O58   O     O_3   0.977016 0.424513 0.820092 -0.649420
H6    H     H_    0.985340 0.393238 0.805296 0.370496
O59   O     O_3   0.522450 0.924251 0.180484 -0.649794
H7    H     H_    0.513894 0.893033 0.195470 0.370490
O60   O     O_3   0.478469 0.923949 0.818492 -0.650809
H8    H     H_    0.487375 0.892826 0.803153 0.370703
C189  C     C_2   0.077624 0.465622 0.233189 0.925787
O61   O     O_2   0.085761 0.463067 0.279739 -0.649543
O62   O     O_R   0.095976 0.433754 0.176184 -0.644189
H9    H     H_    0.114274 0.411020 0.180642 0.370095
C190  C     C_2   0.922171 0.466140 0.767024 0.924929
O63   O     O_2   0.914066 0.463593 0.720429 -0.650301
O64   O     O_R   0.903590 0.434411 0.824254 -0.643817
H10   H     H_    0.885162 0.411780 0.819915 0.370452
C191  C     C_2   0.577597 0.965527 0.233236 0.925650
O65   O     O_2   0.585730 0.962966 0.279792 -0.649510
O66   O     O_R   0.595927 0.933642 0.176258 -0.644242
H11   H     H_    0.614223 0.910906 0.180724 0.369955
C192  C     C_2   0.422914 0.964526 0.766365 0.929743
O67   O     O_2   0.414587 0.961890 0.720061 -0.645919
O68   O     O_R   0.405253 0.932336 0.822771 -0.644066
H12   H     H_    0.387458 0.909166 0.817921 0.370158
O69   O     O_3   0.080300 0.483272 0.106662 -0.614675
H13   H     H_    0.109848 0.495783 0.086697 0.356269
O70   O     O_3   0.919599 0.483836 0.893441 -0.614653
H14   H     H_    0.890133 0.496541 0.913355 0.356313
O71   O     O_3   0.580281 0.983163 0.106688 -0.614783
H15   H     H_    0.609844 0.995639 0.086706 0.356137
O72   O     O_3   0.419957 0.982258 0.893101 -0.614804
H16   H     H_    0.390257 0.994350 0.913099 0.356642
O73   O     O_3   0.630411 0.431641 0.924508 -0.662404
H17   H     H_    0.639509 0.432091 0.959101 0.368517
O74   O     O_3   0.369581 0.431608 0.075593 -0.662389
H18   H     H_    0.360563 0.432079 0.040889 0.368557
O75   O     O_3   0.133176 0.923789 0.912485 -0.613737
H19   H     H_    0.101105 0.926035 0.937519 0.317239
O76   O     O_3   0.869572 0.931621 0.075503 -0.662587
H20   H     H_    0.860230 0.931857 0.041249 0.368622
O77   O     O_3   0.630743 0.570782 0.826128 -0.717135
H21   H     H_    0.647590 0.597395 0.821298 0.379941
O78   O     O_3   0.369269 0.570865 0.173708 -0.717408
H22   H     H_    0.352416 0.597464 0.178507 0.379910
O79   O     O_3   0.130875 0.070837 0.831634 -0.713343
H23   H     H_    0.148220 0.096977 0.826920 0.377923
O80   O     O_3   0.869271 0.070811 0.173757 -0.717642
H24   H     H_    0.852486 0.097416 0.178350 0.379995
O81   O     O_3   0.705805 0.593128 0.689269 -0.700881
H25   H     H_    0.682711 0.575835 0.690842 0.378995
O82   O     O_3   0.294250 0.593220 0.310600 -0.700747
H26   H     H_    0.317355 0.575943 0.309003 0.378999
O83   O     O_3   0.204887 0.093444 0.693619 -0.701114
H27   H     H_    0.181359 0.076494 0.696011 0.377768
O84   O     O_3   0.794137 0.093431 0.310304 -0.700696
H28   H     H_    0.817175 0.076181 0.308958 0.379258
O85   O     O_3   0.794443 0.603331 0.623982 -0.675441
H29   H     H_    0.774120 0.627214 0.631522 0.390817
O86   O     O_3   0.205596 0.603377 0.376045 -0.675361
H30   H     H_    0.225922 0.627273 0.368465 0.390824
O87   O     O_3   0.293727 0.103550 0.626757 -0.676553
H31   H     H_    0.273254 0.127420 0.634885 0.390940
O88   O     O_3   0.705532 0.103630 0.375267 -0.675700
H32   H     H_    0.725860 0.127542 0.367619 0.390787
C193  C     C_2   0.861599 0.583124 0.630007 1.000289
O89   O     O_2   0.856923 0.606173 0.680116 -0.557076
O90   O     O_R   0.885807 0.598605 0.555869 -0.671333
H33   H     H_    0.898363 0.629160 0.550560 0.359992
C194  C     C_2   0.138361 0.583125 0.370338 1.000876
O91   O     O_2   0.143006 0.606279 0.320368 -0.556569
O92   O     O_R   0.114158 0.598470 0.444561 -0.671176
H34   H     H_    0.101575 0.629029 0.450054 0.360113
C195  C     C_2   0.361525 0.083050 0.630666 1.001253
O93   O     O_2   0.357087 0.106071 0.680613 -0.555826
O94   O     O_R   0.385446 0.098570 0.556572 -0.672280
H35   H     H_    0.398030 0.129125 0.551136 0.359975
C196  C     C_2   0.638452 0.083179 0.369016 0.999468
O95   O     O_2   0.643101 0.105882 0.318605 -0.557222
O96   O     O_R   0.614305 0.099056 0.442919 -0.671901
H36   H     H_    0.601771 0.129566 0.447803 0.359442
O97   O     O_3   0.863510 0.420448 0.649069 -0.667409
H37   H     H_    0.880977 0.419694 0.669973 0.381248
O98   O     O_3   0.136520 0.420450 0.351085 -0.667270
H38   H     H_    0.119047 0.419613 0.330198 0.381330
O99   O     O_3   0.363512 0.920207 0.648401 -0.667687
H39   H     H_    0.381510 0.919110 0.668275 0.382282
O100  O     O_3   0.636487 0.920415 0.351316 -0.667350
H40   H     H_    0.619055 0.919516 0.330353 0.381118
C197  C     C_2   0.794956 0.384405 0.772318 0.920117
O101  O     O_2   0.791335 0.348869 0.749906 -0.514339
O102  O     O_R   0.819905 0.388031 0.801100 -0.765224
H41   H     H_    0.833990 0.359034 0.799420 0.351002
C198  C     C_2   0.205015 0.384464 0.227611 0.919887
O103  O     O_2   0.208661 0.348902 0.249903 -0.514101
O104  O     O_R   0.180020 0.388142 0.198924 -0.764885
H42   H     H_    0.165930 0.359154 0.200557 0.350889
C199  C     C_2   0.295982 0.885277 0.775438 0.922199
O105  O     O_2   0.291030 0.848952 0.757007 -0.516362
O106  O     O_R   0.322471 0.890262 0.801008 -0.762451
H43   H     H_    0.336421 0.861452 0.800558 0.349028
C200  C     C_2   0.705015 0.884257 0.228125 0.919471
O107  O     O_2   0.708583 0.848765 0.250700 -0.514270
O108  O     O_R   0.680090 0.887813 0.199287 -0.764832
H44   H     H_    0.665979 0.858807 0.201064 0.350841
C201  C     C_2   0.923202 0.546724 0.388790 1.052002
O109  O     O_2   0.897888 0.574690 0.393831 -0.534847
O110  O     O_R   0.909693 0.521428 0.452335 -0.708449
H45   H     H_    0.877377 0.525830 0.494500 0.354436
C202  C     C_2   0.077053 0.546343 0.610928 1.051514
O111  O     O_2   0.102521 0.574193 0.605695 -0.535367
O112  O     O_R   0.090412 0.520943 0.547547 -0.708461
H46   H     H_    0.122741 0.525196 0.505325 0.354047
C203  C     C_2   0.423248 0.046781 0.388762 1.051606
O113  O     O_2   0.397951 0.074757 0.393773 -0.535862
O114  O     O_R   0.409734 0.021525 0.452351 -0.708214
H47   H     H_    0.377441 0.026004 0.494581 0.354482
C204  C     C_2   0.576274 0.047666 0.611806 1.052025
O115  O     O_2   0.601243 0.075926 0.607169 -0.535768
O116  O     O_R   0.590094 0.022576 0.547899 -0.707920
H48   H     H_    0.622360 0.027364 0.505805 0.355390
O117  O     O_3   0.701970 0.389358 0.867894 -0.673927
H49   H     H_    0.719626 0.374127 0.882021 0.341889
O118  O     O_3   0.298006 0.389401 0.132030 -0.673863
H50   H     H_    0.280343 0.374192 0.117883 0.341973
O119  O     O_3   0.203434 0.892026 0.877195 -0.623482
H51   H     H_    0.222134 0.879123 0.891129 0.340198
O120  O     O_3   0.798038 0.889075 0.132879 -0.674007
H52   H     H_    0.780416 0.873692 0.118814 0.342066
O121  O     O_3   0.569460 0.366808 0.875535 -0.677221
H53   H     H_    0.573347 0.396694 0.888993 0.352303
O122  O     O_3   0.430544 0.366805 0.124434 -0.677222
H54   H     H_    0.426661 0.396695 0.111001 0.352368
O123  O     O_3   0.069538 0.864818 0.872389 -0.688370
H55   H     H_    0.069202 0.897010 0.878884 0.330899
O124  O     O_3   0.931399 0.867305 0.123930 -0.676239
H56   H     H_    0.926821 0.896569 0.109497 0.355518
C205  C     C_2   0.379884 0.297019 0.165242 0.953429
O125  O     O_2   0.361362 0.289488 0.232275 -0.514699
O126  O     O_R   0.360804 0.325627 0.141583 -0.677142
H57   H     H_    0.332106 0.338703 0.185478 0.381911
C206  C     C_2   0.620094 0.297003 0.834627 0.953405
O127  O     O_2   0.638585 0.289478 0.767598 -0.514685
O128  O     O_R   0.639210 0.325596 0.858257 -0.677253
H58   H     H_    0.667905 0.338666 0.814346 0.381836
C207  C     C_2   0.880510 0.797515 0.166262 0.952148
O129  O     O_2   0.862162 0.790272 0.233331 -0.513959
O130  O     O_R   0.861329 0.825945 0.142561 -0.678818
H59   H     H_    0.832736 0.839194 0.186447 0.381821
C208  C     C_2   0.121452 0.796845 0.840446 0.953302
O131  O     O_2   0.142538 0.788264 0.773264 -0.516056
O132  O     O_R   0.137834 0.827066 0.866818 -0.674643
H60   H     H_    0.167124 0.840122 0.824604 0.381535
O133  O     O_3   0.882721 0.705377 0.148011 -0.673644
H61   H     H_    0.858366 0.723754 0.156110 0.345533
O134  O     O_3   0.117951 0.704295 0.857980 -0.671112
H62   H     H_    0.142120 0.722275 0.851424 0.346684
O135  O     O_3   0.382632 0.204836 0.146715 -0.673090
H63   H     H_    0.358147 0.223048 0.154962 0.345678
O136  O     O_3   0.617335 0.204824 0.853135 -0.673279
H64   H     H_    0.641829 0.223034 0.844870 0.345549
C209  C     C_2   0.929766 0.636581 0.133945 0.948017
O137  O     O_2   0.901276 0.613296 0.139301 -0.514534
O138  O     O_R   0.927437 0.647613 0.198326 -0.699326
H65   H     H_    0.901686 0.632973 0.245424 0.360028
C210  C     C_2   0.069875 0.637185 0.867220 0.946154
O139  O     O_2   0.098516 0.613407 0.860317 -0.512728
O140  O     O_R   0.071430 0.649085 0.803882 -0.702207
H66   H     H_    0.096764 0.634561 0.756107 0.360619
C211  C     C_2   0.430520 0.136948 0.133971 0.945721
O141  O     O_2   0.401936 0.113139 0.140728 -0.514008
O142  O     O_R   0.428882 0.148793 0.197422 -0.699775
H67   H     H_    0.403518 0.134251 0.245132 0.360913
C212  C     C_2   0.569411 0.136931 0.865938 0.945581
O143  O     O_2   0.598008 0.113118 0.859110 -0.514069
O144  O     O_R   0.570997 0.148774 0.802542 -0.699960
H68   H     H_    0.596382 0.134292 0.754783 0.360691
O145  O     O_3   0.568099 0.634016 0.991461 -0.699965
H69   H     H_    0.572387 0.604185 0.969930 0.346877
O146  O     O_3   0.431902 0.633949 0.008528 -0.700000
H70   H     H_    0.427587 0.604160 0.030199 0.346948
O147  O     O_3   0.068078 0.134123 0.991886 -0.698285
H71   H     H_    0.072016 0.104036 0.971465 0.353010
O148  O     O_3   0.931980 0.133977 0.008464 -0.700045
H72   H     H_    0.927635 0.104185 0.030144 0.346403
C213  C     C_2   0.382035 0.705485 0.061164 1.052140
O149  O     O_2   0.364034 0.711759 0.029693 -0.505066
O150  O     O_R   0.361616 0.679479 0.126023 -0.739446
H73   H     H_    0.332211 0.667298 0.140987 0.338401
C214  C     C_2   0.618110 0.705487 0.938104 1.051531
O151  O     O_2   0.636329 0.711976 0.969154 -0.505576
O152  O     O_R   0.638314 0.679248 0.873527 -0.739643
H74   H     H_    0.667772 0.667119 0.858375 0.338175
C215  C     C_2   0.881921 0.205416 0.061874 1.051612
O153  O     O_2   0.863720 0.211882 0.030790 -0.505641
O154  O     O_R   0.861705 0.179188 0.126450 -0.739665
H75   H     H_    0.832252 0.167052 0.141579 0.338144
C216  C     C_2   0.118003 0.205600 0.938809 1.053104
O155  O     O_2   0.135898 0.211841 0.970472 -0.504888
O156  O     O_R   0.138579 0.179757 0.873756 -0.737164
H76   H     H_    0.168083 0.167804 0.858668 0.338660
O157  O     O_3   0.886138 0.294798 0.060352 -0.673910
H77   H     H_    0.885535 0.321967 0.086190 0.329808
O158  O     O_3   0.113762 0.294922 0.940107 -0.674323
H78   H     H_    0.114376 0.322066 0.914220 0.329908
O159  O     O_3   0.386372 0.794867 0.059176 -0.673486
H79   H     H_    0.385712 0.822067 0.085001 0.329932
O160  O     O_3   0.613803 0.794875 0.939938 -0.673810
H80   H     H_    0.614406 0.822068 0.914165 0.329749
C217  C     C_2   0.946017 0.360935 0.962974 0.946680
O161  O     O_2   0.928966 0.397367 0.981214 -0.501605
O162  O     O_R   0.942063 0.335181 0.913977 -0.700544
H81   H     H_    0.923344 0.349739 0.899833 0.375810
C218  C     C_2   0.053827 0.361037 0.037401 0.946783
O163  O     O_2   0.070806 0.397504 0.019262 -0.501262
O164  O     O_R   0.057793 0.335305 0.086392 -0.700324
H82   H     H_    0.076448 0.349916 0.100634 0.376386
C219  C     C_2   0.446459 0.861017 0.961993 0.945949
O165  O     O_2   0.429588 0.897535 0.979906 -0.500734
O166  O     O_R   0.442606 0.835279 0.912866 -0.700260
H83   H     H_    0.424182 0.849972 0.898223 0.377011
C220  C     C_2   0.553788 0.860956 0.037395 0.946053
O167  O     O_2   0.570723 0.897446 0.019401 -0.501326
O168  O     O_R   0.557732 0.835177 0.086369 -0.700539
H84   H     H_    0.576323 0.849786 0.100745 0.376325
O169  O     O_3   0.923996 0.526400 0.270744 -0.652737
H85   H     H_    0.907308 0.553350 0.275946 0.369299
O170  O     O_3   0.076192 0.526031 0.729032 -0.652447
H86   H     H_    0.093061 0.552896 0.723574 0.369886
O171  O     O_3   0.424023 0.026476 0.270717 -0.652357
H87   H     H_    0.407376 0.053451 0.275858 0.369775
O172  O     O_3   0.575708 0.027249 0.729615 -0.652563
H88   H     H_    0.592076 0.054390 0.724771 0.369524
O173  O     O_3   0.978279 0.578465 0.205606 -0.681106
H89   H     H_    0.971905 0.576344 0.167588 0.318039
O174  O     O_3   0.022229 0.578410 0.793938 -0.682672
H90   H     H_    0.028830 0.576321 0.831674 0.318750
O175  O     O_3   0.478377 0.078465 0.205519 -0.682341
H91   H     H_    0.471983 0.076352 0.167527 0.317774
O176  O     O_3   0.520806 0.078659 0.795412 -0.681728
H92   H     H_    0.527211 0.076592 0.833397 0.317474
O177  O     O_3   0.068788 0.542673 0.243195 -0.662464
H93   H     H_    0.071577 0.540664 0.285543 0.340569
O178  O     O_3   0.931470 0.543146 0.756589 -0.662551
H94   H     H_    0.928563 0.541112 0.714374 0.340948
O179  O     O_3   0.568836 0.042586 0.243155 -0.662368
H95   H     H_    0.571608 0.040581 0.285523 0.340512
O180  O     O_3   0.430718 0.041694 0.757247 -0.661973
H96   H     H_    0.428119 0.039668 0.714687 0.339822
O181  O     O_3   0.059623 0.554567 0.141101 -0.616786
H97   H     H_    0.067127 0.556789 0.089584 0.348827
O182  O     O_3   0.940719 0.554994 0.858609 -0.616646
H98   H     H_    0.933403 0.557270 0.909998 0.348556
O183  O     O_3   0.559687 0.054484 0.141047 -0.616831
H99   H     H_    0.567228 0.056695 0.089504 0.348729
O184  O     O_3   0.439776 0.053793 0.859438 -0.616490
H100  H     H_    0.431957 0.055934 0.911169 0.349570
C221  C     C_2   0.985544 0.411599 0.331239 0.865465
O185  O     O_2   0.022626 0.396016 0.295011 -0.570903
O186  O     O_R   0.952463 0.389764 0.397159 -0.703395
H101  H     H_    0.963460 0.362038 0.407238 0.352752
C222  C     C_2   0.013911 0.411548 0.669353 0.865601
O187  O     O_2   0.976725 0.396212 0.705646 -0.571128
O188  O     O_R   0.046870 0.389456 0.603641 -0.703443
H102  H     H_    0.035704 0.361784 0.593754 0.352629
C223  C     C_2   0.485463 0.911603 0.331336 0.865416
O189  O     O_2   0.522525 0.895974 0.295101 -0.570978
O190  O     O_R   0.452368 0.889814 0.397301 -0.703509
H103  H     H_    0.463338 0.862078 0.407405 0.352597
C224  C     C_2   0.515718 0.911789 0.667336 0.864827
O191  O     O_2   0.478883 0.895629 0.703383 -0.571765
O192  O     O_R   0.549071 0.890542 0.600927 -0.703004
H104  H     H_    0.538469 0.862688 0.590378 0.352913
O193  O     O_3   0.928576 0.460892 0.360081 -0.657347
H105  H     H_    0.912539 0.433061 0.367176 0.375978
O194  O     O_3   0.071178 0.460531 0.640160 -0.657042
H106  H     H_    0.087055 0.432616 0.633247 0.376073
O195  O     O_3   0.428540 0.960952 0.360140 -0.657338
H107  H     H_    0.412476 0.933135 0.367269 0.375916
O196  O     O_3   0.571997 0.961807 0.639369 -0.657595
H108  H     H_    0.588392 0.934173 0.631823 0.375933
C225  C     C_2   0.947645 0.431212 0.225153 0.874975
O197  O     O_2   0.910521 0.446876 0.261369 -0.487596
O198  O     O_R   0.956090 0.394142 0.180302 -0.778648
H109  H     H_    0.929222 0.383819 0.183340 0.343004
C226  C     C_2   0.051953 0.430992 0.775247 0.874706
O199  O     O_2   0.089158 0.446464 0.738986 -0.487410
O200  O     O_R   0.043318 0.393935 0.820206 -0.778867
H110  H     H_    0.070131 0.383457 0.817202 0.342880
C227  C     C_2   0.447572 0.931255 0.225237 0.874881
O201  O     O_2   0.410462 0.946951 0.261462 -0.487430
O202  O     O_R   0.455983 0.894194 0.180385 -0.778613
H111  H     H_    0.429104 0.883903 0.183433 0.343088
C228  C     C_2   0.553232 0.931778 0.773924 0.875586
O203  O     O_2   0.590191 0.947835 0.737829 -0.487526
O204  O     O_R   0.545162 0.894695 0.818533 -0.778075
H112  H     H_    0.572133 0.884697 0.815425 0.343296

loop_
_geom_bond_atom_site_label_1
_geom_bond_atom_site_label_2
_ccdc_geom_bond_type
C115  O135  S    
C85   C185  S    
O140  H66   S    
Cu3   O17   S    
C133  C137  A    
C199  O105  D    
C55   C59   A    
C210  O139  D    
C154  C161  A    
O192  H104  S    
C4    C72   S    
O156  H76   S    
Cu5   O41   S    
C83   O41   A    
C196  O95   D    
O145  H69   S    
C73   O97   S    
C181  O181  S    
C46   O22   A    
C7    C171  S    
C205  O126  S    
C147  C215  S    
C21   C33   A    
C3    O19   A    
O62   H9    S    
C123  O175  S    
Cu9   O5    S    
Cu8   O36   S    
C216  O155  D    
C9    C13   A    
C220  O168  S    
C54   C74   A    
C11   C15   A    
C158  C174  S    
C135  C142  A    
C12   C16   A    
C220  O167  D    
C214  O152  S    
C70   C74   A    
C46   C174  S    
C85   C121  S    
C151  C155  A    
Cu12  O8    S    
C35   O83   S    
C77   O30   A    
C96   O15   A    
C185  O49   D    
C13   C91   S    
C5    O57   S    
C163  C217  S    
C157  O177  S    
C41   C49   A    
C198  O104  S    
Cu4   O19   S    
C62   O118  S    
O175  H91   S    
C155  C162  A    
C25   C29   A    
C27   C31   A    
O158  H78   S    
C80   O38   A    
O116  H48   S    
C94   O12   A    
C141  C144  A    
C221  O186  S    
C99   O123  S    
Cu7   O40   S    
C217  O161  D    
Cu2   O24   S    
C135  O147  S    
C17   C21   A    
C153  C161  A    
C86   C174  S    
C19   C23   A    
O150  H73   S    
C136  C141  A    
C84   C168  S    
C45   C173  S    
C10   C30   A    
C116  O136  S    
O78   H22   S    
C156  C166  A    
C68   C72   A    
C222  O187  D    
C7    C227  S    
C111  C113  A    
C32   C64   A    
C178  C182  S    
C88   C188  S    
C87   C203  S    
C20   O80   S    
C189  O62   S    
O121  H53   S    
C142  C144  A    
Cu2   O3    S    
O118  H50   S    
C110  C116  A    
O202  H111  S    
Cu8   O39   S    
C170  C174  S    
C47   O27   A    
C89   C101  S    
C95   O14   A    
C16   C94   S    
C80   O34   A    
C183  O183  S    
C61   O117  S    
O114  H47   S    
C57   C61   A    
C3    C71   S    
Cu3   O26   S    
O123  H55   S    
C59   C63   A    
C46   O26   A    
C60   C64   A    
C26   C50   A    
C218  O163  D    
C219  O166  S    
C207  O129  D    
C104  C110  A    
C160  O180  S    
C66   C70   A    
C58   C198  S    
C171  C175  S    
C155  C165  A    
C49   C53   A    
C122  O174  S    
C148  C216  S    
C51   C55   A    
C33   O81   S    
C213  O149  D    
C93   O7    A    
C127  C131  A    
C184  O184  S    
C141  C147  A    
O94   H35   S    
Cu12  O16   S    
C119  C126  A    
C128  C210  S    
Cu11  O7    S    
O174  H90   S    
Cu7   O35   S    
Cu9   Cu10  S    
C81   O35   A    
C200  O107  D    
O106  H43   S    
C103  C107  A    
Cu1   O1    S    
C208  O131  D    
C201  O109  D    
C104  C107  A    
C180  C184  S    
C197  O101  D    
C4    O20   A    
Cu5   O33   S    
C90   O48   A    
O136  H64   S    
C140  C143  A    
C88   C124  S    
C129  C211  S    
C9    O73   S    
C206  O127  D    
C5    C177  S    
C211  O141  D    
C146  C214  S    
C186  O51   D    
C225  O197  D    
C153  C163  A    
C154  C164  A    
C148  C150  A    
C96   C138  S    
O57   H5    S    
Cu1   Cu3   S    
O126  H57   S    
C215  O154  S    
C188  O55   D    
C77   C131  S    
C193  O90   S    
C228  O203  D    
C78   C132  S    
C78   O32   A    
C79   O33   A    
C149  C153  A    
C145  C213  S    
C182  O70   S    
C139  C143  A    
Cu11  O12   S    
O142  H67   S    
C88   C204  S    
O159  H79   S    
C81   O39   A    
C109  C205  S    
C97   O121  S    
O169  H85   S    
C55   C75   A    
C44   C52   A    
C86   C186  S    
O88   H32   S    
C223  O189  D    
C166  C168  A    
C194  O92   S    
Cu5   Cu6   S    
Cu7   Cu8   S    
C8    O60   S    
C65   C193  S    
Cu9   O13   S    
C100  C102  A    
C27   C51   A    
C11   O75   S    
C63   O119  S    
C22   C34   A    
C29   C61   A    
C95   C137  S    
Cu1   O22   S    
C52   C56   A    
C152  C156  A    
C92   O10   A    
C183  O71   S    
C123  C179  S    
C10   C14   A    
C134  C139  A    
C121  C177  S    
C48   O28   A    
C83   C167  S    
C60   C200  S    
C116  C120  A    
O73   H17   S    
C122  O170  S    
Cu10  O14   S    
O198  H109  S    
C134  O146  S    
O66   H11   S    
C157  C189  S    
C18   O78   S    
C172  C224  S    
C165  C219  S    
Cu6   O37   S    
C145  C151  A    
C222  O188  S    
C142  C148  A    
C42   C50   A    
C113  C117  A    
C68   C196  S    
C150  O158  S    
C26   C30   A    
C12   O76   S    
C115  C119  A    
C159  C191  S    
O177  H93   S    
C84   O43   A    
C94   O8    A    
O184  H100  S    
C128  C131  A    
C92   O6    A    
C158  C190  S    
C6    C170  S    
C78   O31   A    
Cu10  O9    S    
C82   O36   A    
C123  O171  S    
C124  O172  S    
Cu9   O45   S    
C1    O1    A    
C24   C28   A    
O188  H102  S    
C218  O164  S    
C110  C206  S    
C87   C175  S    
C88   C176  S    
C6    C226  S    
C13   C17   A    
C45   O25   A    
C223  O190  S    
C57   C197  S    
C205  O125  D    
C170  C222  S    
C87   C123  S    
C106  C108  A    
C177  C181  S    
C111  C207  S    
C119  C129  A    
C37   C41   A    
C83   O42   A    
O152  H74   S    
Cu4   O27   S    
C4    O4    A    
C43   C67   A    
C214  O151  D    
O68   H12   S    
C169  C173  S    
C89   O46   A    
O193  H105  S    
C66   C194  S    
C117  C125  A    
C47   C175  S    
O182  H98   S    
C48   C176  S    
C58   C62   A    
C77   O29   A    
O133  H61   S    
C96   O16   A    
C130  C212  S    
C82   O40   A    
C144  C161  A    
C228  O204  S    
C19   O79   S    
O166  H83   S    
Cu6   O42   S    
C127  C209  S    
C134  C137  A    
C198  O103  D    
Cu4   O20   S    
O52   H2    S    
C15   C19   A    
C200  O108  S    
C50   C54   A    
C195  O93   D    
C34   O82   S    
C147  C149  A    
C112  C208  S    
C203  O114  S    
C136  O148  S    
O181  H97   S    
C120  C126  A    
C171  C223  S    
C169  O193  S    
C98   C103  A    
Cu10  O6    S    
C194  O91   D    
C7    O59   S    
C224  O191  D    
C21   C25   A    
C151  O159  S    
C196  O96   S    
O128  H58   S    
C212  O144  S    
C86   C122  S    
C37   O85   S    
O108  H44   S    
C69   C73   A    
C118  C125  A    
C181  O69   S    
C72   C76   A    
C221  O185  D    
C129  C132  A    
C99   C106  A    
C217  O162  S    
C105  C111  A    
Cu3   O18   S    
O84   H28   S    
C199  O106  S    
O146  H70   S    
C18   C22   A    
O173  H89   S    
C6    C178  S    
C210  O140  S    
Cu2   O4    S    
C157  C181  S    
C215  O153  D    
C121  O173  S    
C112  C114  A    
C91   O9    A    
C5    C225  S    
C195  O94   S    
Cu5   O29   S    
C114  O134  S    
C160  C192  S    
C95   O13   A    
O180  H96   S    
C8    C228  S    
C81   C179  S    
C140  C146  A    
O100  H40   S    
C53   C57   A    
Cu11  Cu12  S    
Cu3   O25   S    
O157  H77   S    
C1    C69   S    
O80   H24   S    
C124  O176  S    
C80   C178  S    
C164  C218  S    
C35   C39   A    
O162  H81   S    
O69   H13   S    
C91   O5    A    
O96   H36   S    
C67   C195  S    
C28   C32   A    
O178  H94   S    
O179  H95   S    
C24   C36   A    
C117  C127  A    
C184  O72   S    
C79   O37   A    
C17   O77   S    
C23   C35   A    
C30   C62   A    
C1    O17   A    
C192  O68   S    
Cu2   Cu4   S    
O74   H18   S    
C33   C37   A    
O119  H51   S    
C48   O24   A    
O154  H75   S    
C122  C178  S    
C164  C167  A    
O77   H21   S    
O112  H46   S    
C15   C93   S    
O124  H56   S    
C38   C42   A    
C98   C101  A    
Cu2   O23   S    
O87   H31   S    
C103  C109  A    
O60   H8    S    
C201  O110  S    
O90   H33   S    
O92   H34   S    
C171  O195  S    
C39   O87   S    
C43   C51   A    
O83   H27   S    
C187  O53   D    
Cu11  O47   S    
Cu12  O11   S    
C65   C69   A    
O200  H110  S    
C67   C71   A    
C209  O137  D    
C41   C65   A    
C193  O89   D    
C25   C49   A    
C97   C104  A    
Cu8   O44   S    
O86   H30   S    
C56   C60   A    
C87   C187  S    
C99   C102  A    
C133  C140  A    
O79   H23   S    
C22   C26   A    
O132  H60   S    
C5    C169  S    
Cu6   O34   S    
C2    C70   S    
C8    C172  S    
C157  C173  S    
C135  C138  A    
O98   H38   S    
C56   C76   A    
C100  O124  S    
C45   O21   A    
O75   H19   S    
C14   C18   A    
C130  C132  A    
O110  H45   S    
C64   O120  S    
O204  H112  S    
C169  C221  S    
O135  H63   S    
O122  H54   S    
C106  C112  A    
O81   H25   S    
C170  O194  S    
C100  C105  A    
C227  O201  D    
O194  H106  S    
Cu1   O21   S    
Cu12  O48   S    
O168  H84   S    
C120  C130  A    
C133  O145  S    
C152  O160  S    
C2    O2    A    
C38   O86   S    
C207  O130  S    
C158  O178  S    
O176  H92   S    
O54   H3    S    
C189  O61   D    
O196  H108  S    
O183  H99   S    
C216  O156  S    
C213  O150  S    
C8    C180  S    
C226  O200  S    
O138  H65   S    
C90   C102  S    
O104  H42   S    
C85   C173  S    
O172  H88   S    
C6    O58   S    
C190  O64   S    
C23   C27   A    
C108  C125  A    
C208  O132  S    
O59   H7    S    
C143  C162  A    
C16   C20   A    
O72   H16   S    
C11   C31   A    
C209  O138  S    
C159  C175  S    
C90   O47   A    
C12   C32   A    
C160  C176  S    
C84   O44   A    
Cu6   O30   S    
C118  C128  A    
C166  C220  S    
C206  O128  S    
C179  C183  S    
C211  O142  S    
Cu7   O43   S    
C105  C108  A    
C186  O52   S    
C204  O116  S    
C75   O99   S    
C76   O100  S    
O160  H80   S    
C20   C24   A    
C36   C40   A    
C219  O165  D    
C136  C138  A    
O164  H82   S    
C187  O54   S    
O76   H20   S    
C39   C43   A    
O82   H26   S    
C113  O133  S    
C192  O67   D    
C47   O23   A    
C188  O56   S    
C163  C167  A    
Cu11  O15   S    
C3    O3    A    
O134  H62   S    
C40   C44   A    
O130  H59   S    
C36   O84   S    
O195  H107  S    
C79   C177  S    
C226  O199  D    
C7    C179  S    
C227  O202  S    
Cu5   O38   S    
C158  C182  S    
C14   C92   S    
C204  O115  D    
C114  C118  A    
C86   C202  S    
C146  C152  A    
Cu4   O28   S    
O64   H10   S    
C165  C168  A    
C85   C201  S    
C191  O66   S    
O70   H14   S    
Cu1   O2    S    
C89   O45   A    
C44   C68   A    
C149  O157  S    
O56   H4    S    
C93   O11   A    
O170  H86   S    
O71   H15   S    
C202  O111  D    
C54   C58   A    
O186  H101  S    
C139  C145  A    
Cu7   O31   S    
Cu9   O10   S    
Cu10  O46   S    
C34   C38   A    
C172  O196  S    
C53   C73   A    
C107  C126  A    
C40   O88   S    
O50   H1    S    
C2    O18   A    
C9    C29   A    
C74   O98   S    
C31   C63   A    
C182  O182  S    
O171  H87   S    
C159  C183  S    
O190  H103  S    
C185  O50   S    
O148  H72   S    
C225  O198  S    
C203  O113  D    
C71   C75   A    
C28   C52   A    
O102  H41   S    
O147  H71   S    
O117  H49   S    
O58   H6    S    
C224  O192  S    
O85   H29   S    
C124  C180  S    
C121  O169  S    
C109  C115  A    
C156  C162  A    
O144  H68   S    
C59   C199  S    
C172  C176  S    
Cu8   O32   S    
C159  O179  S    
C197  O102  S    
C212  O143  D    
C150  C154  A    
C82   C180  S    
C42   C66   A    
O97   H37   S    
C202  O112  S    
O99   H39   S    
C191  O65   D    
C98   O122  S    
C160  C184  S    
C97   C101  A    
O120  H52   S    
C10   O74   S    
C190  O63   D    
