data_mof_unit_65949.cif
_audit_creation_date              2013-03-05T16:15:20-0500
_audit_creation_method            fapswitch 2.2
_symmetry_space_group_name_H-M    P1
_symmetry_Int_Tables_number       1
_space_group_crystal_system       triclinic
_cell_length_a                    39.043827
_cell_length_b                    39.043845
_cell_length_c                    23.68858
_cell_angle_alpha                 89.999953
_cell_angle_beta                  90.000093
_cell_angle_gamma                 89.999982
_cell_volume                      36111.371882

loop_
_atom_site_label
_atom_site_type_symbol
_atom_site_description
_atom_site_fract_x
_atom_site_fract_y
_atom_site_fract_z
_atom_type_partial_charge
O1    O     O_R   0.549890 0.028920 0.500040 -0.584543
O2    O     O_R   0.971080 0.549890 0.500040 -0.584602
O3    O     O_R   0.450110 0.971080 0.500040 -0.584622
O4    O     O_R   0.028920 0.450110 0.500040 -0.584624
O5    O     O_R   0.450110 0.028920 0.499960 -0.584623
O6    O     O_R   0.028920 0.549890 0.499960 -0.584605
O7    O     O_R   0.549890 0.971080 0.499960 -0.584542
O8    O     O_R   0.971080 0.450110 0.499960 -0.584620
O9    O     O_R   0.049890 0.528920 0.000040 -0.584544
O10   O     O_R   0.471080 0.049890 0.000040 -0.584591
O11   O     O_R   0.950110 0.471080 0.000040 -0.584541
O12   O     O_R   0.528920 0.950110 0.000040 -0.584605
O13   O     O_R   0.950110 0.528920 0.999960 -0.584543
O14   O     O_R   0.528920 0.049890 0.999960 -0.584603
O15   O     O_R   0.049890 0.471080 0.999960 -0.584541
O16   O     O_R   0.471080 0.950110 0.999960 -0.584592
C1    C     C_R   0.566214 0.000000 0.500000 0.844579
C2    C     C_R   0.000000 0.566215 0.499999 0.844659
C3    C     C_R   0.433784 0.000000 0.500000 0.844676
C4    C     C_R   0.000000 0.433784 0.500001 0.844674
C5    C     C_R   0.066214 0.500000 0.000000 0.844575
C6    C     C_R   0.500000 0.066215 0.000000 0.844648
C7    C     C_R   0.933786 0.500000 1.000000 0.844575
C8    C     C_R   0.500000 0.933785 0.000000 0.844646
O17   O     O_R   0.499990 0.028920 0.581420 -0.571098
O18   O     O_R   0.971080 0.499990 0.581420 -0.571163
O19   O     O_R   0.500010 0.971080 0.581420 -0.571246
O20   O     O_R   0.028920 0.500010 0.581420 -0.571198
O21   O     O_R   0.500010 0.028920 0.418580 -0.571247
O22   O     O_R   0.028920 0.499990 0.418580 -0.571165
O23   O     O_R   0.499990 0.971080 0.418580 -0.571097
O24   O     O_R   0.971080 0.500010 0.418580 -0.571195
O25   O     O_R   0.999990 0.528920 0.081420 -0.571172
O26   O     O_R   0.471080 0.999990 0.081420 -0.571159
O27   O     O_R   0.000010 0.471080 0.081420 -0.571166
O28   O     O_R   0.528920 0.000010 0.081420 -0.571191
O29   O     O_R   0.000010 0.528920 0.918580 -0.571172
O30   O     O_R   0.528920 0.999990 0.918580 -0.571189
O31   O     O_R   0.999990 0.471080 0.918580 -0.571166
O32   O     O_R   0.471080 0.000010 0.918580 -0.571158
C9    C     C_R   0.500000 0.000000 0.608173 0.818257
C10   C     C_R   0.000000 0.500000 0.608173 0.818300
C11   C     C_R   0.500000 0.000000 0.391827 0.818257
C12   C     C_R   1.000000 0.500000 0.391827 0.818301
C13   C     C_R   1.000000 0.500000 0.108173 0.818200
C14   C     C_R   0.500000 0.000000 0.108173 0.818273
C15   C     C_R   0.000000 0.500000 0.891827 0.818201
C16   C     C_R   0.500000 1.000000 0.891827 0.818277
Cu1   Cu    Cu3+1 0.500000 0.034240 0.500000 1.012083
Cu2   Cu    Cu3+1 0.965760 0.500000 0.500000 1.011991
Cu3   Cu    Cu3+1 0.500000 0.965760 0.500000 1.012085
Cu4   Cu    Cu3+1 0.034240 0.500000 0.500000 1.011979
Cu5   Cu    Cu3+1 1.000000 0.534240 0.000000 1.012169
Cu6   Cu    Cu3+1 0.465760 0.000000 0.000000 1.012085
Cu7   Cu    Cu3+1 1.000000 0.465760 0.000000 1.012183
Cu8   Cu    Cu3+1 0.534240 0.000000 0.000000 1.012007
C17   C     C_1   0.500000 1.000000 0.669018 -0.140581
C18   C     C_1   0.000000 0.500000 0.669018 -0.140589
C19   C     C_1   0.500000 0.000000 0.330982 -0.140582
C20   C     C_1   1.000000 0.500000 0.330982 -0.140589
C21   C     C_1   1.000000 0.500000 0.169017 -0.140605
C22   C     C_1   0.500000 0.000000 0.169018 -0.140580
C23   C     C_1   0.000000 0.500000 0.830982 -0.140605
C24   C     C_1   0.500000 1.000000 0.830982 -0.140578
C25   C     C_1   0.500000 1.000000 0.720070 0.035993
C26   C     C_1   1.000000 0.500000 0.720070 0.035980
C27   C     C_1   0.500000 0.000000 0.279930 0.035992
C28   C     C_1   1.000000 0.500000 0.279930 0.035980
C29   C     C_1   1.000000 0.500000 0.220069 0.035967
C30   C     C_1   0.500000 0.000000 0.220070 0.035994
C31   C     C_1   0.000000 0.500000 0.779930 0.035966
C32   C     C_1   0.500000 1.000000 0.779930 0.035996
C33   C     C_R   0.877532 0.979641 0.460605 0.304369
C34   C     C_R   0.020303 0.877529 0.460523 0.304372
C35   C     C_R   0.122473 0.020295 0.460514 0.304378
C36   C     C_R   0.979726 0.122476 0.460487 0.304467
C37   C     C_R   0.122474 0.979708 0.539488 0.304404
C38   C     C_R   0.979706 0.877526 0.539485 0.304453
C39   C     C_R   0.877533 0.020362 0.539392 0.304345
C40   C     C_R   0.020283 0.122472 0.539505 0.304387
C41   C     C_R   0.377533 0.479644 0.960601 0.304365
C42   C     C_R   0.520287 0.377527 0.960504 0.304444
C43   C     C_R   0.622467 0.520357 0.960603 0.304359
C44   C     C_R   0.479715 0.622473 0.960500 0.304449
C45   C     C_R   0.622467 0.479643 0.039398 0.304363
C46   C     C_R   0.479713 0.377527 0.039496 0.304446
C47   C     C_R   0.377533 0.520357 0.039399 0.304360
C48   C     C_R   0.520285 0.622473 0.039500 0.304446
C49   C     C_R   0.841688 0.980422 0.460511 -0.180380
C50   C     C_R   0.019513 0.841685 0.460417 -0.180344
C51   C     C_R   0.158317 0.019501 0.460405 -0.180338
C52   C     C_R   0.980519 0.158320 0.460386 -0.180342
C53   C     C_R   0.158318 0.980502 0.539596 -0.180341
C54   C     C_R   0.980496 0.841682 0.539583 -0.180351
C55   C     C_R   0.841689 0.019580 0.539489 -0.180377
C56   C     C_R   0.019490 0.158317 0.539615 -0.180335
C57   C     C_R   0.341689 0.480425 0.960505 -0.180384
C58   C     C_R   0.519499 0.341683 0.960404 -0.180350
C59   C     C_R   0.658311 0.519576 0.960507 -0.180378
C60   C     C_R   0.480504 0.658317 0.960401 -0.180353
C61   C     C_R   0.658311 0.480425 0.039494 -0.180381
C62   C     C_R   0.480501 0.341683 0.039596 -0.180353
C63   C     C_R   0.341689 0.519575 0.039494 -0.180382
C64   C     C_R   0.519497 0.658317 0.039600 -0.180349
H1    H     H_    0.827759 0.964573 0.430799 0.191900
H2    H     H_    0.035307 0.827753 0.430626 0.191961
H3    H     H_    0.172252 0.035285 0.430603 0.191999
H4    H     H_    0.964747 0.172255 0.430568 0.191981
H5    H     H_    0.172254 0.964719 0.569398 0.191998
H6    H     H_    0.964705 0.827748 0.569374 0.191959
H7    H     H_    0.827760 0.035430 0.569200 0.191900
H8    H     H_    0.035265 0.172250 0.569432 0.191983
H9    H     H_    0.327759 0.464579 0.930789 0.191900
H10   H     H_    0.535285 0.327751 0.930603 0.191943
H11   H     H_    0.672241 0.535423 0.930791 0.191902
H12   H     H_    0.464720 0.672250 0.930597 0.191939
H13   H     H_    0.672241 0.464578 0.069209 0.191901
H14   H     H_    0.464715 0.327751 0.069397 0.191939
H15   H     H_    0.327759 0.535421 0.069211 0.191902
H16   H     H_    0.535281 0.672249 0.069404 0.191945
C65   C     C_R   0.823640 0.000001 0.500001 0.022467
C66   C     C_R   0.000004 0.823637 0.499997 0.022335
C67   C     C_R   0.176362 0.000001 0.499999 0.022252
C68   C     C_R   0.000004 0.176363 0.500003 0.022291
C69   C     C_R   0.323640 0.500000 1.000000 0.022461
C70   C     C_R   0.500000 0.323637 0.000000 0.022367
C71   C     C_R   0.676360 0.500000 0.000000 0.022460
C72   C     C_R   0.500000 0.676363 0.000001 0.022368
C73   C     C_R   0.895864 0.000001 0.499999 -0.235141
C74   C     C_R   0.000002 0.895861 0.500003 -0.235063
C75   C     C_R   0.104140 0.000001 0.500001 -0.235091
C76   C     C_R   0.000002 0.104141 0.499997 -0.235050
C77   C     C_R   0.395864 0.500000 1.000000 -0.235132
C78   C     C_R   0.500000 0.395860 0.000000 -0.235022
C79   C     C_R   0.604136 0.500000 0.000000 -0.235131
C80   C     C_R   0.500000 0.604140 0.000000 -0.235020
C81   C     C_R   0.767772 0.003707 0.449328 -0.204633
C82   C     C_R   0.996091 0.767776 0.449363 -0.204562
C83   C     C_R   0.232220 0.996008 0.449384 -0.204551
C84   C     C_R   0.003993 0.232224 0.449391 -0.204579
C85   C     C_R   0.232221 0.003995 0.550613 -0.204556
C86   C     C_R   0.003918 0.767775 0.550626 -0.204582
C87   C     C_R   0.767772 0.996295 0.550675 -0.204627
C88   C     C_R   0.996016 0.232222 0.550621 -0.204557
C89   C     C_R   0.267772 0.503717 0.949329 -0.204631
C90   C     C_R   0.496096 0.267774 0.949367 -0.204579
C91   C     C_R   0.732228 0.496284 0.949329 -0.204627
C92   C     C_R   0.503910 0.732227 0.949371 -0.204603
C93   C     C_R   0.732228 0.503717 0.050671 -0.204628
C94   C     C_R   0.503904 0.267774 0.050634 -0.204589
C95   C     C_R   0.267772 0.496283 0.050671 -0.204629
C96   C     C_R   0.496090 0.732225 0.050635 -0.204584
H17   H     H_    0.781754 0.006630 0.410122 0.199431
H18   H     H_    0.993013 0.781763 0.410193 0.199506
H19   H     H_    0.218232 0.992870 0.410228 0.199537
H20   H     H_    0.007129 0.218238 0.410232 0.199525
H21   H     H_    0.218233 0.007133 0.589769 0.199536
H22   H     H_    0.006997 0.781760 0.589797 0.199502
H23   H     H_    0.781755 0.993372 0.589881 0.199432
H24   H     H_    0.992881 0.218234 0.589779 0.199530
H25   H     H_    0.281755 0.506648 0.910124 0.199432
H26   H     H_    0.493024 0.281759 0.910194 0.199492
H27   H     H_    0.718245 0.493353 0.910124 0.199434
H28   H     H_    0.506988 0.718242 0.910198 0.199489
H29   H     H_    0.718245 0.506647 0.089876 0.199434
H30   H     H_    0.506976 0.281759 0.089807 0.199490
H31   H     H_    0.281755 0.493352 0.089876 0.199433
H32   H     H_    0.493014 0.718239 0.089806 0.199494
C97   C     C_R   0.731909 0.003405 0.448464 0.334259
C98   C     C_R   0.996381 0.731913 0.448496 0.334220
C99   C     C_R   0.268083 0.996291 0.448517 0.334187
C100  C     C_R   0.003706 0.268087 0.448526 0.334249
C101  C     C_R   0.268084 0.003711 0.551479 0.334189
C102  C     C_R   0.003626 0.731912 0.551491 0.334225
C103  C     C_R   0.731910 0.996597 0.551540 0.334258
C104  C     C_R   0.996301 0.268085 0.551490 0.334242
C105  C     C_R   0.231910 0.503415 0.948464 0.334257
C106  C     C_R   0.496389 0.231911 0.948501 0.334232
C107  C     C_R   0.768090 0.496585 0.948464 0.334254
C108  C     C_R   0.503619 0.768089 0.948506 0.334275
C109  C     C_R   0.768090 0.503415 0.051536 0.334257
C110  C     C_R   0.503611 0.231912 0.051501 0.334247
C111  C     C_R   0.231910 0.496585 0.051536 0.334254
C112  C     C_R   0.496383 0.768088 0.051503 0.334244
C113  C     C_R   0.713751 0.000001 0.500002 -0.053008
C114  C     C_R   0.000003 0.713754 0.499993 -0.053017
C115  C     C_R   0.286243 0.000001 0.499998 -0.053009
C116  C     C_R   0.000003 0.286244 0.500008 -0.053022
C117  C     C_R   0.213751 0.500000 0.000000 -0.053008
C118  C     C_R   0.500000 0.213753 0.000001 -0.053016
C119  C     C_R   0.786249 0.500000 1.000000 -0.053008
C120  C     C_R   0.500000 0.786247 0.000005 -0.053017
C121  C     C_R   0.785811 0.000001 0.500001 0.007272
C122  C     C_R   0.000005 0.785812 0.499995 0.007117
C123  C     C_R   0.214185 0.000001 0.499999 0.007032
C124  C     C_R   0.000005 0.214187 0.500005 0.007063
C125  C     C_R   0.285811 0.500000 0.000000 0.007267
C126  C     C_R   0.500000 0.285811 0.000000 0.007150
C127  C     C_R   0.714189 0.500000 0.000000 0.007265
C128  C     C_R   0.500000 0.714189 0.000002 0.007150
C129  C     C_R   0.658135 0.968997 0.507143 0.501736
C130  C     C_R   0.031038 0.658139 0.506745 0.501731
C131  C     C_R   0.341858 0.031050 0.506580 0.501712
C132  C     C_R   0.968957 0.341858 0.506649 0.501722
C133  C     C_R   0.341858 0.968951 0.493416 0.501710
C134  C     C_R   0.968966 0.658140 0.493242 0.501729
C135  C     C_R   0.658135 0.031005 0.492861 0.501738
C136  C     C_R   0.031047 0.341859 0.493367 0.501742
C137  C     C_R   0.158136 0.468994 0.007119 0.501728
C138  C     C_R   0.531033 0.158138 0.006788 0.501730
C139  C     C_R   0.841864 0.531006 0.007121 0.501734
C140  C     C_R   0.468968 0.841862 0.006799 0.501680
C141  C     C_R   0.841864 0.468994 0.992879 0.501727
C142  C     C_R   0.468967 0.158139 0.993214 0.501707
C143  C     C_R   0.158136 0.531006 0.992881 0.501734
C144  C     C_R   0.531034 0.841861 0.993212 0.501780
C145  C     C_R   0.622151 0.969147 0.505347 -0.264488
C146  C     C_R   0.030878 0.622154 0.504962 -0.264510
C147  C     C_R   0.377843 0.030887 0.504799 -0.264504
C148  C     C_R   0.969118 0.377844 0.504864 -0.264564
C149  C     C_R   0.377843 0.969114 0.495198 -0.264502
C150  C     C_R   0.969124 0.622155 0.495030 -0.264506
C151  C     C_R   0.622151 0.030854 0.494655 -0.264489
C152  C     C_R   0.030884 0.377845 0.495146 -0.264583
C153  C     C_R   0.122151 0.469145 0.005325 -0.264480
C154  C     C_R   0.530875 0.122154 0.005001 -0.264523
C155  C     C_R   0.877849 0.530855 0.005326 -0.264485
C156  C     C_R   0.469126 0.877846 0.005011 -0.264520
C157  C     C_R   0.877849 0.469145 0.994673 -0.264483
C158  C     C_R   0.469125 0.122154 0.995000 -0.264510
C159  C     C_R   0.122151 0.530855 0.994676 -0.264482
C160  C     C_R   0.530875 0.877846 0.994996 -0.264604
H33   H     H_    0.608367 0.945166 0.508076 0.178656
H34   H     H_    0.054870 0.608371 0.507386 0.178675
H35   H     H_    0.391626 0.054884 0.507089 0.178695
H36   H     H_    0.945122 0.391627 0.507200 0.178664
H37   H     H_    0.391626 0.945116 0.492908 0.178695
H38   H     H_    0.945131 0.608372 0.492608 0.178676
H39   H     H_    0.608367 0.054834 0.491926 0.178656
H40   H     H_    0.054880 0.391629 0.492808 0.178659
H41   H     H_    0.108367 0.445164 0.008036 0.178663
H42   H     H_    0.554866 0.108370 0.007452 0.178673
H43   H     H_    0.891633 0.554836 0.008040 0.178661
H44   H     H_    0.445134 0.891630 0.007467 0.178672
H45   H     H_    0.891633 0.445164 0.991960 0.178662
H46   H     H_    0.445133 0.108370 0.992550 0.178678
H47   H     H_    0.108367 0.554836 0.991964 0.178662
H48   H     H_    0.554865 0.891631 0.992538 0.178643
C161  C     C_R   0.604013 0.000000 0.500001 -0.150321
C162  C     C_R   0.000000 0.604015 0.499997 -0.150345
C163  C     C_R   0.395983 0.000000 0.499999 -0.150357
C164  C     C_R   0.000001 0.395984 0.500003 -0.150300
C165  C     C_R   0.104013 0.500000 0.000000 -0.150324
C166  C     C_R   0.500000 0.104015 0.000000 -0.150329
C167  C     C_R   0.895987 0.500000 1.000000 -0.150321
C168  C     C_R   0.500000 0.895985 0.000002 -0.150290
C169  C     C_R   0.675959 0.000001 0.500002 0.034094
C170  C     C_R   0.000002 0.675962 0.499993 0.034127
C171  C     C_R   0.324035 0.000001 0.499998 0.034157
C172  C     C_R   0.000002 0.324036 0.500009 0.034187
C173  C     C_R   0.175959 0.500000 0.000000 0.034097
C174  C     C_R   0.500000 0.175961 0.000001 0.034140
C175  C     C_R   0.824041 0.500000 1.000000 0.034100
C176  C     C_R   0.500001 0.824039 0.000006 0.034179
O33   O     O_R   0.999980 0.950050 0.547030 -0.546751
O34   O     O_R   0.049950 0.999980 0.547030 -0.546744
O35   O     O_R   0.000020 0.049950 0.547030 -0.546721
O36   O     O_R   0.950050 0.000020 0.547030 -0.546792
O37   O     O_R   0.000020 0.950050 0.452970 -0.546736
O38   O     O_R   0.950050 0.999980 0.452970 -0.546797
O39   O     O_R   0.999980 0.049950 0.452970 -0.546735
O40   O     O_R   0.049950 0.000020 0.452970 -0.546740
O41   O     O_R   0.499980 0.450050 0.047030 -0.546739
O42   O     O_R   0.549950 0.499980 0.047030 -0.546797
O43   O     O_R   0.500020 0.549950 0.047030 -0.546737
O44   O     O_R   0.450050 0.500020 0.047030 -0.546796
O45   O     O_R   0.500020 0.450050 0.952970 -0.546738
O46   O     O_R   0.450050 0.499980 0.952970 -0.546797
O47   O     O_R   0.499980 0.549950 0.952970 -0.546737
O48   O     O_R   0.549950 0.500020 0.952970 -0.546796
C177  C     C_R   0.000000 0.933661 0.500001 0.924859
C178  C     C_R   0.066339 0.000000 0.500000 0.924724
C179  C     C_R   0.000000 0.066339 0.499999 0.924807
C180  C     C_R   0.933663 0.000000 0.500000 0.924889
C181  C     C_R   0.500000 0.433661 0.000000 0.924933
C182  C     C_R   0.566337 0.500000 0.000000 0.924883
C183  C     C_R   0.500000 0.566339 1.000000 0.924926
C184  C     C_R   0.433662 0.500000 1.000000 0.924881
Cu9   Cu    Cu3+1 0.000000 0.000000 0.555800 1.210987
Cu10  Cu    Cu3+1 0.000000 0.000000 0.444200 1.210987
Cu11  Cu    Cu3+1 0.500000 0.500000 0.055800 1.210935
Cu12  Cu    Cu3+1 0.500000 0.500000 0.944200 1.210935
N1    N     N_R   0.894684 0.957022 0.421919 0.148126
O49   O     O_R   0.918885 0.936821 0.439733 -0.323578
O50   O     O_R   0.882464 0.952491 0.371358 -0.295700
N2    N     N_R   0.042880 0.894682 0.421773 0.148143
O51   O     O_R   0.063131 0.918850 0.439548 -0.323501
O52   O     O_R   0.047331 0.882481 0.371179 -0.295662
N3    N     N_R   0.105321 0.042871 0.421761 0.148149
O53   O     O_R   0.081157 0.063127 0.439535 -0.323517
O54   O     O_R   0.117521 0.047317 0.371165 -0.295668
N4    N     N_R   0.957176 0.105328 0.421690 0.148165
O55   O     O_R   0.936904 0.081165 0.439424 -0.323282
O56   O     O_R   0.952768 0.117528 0.371086 -0.295696
N5    N     N_R   0.105324 0.957136 0.578249 0.148154
O57   O     O_R   0.081158 0.936878 0.560483 -0.323462
O58   O     O_R   0.117525 0.952694 0.628845 -0.295680
N6    N     N_R   0.957141 0.894674 0.578259 0.148159
O59   O     O_R   0.936887 0.918848 0.560510 -0.323319
O60   O     O_R   0.952704 0.882468 0.628852 -0.295704
N7    N     N_R   0.894687 0.042984 0.578071 0.148121
O61   O     O_R   0.918885 0.063184 0.560249 -0.323633
O62   O     O_R   0.882469 0.047519 0.628633 -0.295687
N8    N     N_R   0.042844 0.105320 0.578279 0.148148
O63   O     O_R   0.063114 0.081163 0.560518 -0.323464
O64   O     O_R   0.047267 0.117514 0.628884 -0.295654
N9    N     N_R   0.394685 0.457026 0.921914 0.148126
O65   O     O_R   0.418883 0.436822 0.939728 -0.323601
O66   O     O_R   0.382467 0.452499 0.871349 -0.295707
N10   N     N_R   0.542845 0.394677 0.921721 0.148154
O67   O     O_R   0.563108 0.418844 0.939465 -0.323322
O68   O     O_R   0.547268 0.382475 0.871121 -0.295698
N11   N     N_R   0.605315 0.542976 0.921917 0.148126
O69   O     O_R   0.581116 0.563179 0.939733 -0.323610
O70   O     O_R   0.617533 0.547506 0.871354 -0.295700
N12   N     N_R   0.457159 0.605324 0.921714 0.148152
O71   O     O_R   0.436894 0.581158 0.939457 -0.323321
O72   O     O_R   0.452740 0.617525 0.871113 -0.295708
N13   N     N_R   0.605315 0.457025 0.078084 0.148126
O73   O     O_R   0.581117 0.436821 0.060269 -0.323605
O74   O     O_R   0.617533 0.452496 0.128648 -0.295705
N14   N     N_R   0.457154 0.394677 0.078279 0.148153
O75   O     O_R   0.436891 0.418844 0.060534 -0.323326
O76   O     O_R   0.452731 0.382475 0.128879 -0.295710
N15   N     N_R   0.394685 0.542975 0.078085 0.148125
O77   O     O_R   0.418883 0.563179 0.060269 -0.323608
O78   O     O_R   0.382468 0.547503 0.128649 -0.295702
N16   N     N_R   0.542841 0.605323 0.078286 0.148154
O79   O     O_R   0.563106 0.581157 0.060543 -0.323317
O80   O     O_R   0.547261 0.617524 0.128887 -0.295696
N17   N     N_R   0.714522 0.006391 0.395026 0.126177
O81   O     O_R   0.686579 0.989262 0.385078 -0.341953
O82   O     O_R   0.728602 0.023358 0.353820 -0.322873
N18   N     N_R   0.993153 0.714527 0.395096 0.126204
O83   O     O_R   0.010229 0.686579 0.384941 -0.341950
O84   O     O_R   0.976006 0.728613 0.354097 -0.322822
N19   N     N_R   0.285470 0.992966 0.395133 0.126216
O85   O     O_R   0.313421 0.010019 0.384897 -0.341949
O86   O     O_R   0.271385 0.975744 0.354219 -0.322808
N20   N     N_R   0.007020 0.285474 0.395142 0.126246
O87   O     O_R   0.989956 0.313419 0.384911 -0.341972
O88   O     O_R   0.024240 0.271393 0.354221 -0.322810
N21   N     N_R   0.285471 0.007036 0.604863 0.126216
O89   O     O_R   0.313421 0.989982 0.615099 -0.341949
O90   O     O_R   0.271387 0.024258 0.645776 -0.322811
N22   N     N_R   0.006853 0.714524 0.604890 0.126201
O91   O     O_R   0.989774 0.686578 0.615044 -0.341947
O92   O     O_R   0.024002 0.728607 0.645889 -0.322836
N23   N     N_R   0.714523 0.993610 0.604978 0.126179
O93   O     O_R   0.686580 0.010740 0.614926 -0.341952
O94   O     O_R   0.728604 0.976645 0.646184 -0.322869
N24   N     N_R   0.992988 0.285471 0.604875 0.126239
O95   O     O_R   0.010050 0.313417 0.615106 -0.341977
O96   O     O_R   0.975772 0.271387 0.645797 -0.322802
N25   N     N_R   0.214522 0.506414 0.895028 0.126175
O97   O     O_R   0.186579 0.489288 0.885070 -0.341960
O98   O     O_R   0.228603 0.523390 0.853832 -0.322881
N26   N     N_R   0.493176 0.214524 0.895099 0.126205
O99   O     O_R   0.510260 0.186579 0.884956 -0.341944
O100  O     O_R   0.476038 0.228607 0.854088 -0.322818
N27   N     N_R   0.785477 0.493587 0.895027 0.126180
O101  O     O_R   0.813420 0.510713 0.885070 -0.341949
O102  O     O_R   0.771396 0.476612 0.853831 -0.322864
N28   N     N_R   0.506841 0.785477 0.895107 0.126255
O103  O     O_R   0.489758 0.813422 0.884956 -0.341995
O104  O     O_R   0.523988 0.771396 0.854104 -0.322819
N29   N     N_R   0.785478 0.506414 0.104972 0.126179
O105  O     O_R   0.813421 0.489287 0.114930 -0.341960
O106  O     O_R   0.771396 0.523389 0.146168 -0.322873
N30   N     N_R   0.506823 0.214525 0.104902 0.126196
O107  O     O_R   0.489740 0.186580 0.115046 -0.341987
O108  O     O_R   0.523963 0.228607 0.145913 -0.322854
N31   N     N_R   0.214523 0.493586 0.104973 0.126177
O109  O     O_R   0.186579 0.510712 0.114931 -0.341949
O110  O     O_R   0.228604 0.476610 0.146168 -0.322873
N32   N     N_R   0.493167 0.785474 0.104905 0.126212
O111  O     O_R   0.510251 0.813418 0.115053 -0.341969
O112  O     O_R   0.476024 0.771391 0.145911 -0.322818
O113  O     O_3   0.676591 0.938691 0.510883 -0.562692
C185  C     C_3   0.666914 0.920187 0.559537 -0.204450
H49   H     H_    0.643043 0.905467 0.551758 0.157686
H50   H     H_    0.663988 0.936964 0.597303 0.186614
H51   H     H_    0.687391 0.901404 0.569284 0.210988
O114  O     O_3   0.061361 0.676595 0.510090 -0.562704
C186  C     C_3   0.080103 0.666913 0.558493 -0.204450
H52   H     H_    0.094786 0.643044 0.550508 0.157703
H53   H     H_    0.063511 0.663981 0.596480 0.186581
H54   H     H_    0.098932 0.687390 0.567995 0.210968
O115  O     O_3   0.323401 0.061379 0.509754 -0.562725
C187  C     C_3   0.333083 0.080221 0.558051 -0.204401
H55   H     H_    0.356952 0.094888 0.549985 0.157739
H56   H     H_    0.336012 0.063709 0.596132 0.186579
H57   H     H_    0.312606 0.099071 0.567445 0.210968
O116  O     O_3   0.938631 0.323399 0.509886 -0.562735
C188  C     C_3   0.919808 0.333100 0.558194 -0.204329
H58   H     H_    0.905124 0.356955 0.550108 0.157713
H59   H     H_    0.936339 0.336062 0.596248 0.186536
H60   H     H_    0.900976 0.312618 0.567649 0.210980
O117  O     O_3   0.323401 0.938623 0.490241 -0.562724
C189  C     C_3   0.333082 0.919780 0.441943 -0.204397
H61   H     H_    0.356951 0.905115 0.450008 0.157738
H62   H     H_    0.336011 0.936293 0.403863 0.186580
H63   H     H_    0.312605 0.900931 0.432550 0.210970
O118  O     O_3   0.938644 0.676597 0.489895 -0.562702
C190  C     C_3   0.919902 0.666915 0.441491 -0.204429
H64   H     H_    0.905219 0.643046 0.449473 0.157701
H65   H     H_    0.936495 0.663985 0.403504 0.186581
H66   H     H_    0.901073 0.687392 0.431988 0.210978
O119  O     O_3   0.676590 0.061311 0.489122 -0.562692
C191  C     C_3   0.666913 0.079814 0.440467 -0.204457
H67   H     H_    0.643042 0.094534 0.448248 0.157687
H68   H     H_    0.663987 0.063037 0.402702 0.186614
H69   H     H_    0.687390 0.098597 0.430721 0.210987
O120  O     O_3   0.061373 0.323401 0.490133 -0.562736
C192  C     C_3   0.080202 0.333105 0.441833 -0.204348
H70   H     H_    0.094889 0.356957 0.449933 0.157720
H71   H     H_    0.063675 0.336076 0.403776 0.186520
H72   H     H_    0.099032 0.312622 0.432375 0.210972
O121  O     O_3   0.176591 0.438687 0.010836 -0.562699
C193  C     C_3   0.166914 0.420171 0.059478 -0.204431
H73   H     H_    0.143043 0.405454 0.051690 0.157699
H74   H     H_    0.163990 0.436938 0.097256 0.186619
H75   H     H_    0.187391 0.401385 0.069210 0.210987
O122  O     O_3   0.561354 0.176595 0.010169 -0.562707
C194  C     C_3   0.580077 0.166910 0.058591 -0.204412
H76   H     H_    0.594767 0.143044 0.050617 0.157698
H77   H     H_    0.563470 0.163973 0.096559 0.186578
H78   H     H_    0.598900 0.187388 0.068121 0.210980
O123  O     O_3   0.823409 0.561313 0.010840 -0.562696
C195  C     C_3   0.833087 0.579828 0.059482 -0.204436
H79   H     H_    0.856957 0.594546 0.051691 0.157694
H80   H     H_    0.836013 0.563061 0.097259 0.186612
H81   H     H_    0.812610 0.598614 0.069216 0.210988
O124  O     O_3   0.438647 0.823404 0.010190 -0.562750
C196  C     C_3   0.419925 0.833095 0.058610 -0.204289
H82   H     H_    0.405232 0.856957 0.050627 0.157712
H83   H     H_    0.436533 0.836040 0.096574 0.186599
H84   H     H_    0.401106 0.812616 0.068150 0.210987
O125  O     O_3   0.823409 0.438687 0.989159 -0.562701
C197  C     C_3   0.833087 0.420172 0.940518 -0.204419
H85   H     H_    0.856957 0.405454 0.948308 0.157699
H86   H     H_    0.836013 0.436939 0.902741 0.186617
H87   H     H_    0.812610 0.401386 0.930783 0.210989
O126  O     O_3   0.438646 0.176595 0.989833 -0.562732
C198  C     C_3   0.419922 0.166910 0.941412 -0.204327
H88   H     H_    0.405232 0.143044 0.949387 0.157718
H89   H     H_    0.436529 0.163972 0.903444 0.186596
H90   H     H_    0.401099 0.187388 0.931883 0.210985
O127  O     O_3   0.176591 0.561313 0.989164 -0.562693
C199  C     C_3   0.166914 0.579829 0.940522 -0.204448
H91   H     H_    0.143043 0.594546 0.948311 0.157695
H92   H     H_    0.163990 0.563062 0.902744 0.186615
H93   H     H_    0.187391 0.598615 0.930791 0.210985
O128  O     O_3   0.561353 0.823402 0.989825 -0.562722
C200  C     C_3   0.580097 0.833112 0.941439 -0.204344
H94   H     H_    0.594805 0.856959 0.949482 0.157719
H95   H     H_    0.563503 0.836096 0.903464 0.186487
H96   H     H_    0.598905 0.812627 0.931875 0.210986

loop_
_geom_bond_atom_site_label_1
_geom_bond_atom_site_label_2
_geom_bond_distance
_ccdc_geom_bond_type
C138  C174  1.406486 A    
O127  C199  1.411764 S    
C136  C172  1.406491 A    
O25   C13   1.294827 A    
C192  H70   1.110358 S    
C95   C125  1.399259 A    
Cu11  Cu12  2.643643 S    
C87   C103  1.400401 A    
O43   C183  1.284762 A    
C10   C18   1.441334 S    
C36   N4    1.438092 S    
O33   C177  1.284747 A    
O45   Cu12  1.961278 S    
C14   C22   1.441334 S    
C40   C76   1.419561 A    
C191  H67   1.110364 S    
O18   Cu2   1.939877 S    
C58   H10   1.083584 S    
C100  N20   1.441108 S    
O6    Cu4   1.958938 S    
C200  H96   1.109199 S    
O41   C181  1.284761 A    
C96   C128  1.399223 A    
C40   N8    1.438085 S    
N24   O96   1.301512 A    
C156  C168  1.403123 A    
C46   C78   1.419562 A    
C2    C162  1.475861 S    
O19   Cu3   1.939877 S    
O128  C200  1.411772 S    
Cu1   Cu3   2.673726 S    
Cu2   Cu4   2.673725 S    
C83   C99   1.400415 A    
N12   O71   1.301138 A    
C88   H24   1.083357 S    
C158  H46   1.081868 S    
C82   H18   1.083354 S    
C134  C170  1.406488 A    
O33   Cu9   1.961278 S    
C146  C162  1.403132 A    
O5    Cu1   1.958941 S    
C66   C122  1.476833 S    
C111  C117  1.418035 A    
N26   O99   1.301190 A    
N21   O90   1.301485 A    
C83   C123  1.399188 A    
O122  C194  1.411768 S    
N4    O56   1.301347 A    
O40   C178  1.284768 A    
C112  N32   1.441123 S    
C140  O124  1.388241 S    
N11   O69   1.301131 A    
C44   C60   1.399820 A    
C46   N14   1.438103 S    
C110  C118  1.418034 A    
C145  H33   1.081856 S    
N15   O78   1.301351 A    
C92   C128  1.399225 A    
C185  H50   1.114655 S    
C42   N10   1.438102 S    
N8    O63   1.301147 A    
C99   N19   1.441131 S    
C135  O119  1.388224 S    
C42   C78   1.419564 A    
N32   O112  1.301501 A    
C120  C176  1.475537 S    
C156  H44   1.081870 S    
C86   C122  1.399217 A    
C81   H17   1.083340 S    
N14   O75   1.301133 A    
C84   H20   1.083356 S    
C47   C63   1.399822 A    
C54   C66   1.398522 A    
C85   H21   1.083360 S    
N2    O51   1.301132 A    
C199  H92   1.114655 S    
O26   Cu6   1.939877 S    
C148  C164  1.403133 A    
O113  C185  1.411764 S    
C192  H72   1.109199 S    
N31   O109  1.301193 A    
O27   C13   1.294832 A    
O8    Cu2   1.958941 S    
C141  C157  1.405628 A    
O31   C15   1.294831 A    
O32   C16   1.294828 A    
C44   N12   1.438096 S    
C41   C77   1.419522 A    
C191  H69   1.109203 S    
C159  H47   1.081857 S    
C53   C67   1.398492 A    
C34   C50   1.399825 A    
C151  H39   1.081860 S    
C188  H58   1.110356 S    
C15   C23   1.441332 S    
C130  O114  1.388234 S    
O9    C5    1.296612 A    
C89   H25   1.083342 S    
C38   C54   1.399821 A    
C95   H31   1.083341 S    
O11   C7    1.296616 A    
C111  N31   1.441141 S    
O22   C12   1.294830 A    
N20   O87   1.301184 A    
O16   Cu6   1.958941 S    
O114  C186  1.411766 S    
C33   C49   1.399821 A    
N15   O77   1.301134 A    
O4    C4    1.296635 A    
C91   C107  1.400401 A    
C76   C179  1.475908 S    
C107  C119  1.418036 A    
C153  C165  1.403118 A    
N23   O93   1.301191 A    
C198  H89   1.114674 S    
O41   Cu11  1.961278 S    
N11   O70   1.301353 A    
O117  C189  1.411758 S    
N25   O97   1.301188 A    
N8    O64   1.301345 A    
N10   O68   1.301348 A    
N30   O107  1.301189 A    
C194  H77   1.114676 S    
C135  C169  1.406498 A    
C197  H86   1.114656 S    
C135  C151  1.405628 A    
C109  C119  1.418034 A    
O119  C191  1.411763 S    
O21   Cu1   1.939880 S    
O121  C193  1.411764 S    
C115  C171  1.475556 S    
O23   C11   1.294831 A    
C144  O128  1.388254 S    
C39   N7    1.438117 S    
C4    C164  1.475881 S    
C197  H87   1.109204 S    
N24   O95   1.301185 A    
O115  C187  1.411758 S    
C94   H30   1.083351 S    
O13   C7    1.296613 A    
C37   C75   1.419561 A    
C37   C53   1.399837 A    
C8    C168  1.475846 S    
N28   O103  1.301183 A    
O2    Cu2   1.958938 S    
C19   C27   1.209349 T    
C52   H4    1.083590 S    
N5    O58   1.301349 A    
O17   Cu1   1.939877 S    
C190  H65   1.114678 S    
O28   C14   1.294828 A    
O126  C198  1.411767 S    
O42   C182  1.284734 A    
O29   C15   1.294828 A    
O30   C16   1.294830 A    
C11   C19   1.441332 S    
O29   Cu5   1.939880 S    
C70   C126  1.476853 S    
C51   C67   1.398491 A    
C138  C154  1.405640 A    
C68   C124  1.476779 S    
C196  H82   1.110354 S    
C145  C161  1.403114 A    
C48   C64   1.399820 A    
N6    O60   1.301348 A    
C193  H74   1.114654 S    
N17   O82   1.301480 A    
O24   C12   1.294828 A    
C37   N5    1.438097 S    
C9    C17   1.441334 S    
C92   H28   1.083352 S    
C147  H35   1.081852 S    
C93   H29   1.083345 S    
O116  C188  1.411773 S    
C187  H56   1.114660 S    
C188  H60   1.109200 S    
O45   C181  1.284762 A    
C137  O121  1.388224 S    
O124  C196  1.411770 S    
C160  H48   1.081863 S    
O47   C183  1.284761 A    
C90   C126  1.399225 A    
C196  H84   1.109200 S    
C81   C121  1.399265 A    
N1    O49   1.301138 A    
N3    O54   1.301351 A    
O39   C179  1.284755 A    
C83   H19   1.083361 S    
C77   C184  1.475782 S    
C88   C104  1.400413 A    
N22   O92   1.301504 A    
Cu9   Cu10  2.643643 S    
O3    C3    1.296641 A    
C152  H40   1.081873 S    
C141  O125  1.388226 S    
C189  H61   1.110367 S    
C150  C162  1.403132 A    
O120  C192  1.411776 S    
C36   C52   1.399828 A    
N16   O80   1.301347 A    
N7    O62   1.301349 A    
C46   C62   1.399816 A    
O18   C10   1.294830 A    
O22   Cu4   1.939879 S    
C101  C115  1.418059 A    
C60   C72   1.398520 A    
C95   C111  1.400405 A    
C136  O120  1.388250 S    
O23   Cu3   1.939879 S    
C187  H55   1.110369 S    
C62   C70   1.398525 A    
C71   C127  1.476977 S    
C137  C173  1.406499 A    
C88   C124  1.399202 A    
C136  C152  1.405655 A    
C25   C32   1.418017 S    
O46   Cu12  1.961278 S    
O12   C8    1.296626 A    
O32   Cu6   1.939880 S    
C27   C30   1.418017 S    
O38   C180  1.284728 A    
O14   C6    1.296625 A    
C191  H68   1.114656 S    
C38   C74   1.419566 A    
C91   H27   1.083344 S    
C36   C76   1.419571 A    
C3    C163  1.475904 S    
C134  C150  1.405641 A    
C1    C161  1.475798 S    
C61   C71   1.398563 A    
C94   C126  1.399224 A    
C35   N3    1.438097 S    
C63   C69   1.398564 A    
O48   C182  1.284734 A    
N29   O106  1.301477 A    
C152  C164  1.403134 A    
C5    C165  1.475802 S    
O30   Cu8   1.939879 S    
N18   O83   1.301178 A    
O47   Cu12  1.961274 S    
C49   H1    1.083572 S    
C110  N30   1.441121 S    
N12   O72   1.301350 A    
O36   Cu9   1.961277 S    
C80   C183  1.475885 S    
C53   H5    1.083589 S    
C42   C58   1.399820 A    
C91   C127  1.399261 A    
C60   H12   1.083584 S    
O37   C177  1.284773 A    
N26   O100  1.301497 A    
N21   O89   1.301183 A    
C34   N2    1.438104 S    
C94   C110  1.400403 A    
C109  N29   1.441143 S    
O10   C6    1.296629 A    
C90   H26   1.083352 S    
O46   C184  1.284734 A    
C132  C148  1.405655 A    
C86   H22   1.083353 S    
C74   C177  1.475873 S    
C52   C68   1.398499 A    
C59   H11   1.083574 S    
C106  C118  1.418033 A    
C186  H54   1.109204 S    
C16   C24   1.441334 S    
O2    C2    1.296633 A    
C153  H41   1.081857 S    
N27   O101  1.301188 A    
C39   C73   1.419519 A    
C195  H79   1.110366 S    
C85   C123  1.399187 A    
N9    O66   1.301350 A    
C143  C173  1.406495 A    
C157  C167  1.403116 A    
O44   Cu11  1.961277 S    
O31   Cu7   1.939879 S    
C131  C171  1.406482 A    
C28   C29   1.418017 S    
C108  N28   1.441125 S    
C112  C120  1.418038 A    
C104  C116  1.418037 A    
C55   C65   1.398566 A    
N2    O52   1.301349 A    
C198  H88   1.110362 S    
C92   C108  1.400402 A    
C43   C59   1.399818 A    
O21   C11   1.294828 A    
C93   C109  1.400401 A    
C192  H71   1.114699 S    
C67   C123  1.476766 S    
N16   O79   1.301138 A    
C131  O115  1.388234 S    
C142  O126  1.388236 S    
C187  H57   1.109204 S    
C65   C121  1.476985 S    
C96   H32   1.083352 S    
C129  O113  1.388225 S    
O13   Cu5   1.958941 S    
C82   C122  1.399216 A    
C33   C73   1.419523 A    
C48   C80   1.419562 A    
C57   C69   1.398564 A    
N19   O85   1.301182 A    
O3    Cu3   1.958941 S    
C59   C71   1.398566 A    
C54   H6    1.083587 S    
C104  N24   1.441110 S    
C73   C180  1.475779 S    
N3    O53   1.301140 A    
C72   C128  1.476853 S    
C39   C55   1.399821 A    
O28   Cu8   1.939878 S    
C51   H3    1.083591 S    
C103  C113  1.418037 A    
C26   C31   1.418017 S    
O35   C179  1.284780 A    
C98   C114  1.418040 A    
C117  C173  1.475544 S    
C79   C182  1.475782 S    
O48   Cu12  1.961273 S    
N20   O88   1.301513 A    
C193  H75   1.109202 S    
C144  C176  1.406491 A    
C113  C169  1.475540 S    
O4    Cu4   1.958942 S    
C93   C127  1.399261 A    
C43   N11   1.438120 S    
O118  C190  1.411768 S    
C103  N23   1.441143 S    
O17   C9    1.294827 A    
C142  C158  1.405639 A    
O11   Cu7   1.958941 S    
C132  O116  1.388248 S    
N30   O108  1.301497 A    
O44   C184  1.284734 A    
C44   C80   1.419561 A    
O1    C1    1.296612 A    
C142  C174  1.406488 A    
C107  N27   1.441141 S    
C17   C25   1.209347 T    
C158  C166  1.403127 A    
O38   Cu10  1.961278 S    
C186  H52   1.110361 S    
C87   H23   1.083342 S    
C185  H49   1.110366 S    
O5    C3    1.296638 A    
C131  C147  1.405651 A    
C139  C175  1.406495 A    
C195  H81   1.109204 S    
C61   H13   1.083572 S    
C97   C113  1.418035 A    
N25   O98   1.301478 A    
N32   O111  1.301184 A    
O7    Cu3   1.958937 S    
C137  C153  1.405628 A    
O43   Cu11  1.961274 S    
C132  C172  1.406490 A    
C47   N15   1.438117 S    
C49   C65   1.398564 A    
C12   C20   1.441334 S    
C38   N6    1.438110 S    
C114  C170  1.475537 S    
C13   C21   1.441332 S    
C159  C165  1.403112 A    
N28   O104  1.301500 A    
C154  H42   1.081864 S    
C50   H2    1.083587 S    
C129  C145  1.405629 A    
C140  C156  1.405637 A    
C58   C70   1.398520 A    
C199  H91   1.110366 S    
C20   C28   1.209349 T    
N5    O57   1.301138 A    
C149  H37   1.081852 S    
C102  N22   1.441123 S    
C133  O117  1.388235 S    
C134  O118  1.388229 S    
C64   H16   1.083582 S    
O14   Cu8   1.958938 S    
N7    O61   1.301138 A    
C82   C98   1.400406 A    
C186  H53   1.114678 S    
N13   O73   1.301129 A    
C47   C77   1.419523 A    
C160  C168  1.403129 A    
C45   N13   1.438120 S    
O123  C195  1.411761 S    
C185  H51   1.109203 S    
C86   C102  1.400402 A    
C101  N21   1.441130 S    
N17   O81   1.301190 A    
C56   H8    1.083592 S    
C90   C106  1.400403 A    
O8    C4    1.296638 A    
O36   C180  1.284737 A    
C143  C159  1.405632 A    
C143  O127  1.388222 S    
N14   O76   1.301348 A    
C130  C170  1.406485 A    
C155  H43   1.081858 S    
C188  H59   1.114697 S    
C87   C121  1.399266 A    
C78   C181  1.475881 S    
C33   N1    1.438119 S    
C133  C149  1.405652 A    
C196  H83   1.114675 S    
C193  H73   1.110363 S    
C200  H95   1.114698 S    
C18   C26   1.209349 T    
C149  C163  1.403139 A    
N27   O102  1.301479 A    
C64   C72   1.398516 A    
C198  H90   1.109204 S    
C130  C146  1.405642 A    
C40   C56   1.399832 A    
O42   Cu11  1.961274 S    
O39   Cu10  1.961274 S    
C189  H62   1.114660 S    
C62   H14   1.083586 S    
C194  H78   1.109203 S    
O40   Cu10  1.961273 S    
C138  O122  1.388236 S    
C197  H85   1.110364 S    
C69   C125  1.476977 S    
C84   C100  1.400409 A    
C43   C79   1.419521 A    
C139  C155  1.405632 A    
C85   C101  1.400415 A    
C50   C66   1.398522 A    
C22   C30   1.209349 T    
C116  C172  1.475545 S    
C35   C75   1.419560 A    
O34   C178  1.284759 A    
C129  C169  1.406498 A    
Cu5   Cu7   2.673726 S    
O25   Cu5   1.939877 S    
O6    C2    1.296629 A    
Cu6   Cu8   2.673725 S    
C105  C117  1.418036 A    
C56   C68   1.398499 A    
O27   Cu7   1.939877 S    
O35   Cu9   1.961274 S    
C146  H34   1.081868 S    
C189  H63   1.109203 S    
C7    C167  1.475802 S    
C108  C120  1.418033 A    
C155  C167  1.403113 A    
O7    C1    1.296616 A    
C150  H38   1.081871 S    
C119  C175  1.475544 S    
N31   O110  1.301476 A    
C89   C125  1.399263 A    
N19   O86   1.301487 A    
O19   C9    1.294832 A    
C190  H64   1.110360 S    
C199  H93   1.109206 S    
C154  C166  1.403130 A    
C200  H94   1.110367 S    
N13   O74   1.301351 A    
C190  H66   1.109202 S    
N23   O94   1.301480 A    
C48   N16   1.438098 S    
C84   C124  1.399203 A    
O24   Cu2   1.939880 S    
N29   O105  1.301188 A    
O12   Cu8   1.958942 S    
C45   C79   1.419521 A    
O26   C14   1.294830 A    
C105  N25   1.441142 S    
O15   Cu7   1.958937 S    
O125  C197  1.411763 S    
C34   C74   1.419555 A    
C96   C112  1.400400 A    
C57   H9    1.083574 S    
C45   C61   1.399822 A    
N6    O59   1.301127 A    
C133  C171  1.406485 A    
C21   C29   1.209349 T    
N4    O55   1.301141 A    
C140  C176  1.406492 A    
C81   C97   1.400405 A    
C148  H36   1.081874 S    
C63   H15   1.083573 S    
C23   C31   1.209349 T    
C97   N17   1.441141 S    
C35   C51   1.399833 A    
C99   C115  1.418059 A    
N10   O67   1.301132 A    
C118  C174  1.475529 S    
C106  N26   1.441122 S    
C157  H45   1.081858 S    
O37   Cu10  1.961278 S    
N1    O50   1.301352 A    
C55   H7    1.083572 S    
C102  C114  1.418037 A    
O20   Cu4   1.939878 S    
C41   N9    1.438117 S    
C41   C57   1.399822 A    
C100  C116  1.418036 A    
O20   C10   1.294828 A    
N22   O91   1.301181 A    
C144  C160  1.405654 A    
C195  H80   1.114654 S    
O34   Cu9   1.961274 S    
C24   C32   1.209349 T    
N9    O65   1.301130 A    
O10   Cu6   1.958938 S    
C6    C166  1.475846 S    
C98   N18   1.441127 S    
C139  O123  1.388224 S    
C194  H76   1.110359 S    
O15   C5    1.296616 A    
O9    Cu5   1.958937 S    
C141  C175  1.406498 A    
O16   C8    1.296629 A    
C151  C161  1.403113 A    
N18   O84   1.301506 A    
C89   C105  1.400401 A    
O1    Cu1   1.958937 S    
C75   C178  1.475892 S    
C147  C163  1.403145 A    
