data_mof_unit_15852.cif
_audit_creation_date              2012-12-11T15:57:49-0500
_audit_creation_method            fapswitch 2.2
_symmetry_space_group_name_H-M    P1
_symmetry_Int_Tables_number       1
_space_group_crystal_system       triclinic
_cell_length_a                    10.724759
_cell_length_b                    10.818247
_cell_length_c                    17.051438
_cell_angle_alpha                 100.02671
_cell_angle_beta                  99.564271
_cell_angle_gamma                 61.34476
_cell_volume                      1701.69770949

loop_
_atom_site_label
_atom_site_type_symbol
_atom_type_description
_atom_site_fract_x
_atom_site_fract_y
_atom_site_fract_z
_atom_type_partial_charge
C1    C     C_R   0.355391 0.774491 0.401632 0.564646
C2    C     C_2   0.321923 0.305266 0.812138 -0.054082
C3    C     C_2   0.365840 0.190755 0.755984 0.249180
C4    C     C_R   0.369706 0.346295 0.357314 0.537204
C5    C     C_2   0.382535 0.203265 0.675251 -0.120820
C6    C     C_1   0.814202 0.343924 0.709325 -0.056399
C7    C     C_1   0.842425 0.314072 0.776600 -0.037378
C8    C     C_1   0.358623 0.762625 0.713471 -0.016905
C9    C     C_1   0.326037 0.809840 0.780475 -0.006683
C10   C     C_R   0.895294 0.308199 0.087556 0.546253
C11   C     C_R   0.317983 0.298384 0.120172 0.524541
C12   C     C_2   0.832183 0.331491 0.161939 0.265099
C13   C     C_R   0.293998 0.892060 0.084068 0.559536
C14   C     C_R   0.885889 0.296647 0.858628 0.552060
C15   C     C_R   0.305303 0.286880 0.890629 0.554230
C16   C     C_R   0.778031 0.375659 0.405782 0.555579
C17   C     C_R   0.280705 0.880472 0.857275 0.560768
C18   C     C_R   0.381408 0.713783 0.631156 0.561798
C19   C     C_R   0.365128 0.346714 0.579437 0.560177
C20   C     C_R   0.770106 0.382913 0.630347 0.518094
C21   C     C_1   0.342429 0.335275 0.274161 -0.044958
C22   C     C_1   0.330198 0.325187 0.203404 -0.043238
C23   C     C_2   0.867692 0.216937 0.198843 -0.134408
C24   C     C_2   0.857578 0.322301 0.336411 -0.079768
C25   C     C_3   0.068593 0.407565 0.652334 -0.098875
C26   C     C_3   0.805938 0.556124 0.210609 -0.086991
C27   C     C_3   0.575558 0.964770 0.257910 -0.109649
C28   C     C_3   0.315407 0.623436 0.126774 -0.108221
C29   C     C_3   0.541738 0.963501 0.770764 -0.085253
C30   C     C_2   0.833498 0.231373 0.279829 -0.129715
C31   C     C_2   0.335145 0.845827 0.332515 -0.110564
C32   C     C_2   0.345662 0.820582 0.156883 0.288491
C33   C     C_2   0.435776 0.849322 0.213614 0.254983
C34   C     C_2   0.449742 0.812715 0.295153 -0.121894
C35   C     C_2   0.303842 0.321751 0.639920 0.217223
Cr1   Cr    Cr6+3 0.608020 0.610770 0.522990 1.005929
Cr2   Cr    Cr6+3 0.289390 0.599570 0.488050 1.044977
Cr3   Cr    Cr6+3 0.602610 0.289690 0.489020 1.005515
Cr4   Cr    Cr6+3 0.053780 0.052210 0.965970 1.029128
Cr5   Cr    Cr6+3 0.060060 0.372530 0.992430 1.019316
Cr6   Cr    Cr6+3 0.372600 0.061970 0.991430 1.063330
H1    H     H_    0.929015 0.109720 0.171256 0.131595
H2    H     H_    0.977963 0.495867 0.682500 0.176323
H3    H     H_    0.769498 0.626756 0.266275 0.123765
H4    H     H_    0.771832 0.623664 0.161219 0.183025
H5    H     H_    0.924761 0.498397 0.220577 0.108048
H6    H     H_    0.666837 0.883620 0.292030 0.095695
H7    H     H_    0.491143 0.037899 0.297576 0.140254
H8    H     H_    0.615511 0.028251 0.235429 0.159892
H9    H     H_    0.428583 0.548279 0.143924 0.151971
H10   H     H_    0.298585 0.635577 0.061798 0.117143
H11   H     H_    0.247234 0.578395 0.137100 0.163171
H12   H     H_    0.469709 0.114265 0.645777 0.110322
H13   H     H_    0.611163 0.014320 0.795783 0.108769
H14   H     H_    0.564634 0.914130 0.708621 0.125931
H15   H     H_    0.570786 0.876751 0.807488 0.146911
H16   H     H_    0.300417 0.409734 0.801297 0.109798
H17   H     H_    0.777936 0.175154 0.290517 0.143982
H18   H     H_    0.917395 0.373887 0.325451 0.110000
H19   H     H_    0.556753 0.752163 0.322819 0.145097
H20   H     H_    0.227494 0.907636 0.305593 0.136022
H21   H     H_    0.089163 0.307994 0.674541 0.122084
H22   H     H_    0.038112 0.403755 0.586626 0.136046
O1    O     O_R   0.749250 0.499990 0.439200 -0.517765
O2    O     O_R   0.411120 0.181190 0.091480 -0.490515
O3    O     O_R   0.364220 0.944920 0.062310 -0.469342
O4    O     O_R   0.477870 0.725740 0.440280 -0.497700
O5    O     O_R   0.158740 0.906940 0.874970 -0.509988
O6    O     O_R   0.930920 0.176940 0.885610 -0.490982
O7    O     O_R   0.910730 0.394510 0.895320 -0.511214
O8    O     O_R   0.185840 0.361180 0.920280 -0.501382
O9    O     O_R   0.399210 0.173040 0.915160 -0.478889
O10   O     O_R   0.353170 0.937370 0.898860 -0.477325
O11   O     O_3   0.162150 0.162240 0.983280 -0.259318
O12   O     O_R   0.299400 0.468710 0.556310 -0.478502
O13   O     O_R   0.260770 0.742210 0.412610 -0.497866
O14   O     O_R   0.297990 0.466320 0.394220 -0.495710
O15   O     O_R   0.487720 0.253870 0.385870 -0.537440
O16   O     O_R   0.721940 0.304340 0.422320 -0.497116
O17   O     O_R   0.750770 0.502570 0.614050 -0.544792
O18   O     O_R   0.479280 0.728140 0.602370 -0.502423
O19   O     O_R   0.262290 0.744790 0.587460 -0.494055
O20   O     O_3   0.185658 0.435434 0.671834 -0.593394
O21   O     O_3   0.740653 0.466534 0.195561 -0.584119
O22   O     O_3   0.521607 0.900177 0.191879 -0.573549
O23   O     O_R   0.489240 0.256450 0.560730 -0.549485
O24   O     O_3   0.273490 0.753559 0.175132 -0.607565
O25   O     O_3   0.394605 0.058437 0.773767 -0.537402
O26   O     O_R   0.723350 0.306730 0.584410 -0.489276
O27   O     O_3   0.500010 0.500010 0.500020 -0.269262
O28   O     O_R   0.170650 0.915100 0.051290 -0.513641
O29   O     O_R   0.941960 0.184500 0.049060 -0.525663
O30   O     O_R   0.922640 0.402670 0.071640 -0.521638
O31   O     O_R   0.196880 0.368740 0.083740 -0.520783

loop_
_geom_bond_atom_site_label_1
_geom_bond_atom_site_label_2
_ccdc_geom_bond_type
C27   H7    S    
C34   H19   S    
Cr5   O8    S    
Cr4   O5    S    
C31   H20   S    
C13   C32   S    
C29   H14   S    
Cr5   O30   S    
C19   O23   A    
C25   H2    S    
Cr1   O4    S    
C26   H3    S    
C15   O9    A    
Cr3   O26   S    
C23   H1    S    
Cr5   O7    S    
Cr2   O27   S    
Cr3   O23   S    
C5    H12   S    
C28   H10   S    
Cr3   O16   S    
Cr1   O27   S    
C5    C35   D    
C1    C31   S    
C18   O18   A    
C12   O21   S    
C25   H22   S    
Cr4   O11   S    
C27   O22   S    
C33   O22   S    
C29   O25   S    
C26   H4    S    
C18   O19   A    
Cr6   O11   S    
C28   H9    S    
C7    C14   S    
C8    C9    T    
Cr2   O12   S    
C10   O29   A    
C16   C24   S    
C21   C22   T    
C13   O28   A    
C17   O10   A    
C14   O7    A    
Cr4   O28   S    
C13   O3    A    
C2    H16   S    
C20   O17   A    
C23   C30   S    
Cr1   O17   S    
C35   O20   S    
Cr6   O2    S    
Cr3   O15   S    
C10   O30   A    
C32   O24   S    
Cr2   O14   S    
C8    C18   S    
C4    O15   A    
C12   C23   D    
Cr1   O18   S    
C28   O24   S    
C33   C34   S    
Cr4   O6    S    
C31   C34   D    
C2    C15   S    
Cr6   O3    S    
C10   C12   S    
Cr6   O9    S    
C11   O31   A    
C9    C17   S    
Cr2   O13   S    
C14   O6    A    
Cr2   O19   S    
Cr4   O29   S    
C15   O8    A    
C27   H6    S    
C17   O5    A    
C26   O21   S    
C3    O25   S    
C1    O13   A    
Cr5   O31   S    
C3    C5    S    
C6    C7    T    
C29   H15   S    
C6    C20   S    
C20   O26   A    
Cr3   O27   S    
C11   C22   S    
C16   O16   A    
C32   C33   D    
C19   O12   A    
C2    C3    D    
C4    O14   A    
C19   C35   S    
C4    C21   S    
C28   H11   S    
C24   H18   S    
C30   H17   S    
C1    O4    A    
Cr5   O11   S    
C25   H21   S    
C24   C30   D    
C26   H5    S    
Cr6   O10   S    
C27   H8    S    
C29   H13   S    
C25   O20   S    
C16   O1    A    
Cr1   O1    S    
C11   O2    A    
