data_mof_unit_68236.cif
_audit_creation_date              2012-12-11T17:19:17-0500
_audit_creation_method            fapswitch 2.2
_symmetry_space_group_name_H-M    P1
_symmetry_Int_Tables_number       1
_space_group_crystal_system       triclinic
_cell_length_a                    15.176521
_cell_length_b                    7.39962
_cell_length_c                    13.546837
_cell_angle_alpha                 91.114433
_cell_angle_beta                  100.918896
_cell_angle_gamma                 89.043694
_cell_volume                      1493.36132313

loop_
_atom_site_label
_atom_site_type_symbol
_atom_type_description
_atom_site_fract_x
_atom_site_fract_y
_atom_site_fract_z
_atom_type_partial_charge
O1    O     O_R   0.648180 0.355050 0.151550 -0.558164
O2    O     O_R   0.351820 0.644950 0.848450 -0.558177
O3    O     O_R   0.851820 0.855050 0.348450 -0.557170
O4    O     O_R   0.148180 0.144950 0.651550 -0.557168
O5    O     O_R   0.835240 0.681980 0.154280 -0.519350
O6    O     O_R   0.164760 0.318020 0.845720 -0.519317
O7    O     O_R   0.664760 0.181980 0.345720 -0.530514
O8    O     O_R   0.335240 0.818020 0.654280 -0.530516
C1    C     C_R   0.859335 0.515300 0.127980 0.731303
C2    C     C_R   0.140663 0.484696 0.872020 0.731351
C3    C     C_R   0.638241 0.018185 0.369632 0.742535
C4    C     C_R   0.361763 0.981817 0.630371 0.742459
O9    O     O_R   0.647870 0.684600 0.139630 -0.533766
O10   O     O_R   0.352130 0.315400 0.860370 -0.533745
O11   O     O_R   0.852130 0.184600 0.360370 -0.527951
O12   O     O_R   0.147870 0.815400 0.639630 -0.528034
O13   O     O_R   0.663110 0.857440 0.333700 -0.510730
O14   O     O_R   0.336890 0.142560 0.666300 -0.510709
O15   O     O_R   0.836890 0.357440 0.166300 -0.526767
O16   O     O_R   0.163110 0.642560 0.833700 -0.526820
C5    C     C_R   0.614461 0.516011 0.114632 0.724049
C6    C     C_R   0.385544 0.483988 0.885360 0.724125
C7    C     C_R   0.885159 0.016408 0.386051 0.719629
C8    C     C_R   0.114840 0.983591 0.613950 0.719585
O17   O     O_3   0.755220 0.522230 0.313690 -0.385434
O18   O     O_3   0.244780 0.477770 0.686310 -0.385384
O19   O     O_3   0.744780 0.022230 0.186310 -0.383070
O20   O     O_3   0.255220 0.977770 0.813690 -0.383058
V1    V     V_3+5 0.749030 0.796100 0.238190 1.460778
V2    V     V_3+5 0.250970 0.203900 0.761810 1.460898
V3    V     V_3+5 0.750970 0.296100 0.261810 1.437203
V4    V     V_3+5 0.249030 0.703900 0.738190 1.437157
C9    C     C_1   0.966505 0.006505 0.466288 -0.182950
C10   C     C_1   0.033494 0.993499 0.533710 -0.183060
C11   C     C_1   0.533422 0.505083 0.033853 -0.159715
C12   C     C_1   0.466589 0.494918 0.966131 -0.159748
C13   C     C_R   0.554211 0.078801 0.712325 0.199483
C14   C     C_R   0.445797 0.921279 0.287674 0.199427
C15   C     C_R   0.949991 0.574230 0.787601 0.235553
C16   C     C_R   0.049981 0.425576 0.212376 0.235630
C17   C     C_R   0.646006 0.105921 0.751707 0.293489
C18   C     C_R   0.354007 0.894163 0.248291 0.293312
C19   C     C_R   0.859923 0.610445 0.744790 0.296530
C20   C     C_R   0.140046 0.389356 0.255183 0.296790
C21   C     C_R   0.705911 0.131827 0.687129 -0.039553
C22   C     C_R   0.294105 0.868187 0.312855 -0.039527
C23   C     C_R   0.794921 0.619887 0.804169 -0.108504
C24   C     C_R   0.205062 0.380015 0.195825 -0.108256
C25   C     C_R   0.671010 0.144372 0.583301 -0.177351
C26   C     C_R   0.328995 0.855649 0.416686 -0.177539
C27   C     C_R   0.822793 0.622687 0.909351 -0.171772
C28   C     C_R   0.177205 0.377299 0.090643 -0.171771
C29   C     C_R   0.586849 0.066382 0.540708 -0.000221
C30   C     C_R   0.413156 0.933637 0.459292 -0.000150
C31   C     C_R   0.910592 0.559379 0.956750 -0.051542
C32   C     C_R   0.089402 0.440583 0.043243 -0.051524
C33   C     C_R   0.523517 0.043486 0.606227 0.053618
C34   C     C_R   0.476489 0.956550 0.393774 0.053609
C35   C     C_R   0.977504 0.540808 0.894021 0.003588
C36   C     C_R   0.022480 0.459102 0.105966 0.003624
C37   C     C_R   0.565942 0.015766 0.435137 -0.093998
C38   C     C_R   0.434062 0.984245 0.564866 -0.093967
C39   C     C_R   0.931441 0.510392 0.062276 -0.103162
C40   C     C_R   0.068552 0.489580 0.937719 -0.103139
N1    N     N_2   0.679362 0.086229 0.856600 -0.484252
H1    H     H_    0.643711 0.002348 0.891199 0.269244
C41   C     C_3   0.704924 0.245094 0.917123 -0.419801
H2    H     H_    0.645429 0.331415 0.920525 0.211819
H3    H     H_    0.756646 0.315710 0.887090 0.207780
H4    H     H_    0.734553 0.205824 0.995030 0.222173
N2    N     N_2   0.320648 0.913835 0.143401 -0.484327
H5    H     H_    0.356260 0.997827 0.108821 0.269261
C42   C     C_3   0.295185 0.754926 0.082879 -0.419708
H6    H     H_    0.354728 0.668719 0.079521 0.211806
H7    H     H_    0.265568 0.794153 0.004961 0.222144
H8    H     H_    0.243485 0.684188 0.112888 0.207786
N3    N     N_2   0.833919 0.624711 0.638694 -0.519074
H9    H     H_    0.771842 0.578969 0.607505 0.297643
C43   C     C_3   0.855714 0.786143 0.591820 -0.483723
H10   H     H_    0.892616 0.742366 0.532634 0.190547
H11   H     H_    0.897591 0.878815 0.645754 0.200288
H12   H     H_    0.793559 0.858953 0.556308 0.208027
N4    N     N_2   0.166037 0.375230 0.361281 -0.519041
H13   H     H_    0.228048 0.421317 0.392450 0.297690
C44   C     C_3   0.144454 0.213648 0.408181 -0.483688
H14   H     H_    0.107695 0.257244 0.467518 0.190608
H15   H     H_    0.206698 0.140940 0.443510 0.208147
H16   H     H_    0.102526 0.120941 0.354313 0.200176
N5    N     N_2   0.494383 0.100665 0.780736 -0.524387
H17   H     H_    0.504173 0.218320 0.822992 0.265787
C45   C     C_3   0.480755 0.945917 0.839424 -0.496373
H18   H     H_    0.409227 0.936581 0.839257 0.250192
H19   H     H_    0.511792 0.966456 0.919506 0.135609
H20   H     H_    0.505661 0.818249 0.809171 0.204024
N6    N     N_2   0.505631 0.899375 0.219270 -0.524346
H21   H     H_    0.495863 0.781670 0.177058 0.265792
C46   C     C_3   0.519242 0.054064 0.160534 -0.496430
H22   H     H_    0.590767 0.063386 0.160673 0.250183
H23   H     H_    0.494347 0.181762 0.190765 0.204014
H24   H     H_    0.488183 0.033455 0.080464 0.135629
N7    N     N_2   0.012240 0.576377 0.721468 -0.520679
H25   H     H_    0.016652 0.699533 0.689574 0.262448
C47   C     C_3   0.011926 0.426144 0.651882 -0.367671
H26   H     H_    0.070356 0.437646 0.614414 0.172972
H27   H     H_    0.951657 0.427789 0.591691 0.219368
H28   H     H_    0.015829 0.297329 0.692894 0.221434
N8    N     N_2   0.987743 0.423411 0.278522 -0.520550
H29   H     H_    0.983426 0.300288 0.310496 0.262435
C48   C     C_3   0.988039 0.573704 0.348069 -0.367650
H30   H     H_    0.929597 0.562238 0.385516 0.173033
H31   H     H_    0.984153 0.702493 0.307035 0.221339
H32   H     H_    0.048293 0.572085 0.408283 0.219226
C49   C     C_2   0.195542 0.865865 0.270645 0.761652
O21   O     O_2   0.144799 0.778129 0.309385 -0.581596
O22   O     O_R   0.159705 0.969190 0.186808 -0.632802
H33   H     H_    0.092247 0.957280 0.165828 0.294046
C50   C     C_2   0.804488 0.133975 0.729301 0.761693
O23   O     O_2   0.855276 0.221322 0.690416 -0.581569
O24   O     O_R   0.840290 0.030866 0.813238 -0.632755
H34   H     H_    0.907764 0.042598 0.834158 0.294032
C51   C     C_2   0.301989 0.359559 0.245488 0.789796
O25   O     O_2   0.324334 0.249257 0.311445 -0.567730
O26   O     O_R   0.366738 0.474433 0.222343 -0.674109
H35   H     H_    0.428555 0.451947 0.264376 0.295556
C52   C     C_2   0.697997 0.640408 0.754534 0.789878
O27   O     O_2   0.675642 0.750841 0.688652 -0.567752
O28   O     O_R   0.633256 0.525455 0.777627 -0.674138
H36   H     H_    0.571429 0.547998 0.735635 0.295550
C53   C     C_2   0.702334 0.294549 0.530887 0.787115
O29   O     O_2   0.650161 0.417778 0.499811 -0.542207
O30   O     O_R   0.789708 0.293900 0.513432 -0.640641
H37   H     H_    0.804457 0.407350 0.479944 0.311971
C54   C     C_2   0.297620 0.705562 0.469110 0.787087
O31   O     O_2   0.349755 0.582295 0.500219 -0.542127
O32   O     O_R   0.210231 0.706315 0.486521 -0.640766
H38   H     H_    0.195453 0.592901 0.520027 0.311937
C55   C     C_2   0.765394 0.733833 0.961756 0.826283
O33   O     O_2   0.793741 0.875985 0.002027 -0.518931
O34   O     O_R   0.675899 0.687890 0.953943 -0.684976
H39   H     H_    0.638983 0.784492 0.981076 0.276953
C56   C     C_2   0.234626 0.266224 0.038236 0.826133
O35   O     O_2   0.206313 0.124043 0.997973 -0.518929
O36   O     O_R   0.324107 0.312258 0.046048 -0.684952
H40   H     H_    0.361060 0.215667 0.018961 0.276941

loop_
_geom_bond_atom_site_label_1
_geom_bond_atom_site_label_2
_ccdc_geom_bond_type
O17   V3    S    
O1    C5    A    
N7    H25   S    
C16   C36   A    
C31   C35   A    
O19   V1    S    
O13   V1    S    
C42   H6    S    
O3    C7    A    
N6    H21   S    
C17   N1    S    
C20   N4    S    
O15   V3    S    
C46   H22   S    
O32   H38   S    
N3    H9    S    
O7    C3    A    
C55   O34   S    
C35   C40   A    
C26   C30   A    
C36   C39   A    
O9    V1    S    
C14   C18   A    
C48   H31   S    
C30   C34   A    
O4    C8    A    
O22   H33   S    
O1    V3    S    
O2    V4    S    
C18   C22   A    
O3    V1    S    
C14   C34   A    
C29   C37   A    
C1    O15   A    
C11   C12   T    
C2    O16   A    
C7    C9    S    
C31   C39   A    
C14   N6    S    
O2    C6    A    
N8    H29   S    
C32   C40   A    
C23   C52   S    
O14   V2    S    
N5    C45   S    
C16   C20   A    
O26   H35   S    
C34   C37   A    
O11   C7    A    
O12   C8    A    
C54   O32   S    
N8    C48   S    
O10   V2    S    
C46   H23   S    
C15   N7    S    
O5    V1    S    
N3    C43   S    
O7    V3    S    
C44   H15   S    
C41   H2    S    
O8    V4    S    
C33   C38   A    
C48   H32   S    
C24   C51   S    
N2    C42   S    
C29   C33   A    
O18   V4    S    
C23   C27   A    
C30   C38   A    
N1    C41   S    
C44   H14   S    
C25   C53   S    
C8    C10   S    
C32   C36   A    
C41   H3    S    
C56   O36   S    
O5    C1    A    
C45   H19   S    
C4    C38   S    
N4    H13   S    
C21   C25   A    
O8    C4    A    
C15   C35   A    
C9    C10   T    
O9    C5    A    
C47   H27   S    
O24   H34   S    
C51   O25   D    
C16   N8    S    
C27   C55   S    
N4    C44   S    
C52   O27   D    
C42   H8    S    
O12   V4    S    
C42   H7    S    
O28   H36   S    
C45   H18   S    
C46   H24   S    
C43   H11   S    
C49   O21   D    
O16   V4    S    
C44   H16   S    
C21   C50   S    
C3    O13   A    
C22   C49   S    
O6    V2    S    
C1    C39   S    
C2    C40   S    
C3    C37   S    
C26   C54   S    
O6    C2    A    
C43   H12   S    
C15   C19   A    
O34   H39   S    
N6    C46   S    
O11   V3    S    
C5    C11   S    
C19   N3    S    
C6    C12   S    
C55   O33   D    
C22   C26   A    
C50   O23   D    
C28   C56   S    
C13   N5    S    
C41   H4    S    
O10   C6    A    
C50   O24   S    
C53   O29   D    
N2    H5    S    
C56   O35   D    
C45   H20   S    
C54   O31   D    
C28   C32   A    
C25   C29   A    
O20   V2    S    
C18   N2    S    
C47   H28   S    
C27   C31   A    
C13   C17   A    
O30   H37   S    
O4    V2    S    
C51   O26   S    
C43   H10   S    
C20   C24   A    
C24   C28   A    
N7    C47   S    
N1    H1    S    
C4    O14   A    
C47   H26   S    
C52   O28   S    
C17   C21   A    
C53   O30   S    
N5    H17   S    
C48   H30   S    
C19   C23   A    
C13   C33   A    
O36   H40   S    
C49   O22   S    
