data_mof_unit_9583.cif
_audit_creation_date              2012-12-11T16:15:58-0500
_audit_creation_method            fapswitch 2.2
_symmetry_space_group_name_H-M    P1
_symmetry_Int_Tables_number       1
_space_group_crystal_system       triclinic
_cell_length_a                    30.209369
_cell_length_b                    30.08244
_cell_length_c                    32.334161
_cell_angle_alpha                 89.616234
_cell_angle_beta                  89.80767
_cell_angle_gamma                 89.996105
_cell_volume                      29383.5402647

loop_
_atom_site_label
_atom_site_type_symbol
_atom_type_description
_atom_site_fract_x
_atom_site_fract_y
_atom_site_fract_z
_atom_type_partial_charge
C1    C     C_R   0.953370 0.098819 0.075362 -0.142945
C2    C     C_R   0.047120 0.901727 0.924008 -0.134682
C3    C     C_R   0.110510 0.058015 0.059709 -0.173094
C4    C     C_R   0.892290 0.943789 0.934560 -0.099201
C5    C     C_R   0.045964 0.901024 0.075635 -0.141770
C6    C     C_R   0.953291 0.098267 0.923664 -0.122660
C7    C     C_R   0.888603 0.940424 0.057935 -0.128840
C8    C     C_R   0.106788 0.055346 0.932808 -0.133374
C9    C     C_R   0.944514 0.892014 0.934865 -0.197612
C10   C     C_R   0.058634 0.110261 0.060628 -0.109821
C11   C     C_R   0.100019 0.952827 0.925467 -0.137335
C12   C     C_R   0.901069 0.046346 0.075582 -0.134003
C13   C     C_R   0.055062 0.107540 0.933552 -0.151332
C14   C     C_R   0.940661 0.888427 0.058255 -0.140974
C15   C     C_R   0.900974 0.046596 0.924872 -0.148988
C16   C     C_R   0.098566 0.953148 0.075682 -0.136369
C17   C     C_R   0.450128 0.602750 0.571740 -0.147017
C18   C     C_R   0.559910 0.388239 0.442992 -0.154009
C19   C     C_R   0.611038 0.559307 0.558458 -0.125851
C20   C     C_R   0.405278 0.457421 0.422117 -0.140693
C21   C     C_R   0.550247 0.396323 0.571219 -0.148557
C22   C     C_R   0.440498 0.611982 0.442707 -0.162603
C23   C     C_R   0.388847 0.440473 0.558502 -0.130249
C24   C     C_R   0.600389 0.548114 0.425616 -0.078142
C25   C     C_R   0.456991 0.404672 0.422519 -0.139661
C26   C     C_R   0.558591 0.611149 0.558858 -0.137576
C27   C     C_R   0.611631 0.440489 0.442649 -0.137259
C28   C     C_R   0.397866 0.549989 0.572788 -0.126925
C29   C     C_R   0.547476 0.600149 0.425266 -0.170487
C30   C     C_R   0.441300 0.388677 0.559060 -0.139329
C31   C     C_R   0.388317 0.560259 0.443367 -0.140757
C32   C     C_R   0.602483 0.449079 0.572238 -0.126378
C33   C     C_R   0.163432 0.204514 0.101660 0.539832
C34   C     C_R   0.906897 0.870366 0.805579 0.554861
C35   C     C_R   0.149981 0.882492 0.189011 0.514666
C36   C     C_R   0.882172 0.144497 0.808413 0.486003
C37   C     C_R   0.794383 0.827742 0.062422 0.547402
C38   C     C_R   0.162372 0.141684 0.827551 0.520259
C39   C     C_R   0.848548 0.118009 0.187706 0.514116
C40   C     C_R   0.121294 0.853976 0.811124 0.494882
C41   C     C_R   0.702547 0.675158 0.562876 0.551133
C42   C     C_R   0.363141 0.406196 0.300070 0.488870
C43   C     C_R   0.678686 0.354895 0.651004 0.544206
C44   C     C_R   0.290635 0.669009 0.437352 0.528776
C45   C     C_R   0.298584 0.323316 0.560113 0.547547
C46   C     C_R   0.577511 0.618309 0.291283 0.560032
C47   C     C_R   0.323024 0.642635 0.653548 0.542999
C48   C     C_R   0.710118 0.332540 0.435696 0.531511
C49   C     C_R   0.131018 0.175768 0.086218 -0.416346
C50   C     C_R   0.920108 0.882991 0.845128 -0.443000
C51   C     C_R   0.137007 0.899811 0.150585 -0.399968
C52   C     C_R   0.905747 0.133105 0.844137 -0.363762
C53   C     C_R   0.827514 0.859164 0.054202 -0.406882
C54   C     C_R   0.148965 0.126728 0.866756 -0.407404
C55   C     C_R   0.861707 0.100093 0.149724 -0.409477
C56   C     C_R   0.096837 0.865869 0.846189 -0.397360
C57   C     C_R   0.670736 0.642447 0.554968 -0.409191
C58   C     C_R   0.375028 0.423674 0.338354 -0.392077
C59   C     C_R   0.655455 0.387722 0.629187 -0.404447
C60   C     C_R   0.324690 0.638808 0.446144 -0.398372
C61   C     C_R   0.330477 0.356318 0.552960 -0.419497
C62   C     C_R   0.565460 0.604949 0.331383 -0.465272
C63   C     C_R   0.345685 0.610100 0.631131 -0.402907
C64   C     C_R   0.676095 0.362634 0.444700 -0.394919
C65   C     C_R   0.133715 0.129808 0.093390 -0.092820
C66   C     C_R   0.889150 0.886935 0.877278 -0.009376
C67   C     C_R   0.092206 0.905890 0.141361 -0.099558
C68   C     C_R   0.907535 0.088872 0.857365 -0.067488
C69   C     C_R   0.864145 0.863339 0.080409 -0.111035
C70   C     C_R   0.106824 0.108713 0.872570 -0.083096
C71   C     C_R   0.906535 0.093451 0.140817 -0.096486
C72   C     C_R   0.095157 0.910207 0.858571 -0.098232
C73   C     C_R   0.634254 0.636595 0.581346 -0.106942
C74   C     C_R   0.417989 0.417890 0.353483 -0.090928
C75   C     C_R   0.609329 0.385437 0.625775 -0.102071
C76   C     C_R   0.363425 0.637815 0.422074 -0.100379
C77   C     C_R   0.365302 0.362842 0.580814 -0.102917
C78   C     C_R   0.597658 0.598504 0.361927 -0.024348
C79   C     C_R   0.391832 0.611739 0.627477 -0.102579
C80   C     C_R   0.636949 0.363293 0.421449 -0.104164
C81   C     C_R   0.169580 0.112217 0.116493 0.341419
C82   C     C_R   0.844123 0.878603 0.870181 0.351705
C83   C     C_R   0.059584 0.897725 0.172254 0.344870
C84   C     C_R   0.892133 0.054611 0.830936 0.336257
C85   C     C_R   0.868589 0.834876 0.115279 0.352957
C86   C     C_R   0.077641 0.103794 0.838452 0.373014
C87   C     C_R   0.938928 0.101509 0.171626 0.339520
C88   C     C_R   0.111852 0.944102 0.831885 0.334246
C89   C     C_R   0.628473 0.664722 0.615948 0.353920
C90   C     C_R   0.451462 0.400829 0.327012 0.336495
C91   C     C_R   0.585620 0.353196 0.649138 0.323500
C92   C     C_R   0.369257 0.669096 0.389444 0.347842
C93   C     C_R   0.369272 0.335227 0.616291 0.354945
C94   C     C_R   0.642695 0.604844 0.352603 0.350039
C95   C     C_R   0.416122 0.642633 0.651329 0.324196
C96   C     C_R   0.630683 0.331811 0.389501 0.345637
C97   C     C_R   0.204251 0.140445 0.128327 0.445433
C98   C     C_R   0.830952 0.862583 0.830868 0.333137
C99   C     C_R   0.072576 0.879402 0.210732 0.459985
C100  C     C_R   0.866517 0.066153 0.796071 0.453722
C101  C     C_R   0.835103 0.803193 0.123571 0.423558
C102  C     C_R   0.090938 0.119465 0.799148 0.455871
C103  C     C_R   0.925765 0.120465 0.209600 0.456248
C104  C     C_R   0.138268 0.932045 0.797694 0.455265
C105  C     C_R   0.660668 0.697591 0.624011 0.417292
C106  C     C_R   0.438957 0.380785 0.289480 0.462691
C107  C     C_R   0.608896 0.317716 0.667504 0.452670
C108  C     C_R   0.335090 0.699996 0.381001 0.426885
C109  C     C_R   0.336859 0.302220 0.623702 0.416673
C110  C     C_R   0.654792 0.621531 0.313031 0.324095
C111  C     C_R   0.393469 0.677818 0.670533 0.452257
C112  C     C_R   0.664776 0.300962 0.380923 0.426540
C113  C     C_R   0.200040 0.186596 0.122508 -0.008583
C114  C     C_R   0.862444 0.859611 0.798724 0.042496
C115  C     C_R   0.117586 0.871394 0.218547 0.006313
C116  C     C_R   0.859815 0.111125 0.786572 0.022849
C117  C     C_R   0.797981 0.800393 0.097476 0.003038
C118  C     C_R   0.133111 0.138149 0.794066 0.000443
C119  C     C_R   0.880795 0.129141 0.217016 0.012300
C120  C     C_R   0.144611 0.886951 0.789072 0.023977
C121  C     C_R   0.697851 0.701988 0.597886 -0.000051
C122  C     C_R   0.394406 0.381689 0.277587 0.022579
C123  C     C_R   0.655451 0.318316 0.667479 -0.019150
C124  C     C_R   0.295595 0.698764 0.404181 0.014560
C125  C     C_R   0.301432 0.296965 0.595909 0.001067
C126  C     C_R   0.622135 0.627321 0.282447 0.042453
C127  C     C_R   0.346921 0.678185 0.670511 -0.017630
C128  C     C_R   0.704662 0.302534 0.403204 0.015769
C129  C     C_R   0.918902 0.080857 0.098452 0.126620
C130  C     C_R   0.081591 0.920232 0.901278 0.128440
C131  C     C_R   0.101066 0.100002 0.074330 0.151966
C132  C     C_R   0.904947 0.904007 0.916844 0.218222
C133  C     C_R   0.080279 0.918616 0.098770 0.125693
C134  C     C_R   0.919705 0.079317 0.900568 0.128878
C135  C     C_R   0.897472 0.897150 0.070001 0.127476
C136  C     C_R   0.093617 0.094584 0.914173 0.123956
C137  C     C_R   0.413385 0.587480 0.593522 0.137540
C138  C     C_R   0.603261 0.396940 0.431562 0.136298
C139  C     C_R   0.601654 0.602389 0.570741 0.116575
C140  C     C_R   0.425797 0.425645 0.397809 0.136457
C141  C     C_R   0.587222 0.410915 0.592682 0.138123
C142  C     C_R   0.396976 0.603813 0.431900 0.127927
C143  C     C_R   0.398129 0.397268 0.570882 0.115362
C144  C     C_R   0.583580 0.583949 0.403351 0.195832
C145  C     C_R   0.822580 0.866344 0.734359 0.595288
C146  C     C_R   0.232932 0.213094 0.184881 0.581968
C147  C     C_R   0.825948 0.133829 0.721982 0.591822
C148  C     C_R   0.152064 0.869528 0.286057 0.594510
C149  C     C_R   0.176228 0.131289 0.731571 0.593905
C150  C     C_R   0.725054 0.791443 0.126536 0.570731
C151  C     C_R   0.179538 0.865040 0.724791 0.585277
C152  C     C_R   0.847027 0.131841 0.284875 0.593385
C153  C     C_R   0.372019 0.356389 0.209803 0.603879
C154  C     C_R   0.770105 0.709406 0.627795 0.565055
C155  C     C_R   0.227367 0.701909 0.366356 0.565080
C156  C     C_R   0.674804 0.266243 0.721785 0.598533
C157  C     C_R   0.661951 0.624806 0.217550 0.594258
C158  C     C_R   0.227381 0.287363 0.621951 0.565922
C159  C     C_R   0.771599 0.299771 0.363178 0.563746
C160  C     C_R   0.327756 0.729262 0.725141 0.599089
C161  C     C_R   0.863205 0.800223 0.749156 0.573073
C162  C     C_R   0.258197 0.242422 0.120502 0.581900
C163  C     C_R   0.784014 0.132398 0.784508 0.542607
C164  C     C_R   0.124186 0.802757 0.256644 0.569614
C165  C     C_R   0.130291 0.194837 0.741223 0.579347
C166  C     C_R   0.766760 0.727230 0.108337 0.594415
C167  C     C_R   0.219829 0.863556 0.787999 0.545469
C168  C     C_R   0.873496 0.198413 0.253026 0.568520
C169  C     C_R   0.362788 0.310166 0.269274 0.542288
C170  C     C_R   0.728510 0.774670 0.612141 0.599838
C171  C     C_R   0.256280 0.768433 0.395386 0.557849
C172  C     C_R   0.705791 0.257571 0.654494 0.568282
C173  C     C_R   0.622504 0.690347 0.235984 0.568450
C174  C     C_R   0.272147 0.223476 0.609913 0.594612
C175  C     C_R   0.744610 0.233310 0.394862 0.558154
C176  C     C_R   0.298488 0.740503 0.657569 0.567790
C177  C     C_R   0.847372 0.779785 0.713001 -0.130195
C178  C     C_R   0.288341 0.270900 0.140960 -0.137615
C179  C     C_R   0.750717 0.159309 0.767123 -0.113500
C180  C     C_R   0.143025 0.776827 0.288658 -0.129306
C181  C     C_R   0.147468 0.215274 0.705185 -0.131245
C182  C     C_R   0.736723 0.699029 0.129708 -0.128832
C183  C     C_R   0.252949 0.836403 0.770785 -0.113932
C184  C     C_R   0.854724 0.224713 0.284610 -0.127575
C185  C     C_R   0.332807 0.282433 0.248532 -0.106400
C186  C     C_R   0.757063 0.801149 0.636424 -0.128030
C187  C     C_R   0.224560 0.794532 0.374087 -0.124391
C188  C     C_R   0.733022 0.222164 0.668234 -0.125736
C189  C     C_R   0.641123 0.714052 0.202377 -0.134847
C190  C     C_R   0.243190 0.196318 0.633590 -0.125340
C191  C     C_R   0.775951 0.207310 0.373128 -0.124896
C192  C     C_R   0.271698 0.776073 0.671360 -0.124684
C193  C     C_R   0.814709 0.802361 0.689593 -0.008117
C194  C     C_R   0.293965 0.265023 0.184241 -0.012185
C195  C     C_R   0.756844 0.174817 0.726012 0.000620
C196  C     C_R   0.170101 0.798448 0.318031 -0.006267
C197  C     C_R   0.182669 0.193839 0.684221 -0.007257
C198  C     C_R   0.701248 0.719019 0.151571 -0.003746
C199  C     C_R   0.247539 0.822285 0.729371 0.000738
C200  C     C_R   0.828772 0.203230 0.315408 -0.005773
C201  C     C_R   0.324938 0.291067 0.205944 0.000175
C202  C     C_R   0.791225 0.779405 0.658663 -0.004932
C203  C     C_R   0.196215 0.772995 0.345676 -0.003443
C204  C     C_R   0.728306 0.207684 0.709795 -0.014022
C205  C     C_R   0.675137 0.693338 0.179181 -0.005478
C206  C     C_R   0.206955 0.217087 0.653617 -0.005783
C207  C     C_R   0.803063 0.228794 0.343164 -0.002861
C208  C     C_R   0.275759 0.789277 0.713152 -0.013784
C209  C     C_R   0.804330 0.847261 0.698316 -0.133202
C210  C     C_R   0.267878 0.233507 0.206041 -0.125300
C211  C     C_R   0.792463 0.158577 0.701705 -0.150020
C212  C     C_R   0.172119 0.845503 0.318836 -0.135514
C213  C     C_R   0.194768 0.149856 0.695143 -0.133590
C214  C     C_R   0.693004 0.765191 0.147123 -0.132900
C215  C     C_R   0.212930 0.840075 0.704725 -0.148811
C216  C     C_R   0.827381 0.156146 0.317508 -0.135837
C217  C     C_R   0.347414 0.326344 0.185364 -0.143794
C218  C     C_R   0.800605 0.734018 0.651280 -0.132048
C219  C     C_R   0.195039 0.725963 0.344033 -0.129137
C220  C     C_R   0.695954 0.227255 0.735727 -0.142820
C221  C     C_R   0.684189 0.647457 0.184990 -0.126723
C222  C     C_R   0.196273 0.261883 0.644452 -0.134024
C223  C     C_R   0.803296 0.275834 0.340054 -0.127582
C224  C     C_R   0.307082 0.768276 0.739286 -0.143097
C225  C     C_R   0.862017 0.737184 0.700290 -0.040174
C226  C     C_R   0.313447 0.303975 0.119789 -0.041427
C227  C     C_R   0.713037 0.173155 0.790076 -0.046606
C228  C     C_R   0.136859 0.730110 0.291491 -0.043093
C229  C     C_R   0.131788 0.256839 0.690279 -0.041407
C230  C     C_R   0.742089 0.652130 0.131602 -0.043729
C231  C     C_R   0.289722 0.821033 0.794131 -0.046385
C232  C     C_R   0.859737 0.271626 0.285547 -0.045398
C233  C     C_R   0.309669 0.247562 0.269178 -0.051767
C234  C     C_R   0.751566 0.847851 0.640783 -0.041723
C235  C     C_R   0.220952 0.841228 0.379266 -0.039400
C236  C     C_R   0.764745 0.201163 0.642223 -0.037493
C237  C     C_R   0.628333 0.758249 0.192533 -0.038341
C238  C     C_R   0.250159 0.149947 0.639544 -0.041463
C239  C     C_R   0.780181 0.160710 0.379271 -0.038770
C240  C     C_R   0.241018 0.798434 0.645173 -0.038594
C241  C     C_R   0.277110 0.223394 0.247997 -0.043304
C242  C     C_R   0.775308 0.870902 0.671564 -0.034475
C243  C     C_R   0.194874 0.866659 0.351644 -0.042396
C244  C     C_R   0.794533 0.169697 0.658998 -0.050646
C245  C     C_R   0.654235 0.783802 0.164900 -0.040878
C246  C     C_R   0.225852 0.126702 0.670249 -0.032933
C247  C     C_R   0.805594 0.135184 0.351388 -0.041992
C248  C     C_R   0.211652 0.830204 0.661866 -0.050842
C249  C     C_R   0.838610 0.714269 0.669401 -0.040253
C250  C     C_R   0.342652 0.331695 0.141926 -0.042860
C251  C     C_R   0.686199 0.207756 0.774709 -0.040452
C252  C     C_R   0.162778 0.704737 0.319139 -0.044794
C253  C     C_R   0.156324 0.280263 0.660009 -0.039587
C254  C     C_R   0.716153 0.626485 0.159298 -0.044306
C255  C     C_R   0.316259 0.786388 0.778670 -0.040201
C256  C     C_R   0.833928 0.297136 0.312991 -0.046887
H1    H     H_    0.974314 0.126129 0.084240 0.135020
H2    H     H_    0.027164 0.874211 0.914346 0.101909
H3    H     H_    0.142847 0.042716 0.057996 0.142667
H4    H     H_    0.860680 0.959832 0.930567 0.134359
H5    H     H_    0.024444 0.873987 0.084647 0.139540
H6    H     H_    0.972901 0.126150 0.913946 0.115698
H7    H     H_    0.856129 0.955384 0.055710 0.107474
H8    H     H_    0.138127 0.039134 0.927933 0.120550
H9    H     H_    0.960896 0.860395 0.931429 0.115044
H10   H     H_    0.043183 0.142643 0.060832 0.095678
H11   H     H_    0.129551 0.971116 0.918189 0.137285
H12   H     H_    0.874278 0.024714 0.084895 0.113829
H13   H     H_    0.038831 0.139172 0.929564 0.112138
H14   H     H_    0.955495 0.855796 0.056089 0.121009
H15   H     H_    0.872271 0.027437 0.917066 0.138099
H16   H     H_    0.125503 0.974321 0.084995 0.123861
H17   H     H_    0.468613 0.632922 0.576875 0.147848
H18   H     H_    0.545125 0.355589 0.445686 0.128423
H19   H     H_    0.643559 0.544389 0.556673 0.106409
H20   H     H_    0.380327 0.480673 0.412073 0.109581
H21   H     H_    0.531990 0.365845 0.575985 0.148015
H22   H     H_    0.455617 0.644459 0.445022 0.126973
H23   H     H_    0.356296 0.455290 0.556472 0.105441
H24   H     H_    0.627719 0.527008 0.416864 0.131807
H25   H     H_    0.479078 0.378338 0.413346 0.150907
H26   H     H_    0.543417 0.643665 0.557089 0.126319
H27   H     H_    0.643924 0.455833 0.444639 0.108164
H28   H     H_    0.368657 0.530665 0.579927 0.100455
H29   H     H_    0.526302 0.627496 0.416398 0.124588
H30   H     H_    0.456446 0.356167 0.557297 0.124547
H31   H     H_    0.355872 0.545250 0.445953 0.104149
H32   H     H_    0.631888 0.468081 0.578999 0.100111
H33   H     H_    0.103776 0.189437 0.068599 0.158020
H34   H     H_    0.954562 0.891084 0.850597 0.167024
H35   H     H_    0.161803 0.906682 0.127095 0.165757
H36   H     H_    0.919000 0.159099 0.863545 0.155614
H37   H     H_    0.824800 0.880486 0.027166 0.176799
H38   H     H_    0.171079 0.129720 0.892923 0.167070
H39   H     H_    0.837104 0.093306 0.126274 0.163352
H40   H     H_    0.082675 0.840164 0.865780 0.160642
H41   H     H_    0.674330 0.621482 0.528027 0.172907
H42   H     H_    0.349666 0.438243 0.357741 0.156152
H43   H     H_    0.673777 0.413209 0.612695 0.156290
H44   H     H_    0.320739 0.615556 0.471634 0.161785
H45   H     H_    0.328312 0.376941 0.525418 0.164498
H46   H     H_    0.530932 0.598876 0.338683 0.171329
H47   H     H_    0.326946 0.585578 0.614211 0.155896
H48   H     H_    0.680377 0.386032 0.469707 0.161225
N1    N     N_R   0.957630 0.074620 0.040900 -0.046430
N2    N     N_R   0.042370 0.925380 0.959100 -0.041151
N3    N     N_R   0.074620 0.042370 0.040900 -0.043502
N4    N     N_R   0.925380 0.957630 0.959100 -0.056223
N5    N     N_R   0.042370 0.925380 0.040900 -0.045768
N6    N     N_R   0.957630 0.074620 0.959100 -0.046246
N7    N     N_R   0.925380 0.957630 0.040900 -0.044675
N8    N     N_R   0.074620 0.042370 0.959100 -0.048089
N9    N     N_R   0.957630 0.925380 0.959100 -0.041404
N10   N     N_R   0.042370 0.074620 0.040900 -0.046097
N11   N     N_R   0.074620 0.957630 0.959100 -0.047484
N12   N     N_R   0.925380 0.042370 0.040900 -0.044023
N13   N     N_R   0.042370 0.074620 0.959100 -0.046436
N14   N     N_R   0.957630 0.925380 0.040900 -0.044242
N15   N     N_R   0.925380 0.042370 0.959100 -0.047134
N16   N     N_R   0.074620 0.957630 0.040900 -0.043549
N17   N     N_R   0.457630 0.574620 0.540900 -0.044351
N18   N     N_R   0.542370 0.425380 0.459100 -0.046134
N19   N     N_R   0.574620 0.542370 0.540900 -0.044042
N20   N     N_R   0.425380 0.457630 0.459100 -0.044420
N21   N     N_R   0.542370 0.425380 0.540900 -0.044468
N22   N     N_R   0.457630 0.574620 0.459100 -0.040743
N23   N     N_R   0.425380 0.457630 0.540900 -0.043852
N24   N     N_R   0.574620 0.542370 0.459100 -0.057609
N25   N     N_R   0.457630 0.425380 0.459100 -0.046571
N26   N     N_R   0.542370 0.574620 0.540900 -0.043985
N27   N     N_R   0.574620 0.457630 0.459100 -0.047592
N28   N     N_R   0.425380 0.542370 0.540900 -0.043529
N29   N     N_R   0.542370 0.574620 0.459100 -0.045035
N30   N     N_R   0.457630 0.425380 0.540900 -0.043788
N31   N     N_R   0.425380 0.542370 0.459100 -0.043134
N32   N     N_R   0.574620 0.457630 0.540900 -0.043755
N33   N     N_R   0.849590 0.841934 0.759415 -0.147481
N34   N     N_R   0.230780 0.215416 0.142890 -0.147890
N35   N     N_R   0.821848 0.123902 0.762916 -0.141768
N36   N     N_R   0.130524 0.847624 0.255309 -0.144313
N37   N     N_R   0.146308 0.154797 0.754232 -0.144731
N38   N     N_R   0.761624 0.772222 0.109505 -0.144419
N39   N     N_R   0.182780 0.873584 0.765924 -0.141895
N40   N     N_R   0.867799 0.153476 0.253160 -0.143803
N41   N     N_R   0.378039 0.347932 0.250739 -0.143148
N42   N     N_R   0.733966 0.729665 0.610927 -0.144832
N43   N     N_R   0.257995 0.723609 0.389638 -0.142446
N44   N     N_R   0.679483 0.279943 0.681785 -0.150124
N45   N     N_R   0.634396 0.647331 0.243508 -0.146684
N46   N     N_R   0.265294 0.268259 0.607468 -0.144617
N47   N     N_R   0.742134 0.277995 0.388089 -0.142210
N48   N     N_R   0.323609 0.716765 0.684953 -0.149940
Ni1   Ni    Ni4+2 0.000000 0.073960 0.000000 0.211223
Ni2   Ni    Ni4+2 0.000000 0.926040 0.000000 0.218675
Ni3   Ni    Ni4+2 0.073960 0.000000 0.000000 0.214505
Ni4   Ni    Ni4+2 0.926040 0.000000 0.000000 0.213913
Ni5   Ni    Ni4+2 0.500000 0.573960 0.500000 0.220787
Ni6   Ni    Ni4+2 0.500000 0.426040 0.500000 0.217252
Ni7   Ni    Ni4+2 0.573960 0.500000 0.500000 0.212463
Ni8   Ni    Ni4+2 0.426040 0.500000 0.500000 0.208484
O1    O     O_2   0.812361 0.908208 0.745579 -0.529033
O2    O     O_2   0.200819 0.191140 0.205758 -0.538979
O3    O     O_2   0.863205 0.121578 0.702067 -0.537400
O4    O     O_2   0.155424 0.914160 0.283600 -0.538241
O5    O     O_2   0.189131 0.091031 0.745629 -0.533802
O6    O     O_2   0.721420 0.836120 0.125470 -0.543296
O7    O     O_2   0.143167 0.878889 0.704426 -0.541072
O8    O     O_2   0.844123 0.087149 0.283557 -0.539236
O9    O     O_2   0.388508 0.394395 0.193700 -0.533716
O10   O     O_2   0.774512 0.664995 0.624037 -0.543880
O11   O     O_2   0.230105 0.657300 0.363285 -0.549759
O12   O     O_2   0.650827 0.291303 0.748077 -0.525945
O13   O     O_2   0.668809 0.581158 0.224736 -0.539190
O14   O     O_2   0.221634 0.331526 0.616900 -0.542705
O15   O     O_2   0.768321 0.344335 0.359497 -0.547333
O16   O     O_2   0.350718 0.703003 0.751383 -0.525912
O17   O     O_2   0.890223 0.778049 0.775242 -0.544306
O18   O     O_2   0.256267 0.241029 0.078889 -0.534975
O19   O     O_2   0.780548 0.116982 0.823663 -0.561567
O20   O     O_2   0.101544 0.783436 0.225700 -0.544472
O21   O     O_2   0.099528 0.215473 0.764540 -0.546358
O22   O     O_2   0.802072 0.710559 0.088099 -0.541607
O23   O     O_2   0.222651 0.877792 0.827381 -0.560256
O24   O     O_2   0.895512 0.217345 0.221111 -0.549222
O25   O     O_2   0.375711 0.301037 0.308325 -0.556626
O26   O     O_2   0.694111 0.792832 0.591666 -0.538949
O27   O     O_2   0.286579 0.787438 0.420136 -0.570812
O28   O     O_2   0.705712 0.270421 0.614464 -0.539700
O29   O     O_2   0.594718 0.710615 0.262601 -0.536081
O30   O     O_2   0.308260 0.206289 0.591381 -0.545180
O31   O     O_2   0.715368 0.214326 0.421113 -0.573701
O32   O     O_2   0.299329 0.728862 0.617374 -0.541165
C257  C     C_R   0.903628 0.717552 0.716574 0.188612
C258  C     C_R   0.902404 0.684343 0.747291 -0.073755
C259  C     C_R   0.941782 0.665842 0.762106 -0.109997
C260  C     C_R   0.982492 0.680447 0.746454 -0.085848
C261  C     C_R   0.983892 0.713613 0.715983 -0.089690
C262  C     C_R   0.944586 0.732165 0.701050 -0.114534
H49   H     H_    0.871050 0.673075 0.759835 0.103429
H50   H     H_    0.940747 0.640247 0.785771 0.112738
H51   H     H_    0.012949 0.666112 0.757974 0.112229
H52   H     H_    0.015432 0.724919 0.703919 0.119256
H53   H     H_    0.945979 0.757765 0.677367 0.108684
C263  C     C_R   0.308436 0.311829 0.074662 0.190819
C264  C     C_R   0.272792 0.337125 0.059693 -0.083641
C265  C     C_R   0.268695 0.345401 0.017281 -0.101025
C266  C     C_R   0.300167 0.328623 0.989691 -0.081921
C267  C     C_R   0.335799 0.303540 0.004467 -0.101861
C268  C     C_R   0.340006 0.295148 0.046851 -0.105522
H54   H     H_    0.248395 0.350428 0.080883 0.111377
H55   H     H_    0.241183 0.364892 0.005808 0.113914
H56   H     H_    0.296976 0.335108 0.956872 0.112829
H57   H     H_    0.360192 0.290665 0.983082 0.113614
H58   H     H_    0.367810 0.275850 0.058057 0.103815
C269  C     C_R   0.700071 0.151100 0.829506 0.200111
C270  C     C_R   0.712342 0.169431 0.867619 -0.076179
C271  C     C_R   0.699439 0.148745 0.904579 -0.110678
C272  C     C_R   0.674295 0.109751 0.903676 -0.083165
C273  C     C_R   0.662037 0.091362 0.865803 -0.096411
C274  C     C_R   0.674861 0.111949 0.828767 -0.123012
H59   H     H_    0.731971 0.199522 0.868598 0.103397
H60   H     H_    0.708948 0.162920 0.933914 0.112086
H61   H     H_    0.664329 0.093775 0.932315 0.108333
H62   H     H_    0.642559 0.061182 0.865153 0.112297
H63   H     H_    0.665100 0.097561 0.799566 0.100724
C275  C     C_R   0.101671 0.707305 0.267678 0.192337
C276  C     C_R   0.112029 0.684563 0.231113 -0.078290
C277  C     C_R   0.078781 0.662653 0.209242 -0.106907
C278  C     C_R   0.035123 0.663380 0.223702 -0.080221
C279  C     C_R   0.024637 0.686042 0.260051 -0.089017
C280  C     C_R   0.057794 0.707970 0.282034 -0.112864
H64   H     H_    0.145721 0.683983 0.219595 0.103439
H65   H     H_    0.086848 0.645140 0.181076 0.112289
H66   H     H_    0.009418 0.646405 0.206734 0.109263
H67   H     H_    0.990828 0.686567 0.271214 0.116803
H68   H     H_    0.049409 0.725309 0.310245 0.107034
C281  C     C_R   0.088345 0.274864 0.703744 0.189541
C282  C     C_R   0.086004 0.308340 0.733734 -0.074657
C283  C     C_R   0.044919 0.325303 0.745888 -0.112186
C284  C     C_R   0.006049 0.308897 0.728285 -0.082225
C285  C     C_R   0.008198 0.275473 0.698512 -0.085981
C286  C     C_R   0.049222 0.258457 0.686237 -0.117495
H69   H     H_    0.115907 0.321007 0.747769 0.103037
H70   H     H_    0.043203 0.351104 0.769004 0.112264
H71   H     H_    0.974267 0.322041 0.737750 0.113084
H72   H     H_    0.978080 0.262775 0.684931 0.117443
H73   H     H_    0.050582 0.232642 0.663076 0.107467
C287  C     C_R   0.774228 0.628766 0.104547 0.192472
C288  C     C_R   0.816279 0.617093 0.119482 -0.070726
C289  C     C_R   0.846001 0.594213 0.094133 -0.109012
C290  C     C_R   0.833910 0.582894 0.053854 -0.083582
C291  C     C_R   0.792074 0.594445 0.038858 -0.095378
C292  C     C_R   0.762239 0.617310 0.064114 -0.120459
H74   H     H_    0.825905 0.625733 0.150643 0.106113
H75   H     H_    0.878384 0.585233 0.105713 0.109690
H76   H     H_    0.856947 0.565159 0.034273 0.107480
H77   H     H_    0.782740 0.585605 0.007691 0.113907
H78   H     H_    0.729813 0.625926 0.052332 0.106315
C293  C     C_R   0.302047 0.841461 0.834148 0.199560
C294  C     C_R   0.288190 0.822202 0.871701 -0.075049
C295  C     C_R   0.300537 0.841301 0.909232 -0.109840
C296  C     C_R   0.326710 0.879625 0.909459 -0.083906
C297  C     C_R   0.340558 0.898927 0.872148 -0.097513
C298  C     C_R   0.328292 0.879928 0.834543 -0.123759
H79   H     H_    0.267779 0.792611 0.871801 0.104378
H80   H     H_    0.289807 0.826413 0.938132 0.112672
H81   H     H_    0.336249 0.894369 0.938539 0.108224
H82   H     H_    0.360839 0.928580 0.872373 0.111815
H83   H     H_    0.339296 0.895003 0.805785 0.101078
C299  C     C_R   0.893263 0.294766 0.259481 0.196682
C300  C     C_R   0.880812 0.315951 0.222472 -0.079153
C301  C     C_R   0.912450 0.338329 0.198526 -0.111302
C302  C     C_R   0.956579 0.339622 0.211349 -0.083369
C303  C     C_R   0.969145 0.318523 0.248137 -0.093279
C304  C     C_R   0.937600 0.296141 0.272198 -0.113182
H84   H     H_    0.846732 0.315004 0.212244 0.101383
H85   H     H_    0.902768 0.354653 0.170032 0.109512
H86   H     H_    0.981035 0.356962 0.192778 0.108599
H87   H     H_    0.003314 0.319574 0.258035 0.114967
H88   H     H_    0.947582 0.280051 0.300745 0.105541
C305  C     C_R   0.317346 0.236574 0.313451 0.204290
C306  C     C_R   0.295314 0.260427 0.344527 -0.100289
C307  C     C_R   0.301815 0.249382 0.386134 -0.104110
C308  C     C_R   0.330124 0.214431 0.396888 -0.076477
C309  C     C_R   0.351979 0.190462 0.366049 -0.106493
C310  C     C_R   0.345623 0.201432 0.324400 -0.104570
H89   H     H_    0.273197 0.287433 0.336441 0.110836
H90   H     H_    0.284859 0.267853 0.410035 0.122465
H91   H     H_    0.335075 0.205881 0.429110 0.121815
H92   H     H_    0.373788 0.163339 0.374422 0.114596
H93   H     H_    0.362513 0.182564 0.300698 0.104770
C311  C     C_R   0.722692 0.873755 0.612492 0.189166
C312  C     C_R   0.679056 0.884151 0.623979 -0.067185
C313  C     C_R   0.652516 0.909712 0.597649 -0.108795
C314  C     C_R   0.669390 0.925032 0.559843 -0.087042
C315  C     C_R   0.712821 0.914765 0.548282 -0.102575
C316  C     C_R   0.739464 0.889190 0.574515 -0.131237
H94   H     H_    0.665739 0.872447 0.653220 0.111162
H95   H     H_    0.618898 0.917699 0.606572 0.112733
H96   H     H_    0.648829 0.944878 0.539523 0.105661
H97   H     H_    0.725869 0.926725 0.519045 0.110307
H98   H     H_    0.773168 0.881642 0.565443 0.105053
C317  C     C_R   0.241004 0.863958 0.415270 0.196404
C318  C     C_R   0.282345 0.884981 0.411644 -0.054524
C319  C     C_R   0.299623 0.908644 0.444989 -0.116885
C320  C     C_R   0.275579 0.911794 0.481879 -0.113465
C321  C     C_R   0.234275 0.891182 0.485512 -0.125912
C322  C     C_R   0.217064 0.867149 0.452398 -0.168019
H99   H     H_    0.300928 0.883167 0.383007 0.108826
H100  H     H_    0.331526 0.924759 0.442151 0.111779
H101  H     H_    0.288927 0.930208 0.507634 0.107010
H102  H     H_    0.215725 0.893565 0.514067 0.127651
H103  H     H_    0.184917 0.851505 0.455450 0.107954
C323  C     C_R   0.768299 0.212345 0.597529 0.201118
C324  C     C_R   0.799413 0.243840 0.583736 -0.099790
C325  C     C_R   0.801921 0.255175 0.541794 -0.122082
C326  C     C_R   0.773075 0.235591 0.513562 -0.036213
C327  C     C_R   0.741742 0.204556 0.527206 -0.073823
C328  C     C_R   0.739685 0.192447 0.568986 -0.129074
H104  H     H_    0.821447 0.259684 0.605491 0.106436
H105  H     H_    0.826006 0.279372 0.531216 0.123814
H106  H     H_    0.774979 0.244554 0.481161 0.151471
H107  H     H_    0.719113 0.189770 0.505389 0.168866
H108  H     H_    0.715418 0.168239 0.579243 0.107035
C329  C     C_R   0.586298 0.777307 0.208491 0.188522
C330  C     C_R   0.586541 0.807131 0.241723 -0.074797
C331  C     C_R   0.546830 0.825240 0.256193 -0.105423
C332  C     C_R   0.506754 0.813623 0.237669 -0.076094
C333  C     C_R   0.506323 0.783838 0.204667 -0.089402
C334  C     C_R   0.545968 0.765678 0.190082 -0.116953
H109  H     H_    0.617385 0.816076 0.256457 0.103499
H110  H     H_    0.547113 0.848221 0.281800 0.114314
H111  H     H_    0.476035 0.827657 0.248915 0.114883
H112  H     H_    0.475272 0.774857 0.190368 0.117706
H113  H     H_    0.545336 0.742731 0.164421 0.108402
C335  C     C_R   0.280990 0.124564 0.612828 0.189959
C336  C     C_R   0.324647 0.116350 0.625549 -0.064231
C337  C     C_R   0.353093 0.091400 0.600623 -0.109395
C338  C     C_R   0.338116 0.074528 0.562992 -0.088863
C339  C     C_R   0.294677 0.082624 0.550201 -0.109633
C340  C     C_R   0.266130 0.107575 0.575029 -0.136968
H114  H     H_    0.336530 0.129333 0.654628 0.111808
H115  H     H_    0.386727 0.085112 0.610489 0.112506
H116  H     H_    0.360159 0.055173 0.543754 0.104642
H117  H     H_    0.283104 0.069478 0.521095 0.107867
H118  H     H_    0.232451 0.113464 0.564998 0.103332
C341  C     C_R   0.761257 0.138061 0.416262 0.194464
C342  C     C_R   0.719598 0.117472 0.414442 -0.052537
C343  C     C_R   0.703473 0.093581 0.448546 -0.118913
C344  C     C_R   0.729023 0.089670 0.484363 -0.114787
C345  C     C_R   0.770689 0.109740 0.486161 -0.125394
C346  C     C_R   0.786739 0.134046 0.452304 -0.173312
H119  H     H_    0.699883 0.119784 0.386600 0.112070
H120  H     H_    0.671308 0.077841 0.447111 0.113660
H121  H     H_    0.716574 0.071060 0.510699 0.107693
H122  H     H_    0.790422 0.106728 0.513872 0.126894
H123  H     H_    0.819188 0.149233 0.453915 0.109325
C347  C     C_R   0.237822 0.788160 0.600412 0.203060
C348  C     C_R   0.206543 0.757226 0.586440 -0.100662
C349  C     C_R   0.204137 0.746907 0.544418 -0.121924
C350  C     C_R   0.233186 0.767019 0.516262 -0.036259
C351  C     C_R   0.264630 0.797567 0.530056 -0.078943
C352  C     C_R   0.266664 0.808582 0.571952 -0.127526
H124  H     H_    0.184260 0.741073 0.608116 0.107833
H125  H     H_    0.179939 0.723125 0.533707 0.125352
H126  H     H_    0.231330 0.758859 0.483797 0.153484
H127  H     H_    0.287354 0.812803 0.508251 0.163489
H128  H     H_    0.291006 0.832421 0.582340 0.106681
C353  C     C_R   0.255494 0.185188 0.269411 0.181298
C354  C     C_R   0.221979 0.192406 0.298811 -0.081208
C355  C     C_R   0.201406 0.156301 0.318361 -0.102951
C356  C     C_R   0.214081 0.112920 0.308613 -0.085604
C357  C     C_R   0.247542 0.105530 0.279504 -0.087239
C358  C     C_R   0.268263 0.141539 0.259925 -0.089174
H129  H     H_    0.211641 0.225888 0.306251 0.101407
H130  H     H_    0.175477 0.161933 0.340902 0.112090
H131  H     H_    0.197848 0.085044 0.323482 0.112907
H132  H     H_    0.257303 0.071904 0.272025 0.119833
H133  H     H_    0.294040 0.135524 0.237283 0.120793
C359  C     C_R   0.770735 0.920015 0.674248 0.181418
C360  C     C_R   0.734122 0.939064 0.694317 -0.074952
C361  C     C_R   0.731171 0.985230 0.698426 -0.105984
C362  C     C_R   0.764776 0.012563 0.682756 -0.044455
C363  C     C_R   0.801222 0.993781 0.662642 -0.066268
C364  C     C_R   0.804189 0.947658 0.658254 -0.130893
H134  H     H_    0.708366 0.918143 0.707307 0.105688
H135  H     H_    0.703047 0.999795 0.714119 0.109416
H136  H     H_    0.762672 0.048249 0.686397 0.100481
H137  H     H_    0.827365 0.014909 0.650759 0.136353
H138  H     H_    0.832750 0.933406 0.642953 0.108959
C365  C     C_R   0.189661 0.914949 0.359513 0.197091
C366  C     C_R   0.223028 0.945047 0.347827 -0.067366
C367  C     C_R   0.218803 0.990140 0.357272 -0.119923
C368  C     C_R   0.181322 0.005346 0.378366 -0.091655
C369  C     C_R   0.147877 0.975553 0.389789 -0.088580
C370  C     C_R   0.151980 0.930446 0.380418 -0.118102
H139  H     H_    0.252296 0.933489 0.331735 0.103292
H140  H     H_    0.244668 0.013248 0.348427 0.103790
H141  H     H_    0.178205 0.040184 0.385965 0.098039
H142  H     H_    0.118904 0.987374 0.406137 0.108859
H143  H     H_    0.126159 0.907505 0.389837 0.102916
C371  C     C_R   0.825951 0.147142 0.630657 0.207949
C372  C     C_R   0.866616 0.167010 0.620358 -0.065454
C373  C     C_R   0.895465 0.146049 0.592776 -0.107024
C374  C     C_R   0.883860 0.105286 0.575346 -0.072890
C375  C     C_R   0.843365 0.085447 0.585436 -0.138599
C376  C     C_R   0.814357 0.106375 0.612884 -0.159776
H144  H     H_    0.875868 0.198570 0.633728 0.098931
H145  H     H_    0.926798 0.161410 0.584896 0.106149
H146  H     H_    0.906202 0.089116 0.553969 0.103317
H147  H     H_    0.834325 0.053981 0.571794 0.107555
H148  H     H_    0.782804 0.091056 0.620075 0.096395
C377  C     C_R   0.638566 0.828894 0.153021 0.190756
C378  C     C_R   0.646578 0.865450 0.178730 -0.074686
C379  C     C_R   0.631110 0.907635 0.167552 -0.105538
C380  C     C_R   0.607678 0.913542 0.130712 -0.085212
C381  C     C_R   0.599720 0.877274 0.104966 -0.096976
C382  C     C_R   0.615112 0.835025 0.116041 -0.116693
H149  H     H_    0.664910 0.861232 0.207205 0.104443
H150  H     H_    0.637319 0.935748 0.187421 0.114443
H151  H     H_    0.595723 0.946220 0.122099 0.108910
H152  H     H_    0.581576 0.881897 0.076454 0.112405
H153  H     H_    0.608654 0.807086 0.095988 0.107011
C383  C     C_R   0.231502 0.077772 0.674531 0.181083
C384  C     C_R   0.268608 0.059955 0.694794 -0.077058
C385  C     C_R   0.272333 0.014007 0.700738 -0.109774
C386  C     C_R   0.238935 0.985668 0.686859 -0.040998
C387  C     C_R   0.201928 0.003218 0.666696 -0.062014
C388  C     C_R   0.198256 0.049091 0.660350 -0.134116
H154  H     H_    0.294104 0.081671 0.706634 0.103842
H155  H     H_    0.300854 0.000407 0.716552 0.110260
H156  H     H_    0.241598 0.950168 0.691979 0.102517
H157  H     H_    0.175858 0.981348 0.656350 0.143822
H158  H     H_    0.169233 0.062378 0.645061 0.110165
C389  C     C_R   0.810496 0.086802 0.359571 0.196877
C390  C     C_R   0.776602 0.057152 0.348824 -0.078360
C391  C     C_R   0.780958 0.011798 0.357600 -0.105149
C392  C     C_R   0.819088 0.995862 0.377093 -0.079158
C393  C     C_R   0.852944 0.025256 0.387817 -0.096071
C394  C     C_R   0.848716 0.070640 0.379108 -0.112000
H159  H     H_    0.746937 0.069224 0.333762 0.105879
H160  H     H_    0.754765 0.989013 0.349335 0.113742
H161  H     H_    0.822392 0.960747 0.383903 0.111195
H162  H     H_    0.882413 0.012883 0.402962 0.111611
H163  H     H_    0.874978 0.093222 0.387750 0.102424
C395  C     C_R   0.181512 0.854258 0.633281 0.209477
C396  C     C_R   0.140561 0.835764 0.622295 -0.064421
C397  C     C_R   0.113091 0.857964 0.594232 -0.106339
C398  C     C_R   0.126391 0.898571 0.576961 -0.075796
C399  C     C_R   0.167210 0.917006 0.587682 -0.143873
C400  C     C_R   0.194829 0.894847 0.615631 -0.164357
H164  H     H_    0.130058 0.804275 0.635454 0.100568
H165  H     H_    0.081534 0.843663 0.585823 0.107807
H166  H     H_    0.105128 0.915689 0.555195 0.104004
H167  H     H_    0.177579 0.948337 0.574146 0.109553
H168  H     H_    0.226666 0.909064 0.623288 0.098800
C401  C     C_R   0.856151 0.671067 0.654592 0.192001
C402  C     C_R   0.848099 0.631720 0.676998 -0.073592
C403  C     C_R   0.865293 0.591332 0.663075 -0.108164
C404  C     C_R   0.890486 0.590003 0.626758 -0.086633
C405  C     C_R   0.898473 0.629061 0.604274 -0.097305
C406  C     C_R   0.881354 0.669525 0.618104 -0.119331
H169  H     H_    0.828383 0.632382 0.705013 0.103980
H170  H     H_    0.859050 0.561061 0.680406 0.112811
H171  H     H_    0.903776 0.558711 0.616017 0.106280
H172  H     H_    0.917971 0.627982 0.576158 0.110560
H173  H     H_    0.887840 0.699644 0.600570 0.105221
C407  C     C_R   0.369271 0.364931 0.118485 0.187818
C408  C     C_R   0.349834 0.404721 0.104665 -0.085960
C409  C     C_R   0.374802 0.435430 0.081840 -0.101832
C410  C     C_R   0.419200 0.426599 0.072729 -0.081619
C411  C     C_R   0.438706 0.387031 0.086424 -0.092683
C412  C     C_R   0.413847 0.356207 0.109228 -0.106163
H174  H     H_    0.315449 0.411807 0.111539 0.103188
H175  H     H_    0.359733 0.466054 0.071187 0.113317
H176  H     H_    0.438479 0.450400 0.055040 0.110204
H177  H     H_    0.473061 0.380213 0.079299 0.114472
H178  H     H_    0.429152 0.325537 0.119539 0.109359
C413  C     C_R   0.645639 0.220222 0.798033 0.183180
C414  C     C_R   0.648349 0.247746 0.832838 -0.077798
C415  C     C_R   0.610028 0.258963 0.854766 -0.106378
C416  C     C_R   0.568880 0.242919 0.842008 -0.082828
C417  C     C_R   0.565983 0.215668 0.807267 -0.085658
C418  C     C_R   0.604233 0.204321 0.785287 -0.097956
H179  H     H_    0.680028 0.260601 0.842769 0.102304
H180  H     H_    0.612214 0.280151 0.881600 0.112379
H181  H     H_    0.539240 0.251654 0.859002 0.110527
H182  H     H_    0.534102 0.203313 0.797394 0.116121
H183  H     H_    0.601690 0.183113 0.758462 0.108409
C419  C     C_R   0.153763 0.656358 0.323043 0.196091
C420  C     C_R   0.172009 0.626306 0.294639 -0.076747
C421  C     C_R   0.162760 0.580904 0.298177 -0.106215
C422  C     C_R   0.135344 0.565310 0.330028 -0.087524
C423  C     C_R   0.117156 0.595096 0.358415 -0.100626
C424  C     C_R   0.126306 0.640532 0.354978 -0.117211
H184  H     H_    0.193405 0.638077 0.269964 0.104743
H185  H     H_    0.176853 0.557809 0.276247 0.115086
H186  H     H_    0.128207 0.530152 0.332723 0.106715
H187  H     H_    0.095924 0.582979 0.383046 0.109210
H188  H     H_    0.111943 0.663396 0.377005 0.102094
C425  C     C_R   0.138120 0.322445 0.643081 0.192756
C426  C     C_R   0.142767 0.362379 0.664894 -0.074000
C427  C     C_R   0.124975 0.401791 0.648938 -0.108638
C428  C     C_R   0.102583 0.401558 0.611173 -0.086722
C429  C     C_R   0.098002 0.361916 0.589275 -0.099116
C430  C     C_R   0.115727 0.322423 0.605136 -0.120756
H189  H     H_    0.160308 0.362934 0.694032 0.103326
H190  H     H_    0.128588 0.432516 0.665817 0.111983
H191  H     H_    0.088826 0.432096 0.598859 0.105417
H192  H     H_    0.080672 0.361786 0.560036 0.108965
H193  H     H_    0.111886 0.291837 0.588034 0.103204
C431  C     C_R   0.723619 0.577724 0.160868 0.191592
C432  C     C_R   0.756578 0.559790 0.186565 -0.069251
C433  C     C_R   0.764195 0.513956 0.187262 -0.110468
C434  C     C_R   0.739028 0.485869 0.162345 -0.080461
C435  C     C_R   0.706226 0.503587 0.136654 -0.091612
C436  C     C_R   0.698518 0.549421 0.135840 -0.118807
H194  H     H_    0.776257 0.581324 0.205925 0.109495
H195  H     H_    0.789642 0.500231 0.207059 0.100866
H196  H     H_    0.744979 0.450390 0.162909 0.106437
H197  H     H_    0.686837 0.481810 0.117315 0.113349
H198  H     H_    0.673213 0.562902 0.115693 0.105418
C437  C     C_R   0.355949 0.772362 0.802444 0.183043
C438  C     C_R   0.351783 0.743857 0.836805 -0.078014
C439  C     C_R   0.389293 0.731186 0.859176 -0.106215
C440  C     C_R   0.431078 0.746751 0.847304 -0.082370
C441  C     C_R   0.435425 0.774979 0.813008 -0.085441
C442  C     C_R   0.397990 0.787780 0.790587 -0.098381
H199  H     H_    0.319599 0.731373 0.846051 0.102727
H200  H     H_    0.385984 0.709244 0.885668 0.113317
H201  H     H_    0.460090 0.736891 0.864641 0.112409
H202  H     H_    0.467798 0.786965 0.803821 0.117315
H203  H     H_    0.401655 0.809740 0.764115 0.108895
C443  C     C_R   0.840734 0.346030 0.313534 0.198030
C444  C     C_R   0.818808 0.373537 0.284927 -0.078121
C445  C     C_R   0.825955 0.419444 0.285116 -0.103162
C446  C     C_R   0.854985 0.438078 0.313773 -0.083228
C447  C     C_R   0.876896 0.410825 0.342307 -0.100722
C448  C     C_R   0.869838 0.364888 0.342229 -0.116117
H204  H     H_    0.796218 0.359386 0.262661 0.104375
H205  H     H_    0.808991 0.440560 0.263065 0.106687
H206  H     H_    0.860500 0.473625 0.313869 0.107415
H207  H     H_    0.899394 0.425297 0.364445 0.109427
H208  H     H_    0.887083 0.343997 0.364321 0.101456
O33   O     O_3   0.159910 0.250081 0.097374 -0.730816
H209  H     H_    0.132279 0.257226 0.082252 0.316612
O34   O     O_3   0.936693 0.867517 0.773207 -0.726551
H210  H     H_    0.966537 0.875908 0.783185 0.327259
O35   O     O_3   0.193885 0.874060 0.197886 -0.736197
H211  H     H_    0.212403 0.883526 0.174025 0.321662
O36   O     O_3   0.875957 0.188324 0.796837 -0.746203
H212  H     H_    0.893310 0.207684 0.815462 0.321884
O37   O     O_3   0.757808 0.823506 0.037256 -0.724648
H213  H     H_    0.760176 0.845202 0.014125 0.328605
O38   O     O_3   0.203513 0.160534 0.821075 -0.734696
H214  H     H_    0.219976 0.160584 0.847559 0.322372
O39   O     O_3   0.804659 0.127018 0.196310 -0.737218
H215  H     H_    0.786262 0.117454 0.172635 0.320521
O40   O     O_3   0.127249 0.810013 0.800394 -0.747602
H216  H     H_    0.109192 0.790974 0.819071 0.321249
O41   O     O_3   0.739111 0.680911 0.537665 -0.723569
H217  H     H_    0.737680 0.659313 0.514670 0.324136
O42   O     O_3   0.319939 0.407549 0.286252 -0.750580
H218  H     H_    0.301897 0.425373 0.305732 0.319326
O43   O     O_3   0.724250 0.356025 0.654302 -0.732276
H219  H     H_    0.735481 0.383600 0.640965 0.317115
O44   O     O_3   0.251590 0.669244 0.459670 -0.754412
H220  H     H_    0.253312 0.646439 0.481894 0.321196
O45   O     O_3   0.263806 0.316680 0.533249 -0.732952
H221  H     H_    0.266477 0.337940 0.509800 0.314007
O46   O     O_3   0.546411 0.624020 0.260503 -0.722128
H222  H     H_    0.516714 0.616655 0.271776 0.327701
O47   O     O_3   0.277421 0.642415 0.656836 -0.733325
H223  H     H_    0.265690 0.615522 0.643092 0.317037
O48   O     O_3   0.749596 0.332672 0.457088 -0.753641
H224  H     H_    0.748196 0.355639 0.478910 0.321856
O49   O     O_3   0.170907 0.068361 0.129349 -0.766836
H225  H     H_    0.140189 0.058255 0.134690 0.333786
O50   O     O_3   0.814378 0.886076 0.901903 -0.764982
H226  H     H_    0.785134 0.893148 0.889797 0.330215
O51   O     O_3   0.015346 0.907333 0.166063 -0.758390
H227  H     H_    0.012766 0.931183 0.144975 0.327971
O52   O     O_3   0.899964 0.010179 0.839206 -0.764609
H228  H     H_    0.926968 0.007636 0.856365 0.331691
O53   O     O_3   0.903822 0.837796 0.142407 -0.743158
H229  H     H_    0.921079 0.865135 0.136990 0.348856
O54   O     O_3   0.036572 0.083762 0.842145 -0.764562
H230  H     H_    0.036191 0.063721 0.866485 0.328816
O55   O     O_3   0.983116 0.091317 0.165763 -0.757925
H231  H     H_    0.985650 0.067396 0.145017 0.330359
O56   O     O_3   0.104422 0.988666 0.839257 -0.763575
H232  H     H_    0.076938 0.991621 0.855794 0.327188
O57   O     O_3   0.593133 0.660350 0.643051 -0.742609
H233  H     H_    0.577316 0.632122 0.638176 0.338343
O58   O     O_3   0.495764 0.402204 0.337268 -0.767033
H234  H     H_    0.500655 0.427825 0.355799 0.323522
O59   O     O_3   0.540164 0.354888 0.653669 -0.754745
H235  H     H_    0.530470 0.386174 0.650256 0.328756
O60   O     O_3   0.406381 0.669386 0.364246 -0.759199
H236  H     H_    0.422764 0.641123 0.367212 0.326731
O61   O     O_3   0.403044 0.340138 0.644751 -0.744430
H237  H     H_    0.419898 0.367686 0.639127 0.337467
O62   O     O_3   0.673662 0.595695 0.382810 -0.763445
H238  H     H_    0.701769 0.587021 0.369235 0.327873
O63   O     O_3   0.461568 0.640055 0.655352 -0.753591
H239  H     H_    0.470815 0.608838 0.650864 0.328215
O64   O     O_3   0.593160 0.331286 0.365076 -0.742763
H240  H     H_    0.577147 0.359802 0.367445 0.353933
O65   O     O_3   0.241671 0.124651 0.148169 -0.747034
H241  H     H_    0.241725 0.091751 0.148266 0.366340
O66   O     O_3   0.788414 0.848204 0.822983 -0.733235
H242  H     H_    0.774569 0.838306 0.849260 0.329982
O67   O     O_3   0.042437 0.868686 0.241504 -0.724719
H243  H     H_    0.011976 0.874727 0.231817 0.376147
O68   O     O_3   0.845316 0.034844 0.772078 -0.712075
H244  H     H_    0.851734 0.004620 0.782753 0.384036
O69   O     O_3   0.836340 0.775516 0.157902 -0.735524
H245  H     H_    0.864127 0.780160 0.173388 0.373898
O70   O     O_3   0.064135 0.116466 0.764670 -0.722670
H246  H     H_    0.035089 0.103653 0.772443 0.374216
O71   O     O_3   0.955688 0.131250 0.240212 -0.728845
H247  H     H_    0.986170 0.124592 0.230828 0.372993
O72   O     O_3   0.160480 0.962949 0.773518 -0.715513
H248  H     H_    0.154064 0.993321 0.783477 0.384876
O73   O     O_3   0.658317 0.724682 0.658372 -0.734948
H249  H     H_    0.630662 0.718821 0.673945 0.374637
O74   O     O_3   0.468516 0.357821 0.264859 -0.720242
H250  H     H_    0.498285 0.358287 0.277536 0.376256
O75   O     O_3   0.587452 0.281383 0.684747 -0.727397
H251  H     H_    0.555094 0.284176 0.680819 0.371863
O76   O     O_3   0.337774 0.730260 0.348684 -0.732641
H252  H     H_    0.367267 0.728606 0.335392 0.371599
O77   O     O_3   0.337384 0.275608 0.658776 -0.735510
H253  H     H_    0.363850 0.282164 0.675605 0.374283
O78   O     O_3   0.697542 0.634525 0.303628 -0.742421
H254  H     H_    0.712774 0.643129 0.329422 0.331329
O79   O     O_3   0.415521 0.713073 0.688437 -0.726560
H255  H     H_    0.447852 0.709675 0.684577 0.373028
O80   O     O_3   0.661649 0.270464 0.349231 -0.730625
H256  H     H_    0.631911 0.271893 0.336569 0.374402

loop_
_geom_bond_atom_site_label_1
_geom_bond_atom_site_label_2
_ccdc_geom_bond_type
N28   Ni8   S    
C185  C233  A    
C276  C277  A    
C392  C393  A    
N30   Ni6   S    
N18   Ni6   S    
C230  C287  S    
C444  C445  A    
C381  H152  S    
C53   C69   A    
C445  C446  A    
C42   C58   A    
C270  H59   S    
C124  N43   S    
C197  C213  A    
C371  C376  A    
C158  N46   A    
C179  C195  A    
C281  C282  A    
C408  C409  A    
C177  C193  A    
C329  C334  A    
C46   C62   A    
C3    C131  A    
C296  H81   S    
C402  C403  A    
C1    C129  A    
C148  C212  A    
C362  H136  S    
C98   C114  A    
C429  H192  S    
C60   H44   S    
C432  C433  A    
C302  H86   S    
C61   H45   S    
C186  C202  A    
C53   H37   S    
C110  O78   S    
C83   O51   S    
C175  N47   A    
C427  H190  S    
C308  C309  A    
C253  C425  S    
C26   N26   A    
N14   Ni2   S    
C161  N33   A    
C425  C430  A    
C190  C206  A    
C314  C315  A    
C332  C333  A    
C56   C72   A    
C155  O11   S    
C435  H197  S    
N2    Ni2   S    
C432  H194  S    
C35   C115  A    
C361  C362  A    
C107  C123  A    
C8    H8    S    
C145  C209  A    
C271  H60   S    
C180  C196  A    
C167  N39   A    
C173  N45   A    
C45   C61   A    
C36   O36   S    
C307  H90   S    
C165  N37   A    
C126  N45   S    
C189  C237  A    
O74   H250  S    
C69   C135  S    
C151  C215  A    
O51   H227  S    
C232  C299  S    
C70   C136  S    
C82   C98   A    
C23   C143  A    
C197  C206  A    
C328  H108  S    
C157  O13   S    
C203  C219  A    
C108  C124  A    
C98   O66   S    
C94   O62   S    
C380  C381  A    
C322  H103  S    
C401  C402  A    
C416  H181  S    
C331  H110  S    
C75   C91   A    
C27   C138  A    
C37   O37   S    
C427  C428  A    
C168  O24   S    
C91   C107  A    
O42   H218  S    
C25   C140  A    
C29   N29   A    
C324  H104  S    
C424  H188  S    
C327  H107  S    
C376  H148  S    
C325  C326  A    
C24   H24   S    
C175  O31   S    
C320  C321  A    
C422  C423  A    
C194  C201  A    
C9    H9    S    
C357  C358  A    
C22   N22   A    
C30   C143  A    
C173  O29   S    
C405  H172  S    
C20   H20   S    
C51   H35   S    
N15   Ni4   S    
C21   H21   S    
C66   C82   A    
C18   N18   A    
C410  C411  A    
C54   C70   A    
C405  C406  A    
C442  H203  S    
C251  C413  S    
C351  C352  A    
C237  C245  A    
C360  H134  S    
C156  C220  A    
N3    N10   A    
C263  C264  A    
C384  H154  S    
C235  C243  A    
C348  H124  S    
C261  H52   S    
C288  H74   S    
C147  N35   A    
C349  C350  A    
C166  O22   S    
C339  H117  S    
C219  C252  A    
C35   C51   A    
C391  C392  A    
C333  H112  S    
N31   Ni8   S    
C404  H171  S    
C161  C177  A    
C393  C394  A    
C198  C214  A    
C60   C76   A    
C395  C400  A    
C318  C319  A    
C99   O67   S    
C227  C251  A    
C290  H76   S    
C381  C382  A    
C336  H114  S    
C28   H28   S    
C277  H65   S    
C347  C348  A    
C158  O14   S    
C84   O52   S    
C338  H116  S    
C444  H204  S    
C211  C244  A    
C345  C346  A    
N13   Ni1   S    
C28   C137  A    
N20   Ni8   S    
C363  C364  A    
C62   H46   S    
C17   H17   S    
C154  O10   S    
C327  C328  A    
C73   C89   A    
C16   N16   A    
C257  C258  A    
C48   O48   S    
C446  H206  S    
C174  N46   A    
C258  H49   S    
C287  C288  A    
C74   C90   A    
C341  C346  A    
C359  C364  A    
C96   O64   S    
C117  N38   S    
C344  H121  S    
C264  C265  A    
C270  C271  A    
C99   C115  A    
C303  C304  A    
C383  C388  A    
C1    N1    A    
C78   C94   A    
C3    H3    S    
C255  C437  S    
N4    Ni4   S    
C8    N8    A    
C148  N36   A    
C360  C361  A    
C102  C118  A    
C149  C213  A    
N4    N9    A    
C41   C57   A    
O76   H252  S    
C196  C212  A    
C23   N23   A    
C37   C117  A    
C438  C439  A    
C19   C139  A    
C368  C369  A    
C438  H199  S    
C284  H71   S    
C17   C137  A    
C176  N48   A    
C445  H205  S    
C395  C396  A    
C228  C275  S    
C408  H174  S    
N27   Ni7   S    
N23   N30   A    
C55   C71   A    
C301  H85   S    
C28   N28   A    
C149  O5    S    
C398  H166  S    
C207  C223  A    
C374  C375  A    
C154  N42   A    
N11   Ni3   S    
C447  H207  S    
C273  C274  A    
C166  C182  A    
C241  C353  S    
C168  N40   A    
C12   H12   S    
C419  C420  A    
C371  C372  A    
C285  H72   S    
C4    C132  A    
C278  C279  A    
C284  C285  A    
C5    C133  A    
C152  C216  A    
C355  H130  S    
O63   H239  S    
N1    N12   A    
C358  H133  S    
C199  C215  A    
C407  C408  A    
C146  N34   A    
C44   C60   A    
C57   H41   S    
C299  C304  A    
C365  C370  A    
C192  C240  A    
C14   C135  A    
C386  C387  A    
N7    N14   A    
C268  H58   S    
C104  O72   S    
C387  C388  A    
O37   H213  S    
C400  H168  S    
O56   H232  S    
C246  C383  S    
C309  H92   S    
C393  H162  S    
C342  H119  S    
C75   C141  S    
C389  C390  A    
C10   C131  A    
C357  H132  S    
C182  C230  A    
C348  C349  A    
C61   C77   A    
C184  C200  A    
C147  O3    S    
N7    Ni4   S    
C169  N41   A    
C364  H138  S    
O50   H226  S    
C7    H7    S    
C314  H96   S    
C122  N41   S    
C174  O30   S    
O49   H225  S    
C298  H83   S    
C17   N17   A    
C412  H178  S    
C152  O8    S    
C43   C59   A    
C37   C53   A    
C56   H40   S    
C448  H208  S    
C304  H88   S    
C170  O26   S    
O55   H231  S    
C157  C221  A    
C22   C142  A    
C274  H63   S    
C375  C376  A    
N10   Ni1   S    
C423  C424  A    
C114  N33   S    
C383  C384  A    
C58   H42   S    
C373  H145  S    
C305  C306  A    
C9    N9    A    
C382  H153  S    
N3    Ni3   S    
C414  H179  S    
C55   H39   S    
N32   Ni7   S    
C105  C121  A    
C334  H113  S    
C292  H78   S    
C239  C341  S    
C301  C302  A    
C6    H6    S    
C399  C400  A    
C105  O73   S    
C23   H23   S    
C13   H13   S    
C359  C360  A    
C237  C329  S    
C73   C139  S    
C148  O4    S    
O57   H233  S    
C287  C292  A    
C74   C140  S    
C188  C204  A    
C272  H61   S    
O52   H228  S    
C388  H158  S    
C77   C143  S    
C309  C310  A    
C152  N40   A    
C78   C144  S    
C194  C210  A    
C259  H50   S    
C354  H129  S    
C112  O80   S    
C369  C370  A    
C431  C436  A    
C415  H180  S    
C106  C122  A    
O61   H237  S    
C353  C354  A    
C162  O18   S    
C191  C207  A    
C267  C268  A    
C155  C219  A    
C226  C263  S    
C378  C379  A    
C110  C126  A    
N26   Ni5   S    
C409  H175  S    
C5    N5    A    
C4    N4    A    
C42   O42   S    
O77   H253  S    
C238  C335  S    
C163  C179  A    
C297  H82   S    
C428  C429  A    
C231  C293  S    
C370  H143  S    
N22   N31   A    
C41   O41   S    
C324  C325  A    
C86   C102  A    
C43   C123  A    
C69   C85   A    
C277  C278  A    
C58   C74   A    
O62   H238  S    
C30   H30   S    
C233  C241  A    
C320  H101  S    
C163  N35   A    
C267  H57   S    
C29   H29   S    
C10   H10   S    
C269  C274  A    
C62   C78   A    
C31   H31   S    
C367  H140  S    
C366  C367  A    
C32   H32   S    
C407  C412  A    
O40   H216  S    
C22   H22   S    
C47   C127  A    
N24   Ni7   S    
C208  C224  A    
C417  H182  S    
C89   O57   S    
C351  H127  S    
C93   O61   S    
C433  H195  S    
C123  N44   S    
O69   H245  S    
C202  C218  A    
C100  O68   S    
C403  H170  S    
C280  H68   S    
C326  H106  S    
C261  C262  A    
C156  O12   S    
C234  C242  A    
C146  C210  A    
O72   H248  S    
C180  C228  A    
C389  C394  A    
C51   C67   A    
C234  C311  S    
C436  H198  S    
C206  C222  A    
C80   C138  S    
C235  C317  S    
C199  C208  A    
C200  C216  A    
C369  H142  S    
C214  C245  A    
C149  N37   A    
C282  H69   S    
C72   C88   A    
C179  C227  A    
C443  C444  A    
C88   O56   S    
C249  C401  S    
C26   H26   S    
C177  C225  A    
C290  C291  A    
C319  H100  S    
O39   H215  S    
C242  C359  S    
C4    H4    S    
C350  C351  A    
N21   Ni6   S    
C89   C105  A    
C338  C339  A    
C44   C124  A    
N21   N32   A    
C228  C252  A    
C325  H105  S    
C312  C313  A    
C88   C104  A    
C146  O2    S    
O44   H220  S    
C439  H200  S    
C93   C109  A    
C186  C234  A    
O54   H230  S    
C36   C116  A    
C418  H183  S    
C5    H5    S    
C257  C262  A    
C377  C378  A    
C233  C305  S    
C8    C136  A    
C151  O7    S    
N29   Ni5   S    
O36   H212  S    
C35   O35   S    
N17   Ni5   S    
C434  C435  A    
C397  H165  S    
C385  C386  A    
C65   C131  S    
C85   C101  A    
O48   H224  S    
C15   C134  A    
C317  C322  A    
C157  N45   A    
C38   O38   S    
C178  C194  A    
C337  C338  A    
C332  H111  S    
C204  C220  A    
N2    N11   A    
C95   O63   S    
C225  C257  S    
C339  C340  A    
C166  N38   A    
C272  C273  A    
C212  C243  A    
C399  H167  S    
C47   C63   A    
C326  C327  A    
N5    N16   A    
C48   C64   A    
C101  O69   S    
C275  C276  A    
C34   O34   S    
C33   C49   A    
C368  H141  S    
C187  C203  A    
C46   O46   S    
C311  C312  A    
C239  C247  A    
C87   O55   S    
C185  C201  A    
C343  H120  S    
C18   C138  A    
C282  C283  A    
C162  N34   A    
C52   C68   A    
C372  H144  S    
C39   O39   S    
C19   N19   A    
C153  N41   A    
C223  C256  A    
C76   C92   A    
N16   Ni3   S    
C39   C55   A    
C403  C404  A    
C189  C205  A    
C40   C56   A    
C182  C198  A    
O34   H210  S    
C31   N31   A    
C231  C255  A    
C419  C424  A    
C164  C180  A    
C190  C238  A    
C181  C197  A    
C355  C356  A    
C83   C99   A    
C125  N46   S    
C198  C205  A    
C81   O49   S    
C64   C80   A    
C396  H164  S    
C127  N48   S    
C92   O60   S    
C147  C211  A    
C163  O19   S    
C16   H16   S    
O59   H235  S    
O53   H229  S    
C106  O74   S    
C271  C272  A    
C1    H1    S    
C299  C300  A    
C346  H123  S    
C171  N43   A    
N22   Ni5   S    
C433  C434  A    
N19   Ni7   S    
O70   H246  S    
C68   C84   A    
C353  C358  A    
C295  H80   S    
C260  C261  A    
C90   C106  A    
C387  H157  S    
C300  H84   S    
C413  C414  A    
C97   O65   S    
C15   N15   A    
C296  C297  A    
C291  C292  A    
C195  C204  A    
C170  N42   A    
C354  C355  A    
C295  C296  A    
O38   H214  S    
C313  H95   S    
C94   C110  A    
C47   O47   S    
C193  C202  A    
C316  H98   S    
C356  C357  A    
C150  O6    S    
C84   C100  A    
C80   C96   A    
C240  C347  S    
C283  C284  A    
C79   C95   A    
C343  C344  A    
C71   C129  S    
C183  C231  A    
C65   C81   A    
O68   H244  S    
C38   C54   A    
C7    N7    A    
C317  C318  A    
C238  C246  A    
C171  O27   S    
O41   H217  S    
C30   N30   A    
C13   N13   A    
N19   N26   A    
C411  H177  S    
C196  C203  A    
C169  O25   S    
C308  H91   S    
C297  C298  A    
C174  C190  A    
C59   H43   S    
C312  H94   S    
C422  H186  S    
C414  C415  A    
C40   C120  A    
C50   H34   S    
C26   C139  A    
C200  C207  A    
C165  O21   S    
C265  H55   S    
C87   C103  A    
C409  C410  A    
C218  C249  A    
C263  C268  A    
C244  C371  S    
C11   C130  A    
O64   H240  S    
C40   O40   S    
C33   O33   S    
C421  C422  A    
C221  C254  A    
C384  C385  A    
C434  H196  S    
C9    C132  A    
C256  C443  S    
C226  C250  A    
C2    N2    A    
C67   C133  S    
C90   O58   S    
C33   C113  A    
C262  H53   S    
C439  C440  A    
C210  C241  A    
N12   Ni4   S    
C260  H51   S    
C259  C260  A    
C14   H14   S    
C413  C418  A    
C153  O9    S    
C293  C298  A    
C248  C395  S    
C305  C310  A    
C101  C117  A    
C20   C140  A    
C68   C134  S    
C21   C141  A    
O80   H256  S    
C156  N44   A    
C103  O71   S    
C441  H202  S    
C411  C412  A    
C120  N39   S    
C27   H27   S    
C222  C253  A    
C159  O15   S    
O73   H249  S    
O47   H223  S    
C345  H122  S    
C443  C448  A    
C24   C144  A    
C340  H118  S    
C77   C93   A    
C373  C374  A    
C2    C130  A    
C341  C342  A    
C85   O53   S    
C390  H159  S    
C323  C324  A    
C116  N35   S    
C176  O32   S    
C11   N11   A    
C425  C426  A    
C12   C129  A    
C112  C128  A    
C205  C221  A    
C169  C185  A    
C38   C118  A    
O67   H243  S    
C288  C289  A    
C306  H89   S    
C294  C295  A    
C329  C330  A    
C429  C430  A    
N6    N15   A    
C220  C251  A    
C254  C431  S    
C379  C380  A    
C240  C248  A    
C11   H11   S    
C265  C266  A    
C420  C421  A    
N8    Ni3   S    
C291  H77   S    
C250  C407  S    
C350  H126  S    
C224  C255  A    
C64   H48   S    
C104  C120  A    
C311  C316  A    
C417  C418  A    
C108  O76   S    
C63   H47   S    
C426  C427  A    
C243  C365  S    
C32   N32   A    
C109  O77   S    
C415  C416  A    
C49   H33   S    
C323  C328  A    
C232  C256  A    
C100  C116  A    
C300  C301  A    
C278  H66   S    
C303  H87   S    
C367  C368  A    
C321  H102  S    
C12   N12   A    
C283  H70   S    
C321  C322  A    
C441  C442  A    
C63   C79   A    
O71   H247  S    
C6    N6    A    
C216  C247  A    
C155  N43   A    
C102  O70   S    
C96   C112  A    
C319  C320  A    
C366  H139  S    
N17   N28   A    
C49   C65   A    
C164  N36   A    
C307  C308  A    
C159  N47   A    
C115  N36   S    
C128  N47   S    
C247  C389  S    
C342  C343  A    
N20   N25   A    
N24   N29   A    
O45   H221  S    
C118  N37   S    
C145  N33   A    
C440  H201  S    
C150  N38   A    
C264  H54   S    
C175  C191  A    
C380  H151  S    
C27   N27   A    
C227  C269  S    
C176  C192  A    
N23   Ni8   S    
C48   C128  A    
C416  C417  A    
N9    Ni2   S    
C57   C73   A    
C331  C332  A    
C14   N14   A    
C119  N40   S    
C24   N24   A    
C352  H128  S    
C41   C121  A    
C286  H73   S    
C279  C280  A    
C29   C144  A    
C252  C419  S    
C20   N20   A    
C19   H19   S    
C289  H75   S    
C45   C125  A    
C431  C432  A    
C168  C184  A    
C294  H79   S    
C266  C267  A    
N6    Ni1   S    
C379  H150  S    
C154  C218  A    
C121  N42   S    
C385  H155  S    
C188  C236  A    
O65   H241  S    
C335  C340  A    
C374  H146  S    
C43   O43   S    
C289  C290  A    
O79   H255  S    
C158  C222  A    
C192  C208  A    
C170  C186  A    
O75   H251  S    
C52   H36   S    
C410  H176  S    
C15   H15   S    
C16   C133  A    
C391  H160  S    
C245  C377  S    
C164  O20   S    
C92   C108  A    
C113  N34   S    
C66   C132  S    
C275  C280  A    
C191  C239  A    
C349  H125  S    
C258  C259  A    
C34   C50   A    
C162  C178  A    
C276  H64   S    
C377  C382  A    
C54   H38   S    
C310  H93   S    
C229  C281  S    
C335  C336  A    
C184  C232  A    
C181  C229  A    
C372  C373  A    
C318  H99   S    
C440  C441  A    
C302  C303  A    
C428  H191  S    
N1    Ni1   S    
C347  C352  A    
C306  C307  A    
C183  C199  A    
C402  H169  S    
C167  C183  A    
C7    C135  A    
C363  H137  S    
C195  C211  A    
C172  O28   S    
C193  C209  A    
C269  C270  A    
C172  N44   A    
C392  H161  S    
C336  C337  A    
C333  C334  A    
C446  C447  A    
C32   C141  A    
C215  C248  A    
C378  H149  S    
C151  N39   A    
C266  H56   S    
C111  O79   S    
C161  O17   S    
C50   C66   A    
C82   O50   S    
C426  H189  S    
C160  O16   S    
C70   C86   A    
C109  C125  A    
N25   Ni6   S    
C2    H2    S    
O43   H219  S    
C447  C448  A    
C406  H173  S    
C236  C323  S    
O66   H242  S    
C111  C127  A    
C330  H109  S    
C13   C136  A    
C71   C87   A    
C91   O59   S    
C167  O23   S    
C217  C250  A    
C97   C113  A    
O46   H222  S    
C39   C119  A    
C25   N25   A    
C59   C75   A    
O58   H234  S    
C67   C83   A    
C42   C122  A    
C396  C397  A    
C420  H184  S    
O33   H209  S    
O78   H254  S    
C437  C438  A    
C313  C314  A    
C225  C249  A    
C79   C137  S    
C430  H193  S    
N8    N13   A    
C153  C217  A    
C46   C126  A    
C103  C119  A    
C401  C406  A    
C397  C398  A    
C36   C52   A    
C209  C242  A    
C356  H131  S    
C229  C253  A    
C281  C286  A    
C44   O44   S    
C72   C130  S    
C344  C345  A    
C145  O1    S    
N5    Ni2   S    
C34   C114  A    
C398  C399  A    
C10   N10   A    
C171  C187  A    
C165  C181  A    
C86   O54   S    
C236  C244  A    
C31   C142  A    
C273  H62   S    
C201  C217  A    
C362  C363  A    
C6    C134  A    
O60   H236  S    
C95   C111  A    
C394  H163  S    
C107  O75   S    
C285  C286  A    
C315  H97   S    
C81   C97   A    
C375  H147  S    
C172  C188  A    
C159  C223  A    
N18   N27   A    
C279  H67   S    
C173  C189  A    
C315  C316  A    
C160  N48   A    
C293  C294  A    
C437  C442  A    
C423  H187  S    
C150  C214  A    
C213  C246  A    
C178  C226  A    
C45   O45   S    
C421  H185  S    
C365  C366  A    
C230  C254  A    
C337  H115  S    
C404  C405  A    
C435  C436  A    
C386  H156  S    
C160  C224  A    
C361  H135  S    
C3    N3    A    
C330  C331  A    
C18   H18   S    
O35   H211  S    
C25   H25   S    
C187  C235  A    
C21   N21   A    
C390  C391  A    
C76   C142  S    
