data_mof_unit_54217.cif
_audit_creation_date              2012-12-10T17:44:34-0500
_audit_creation_method            fapswitch 2.2
_symmetry_space_group_name_H-M    P1
_symmetry_Int_Tables_number       1
_space_group_crystal_system       triclinic
_cell_length_a                    10.007505
_cell_length_b                    10.666036
_cell_length_c                    15.455104
_cell_angle_alpha                 92.719214
_cell_angle_beta                  68.486067
_cell_angle_gamma                 89.384431
_cell_volume                      1532.31681256

loop_
_atom_site_label
_atom_site_type_symbol
_atom_type_description
_atom_site_fract_x
_atom_site_fract_y
_atom_site_fract_z
_atom_type_partial_charge
C1    C     C_R   0.502648 0.738604 0.493498 1.057128
C2    C     C_R   0.751452 0.477133 0.025401 0.021580
C3    C     C_R   0.608245 0.442335 0.076283 -0.179318
C4    C     C_R   0.410358 0.496666 0.675281 0.927636
C5    C     C_R   0.845425 0.502108 0.073567 0.503207
C6    C     C_R   0.792541 0.500180 0.171121 -0.417510
C7    C     C_R   0.552882 0.460472 0.174005 0.383208
C8    C     C_R   0.494329 0.870647 0.327454 0.323345
C9    C     C_R   0.502138 0.940099 0.250228 0.584427
C10   C     C_R   0.514033 0.069232 0.253765 -0.240464
C11   C     C_R   0.515698 0.131530 0.333986 -0.192632
C12   C     C_R   0.445038 0.427229 0.897795 0.107358
C13   C     C_R   0.506606 0.065277 0.413187 -0.012989
C14   C     C_R   0.500582 0.933488 0.409585 -0.038373
C15   C     C_R   0.502825 0.871401 0.488662 -0.175150
C16   C     C_R   0.500050 0.261282 0.501311 0.799166
C17   C     C_R   0.506519 0.936527 0.567839 -0.152980
C18   C     C_R   0.504739 0.064934 0.573595 0.418019
C19   C     C_R   0.504596 0.128678 0.495997 -0.143451
C20   C     C_R   0.786572 0.662010 0.633233 0.662821
C21   C     C_R   0.817361 0.730196 0.701412 -0.366903
C22   C     C_R   0.953181 0.729158 0.701378 -0.326625
C23   C     C_R   0.320758 0.357358 0.940980 0.138503
C24   C     C_R   0.061214 0.659342 0.633452 0.680358
C25   C     C_R   0.034998 0.578173 0.565082 -0.175196
C26   C     C_R   0.890358 0.578737 0.564973 -0.049026
C27   C     C_R   0.964019 0.425291 0.439510 -0.210326
C28   C     C_R   0.590189 0.495116 0.324001 0.948725
C29   C     C_R   0.106133 0.424880 0.439682 0.708995
C30   C     C_R   0.361407 0.467354 0.772930 -0.084511
C31   C     C_R   0.646475 0.483912 0.221536 -0.144464
C32   C     C_R   0.219624 0.340986 0.898264 -0.075420
C33   C     C_R   0.241792 0.393456 0.813142 -0.100685
C34   C     C_R   0.552565 0.435908 0.936542 0.057309
C35   C     C_R   0.456693 0.489346 0.818311 -0.215817
C36   C     C_R   0.519221 0.401346 0.028278 0.070650
C37   C     C_R   0.398129 0.326982 0.069212 -0.164861
C38   C     C_R   0.301048 0.303910 0.025272 -0.230868
C39   C     C_R   0.692804 0.474755 0.886056 -0.357601
C40   C     C_R   0.794632 0.489218 0.928377 0.499279
F1    F     F_    0.499372 0.882424 0.170675 -0.669546
F2    F     F_    0.654847 0.690254 0.637032 -0.663702
F3    F     F_    0.188835 0.681912 0.637856 -0.637375
F4    F     F_    0.207268 0.345740 0.378475 -0.631802
H1    H     H_    0.208539 0.247604 0.058573 0.163747
H2    H     H_    0.169573 0.371967 0.777089 0.158061
H3    H     H_    0.542955 0.552886 0.788700 0.185173
H4    H     H_    0.378642 0.285163 0.135020 0.213040
H5    H     H_    0.727393 0.488048 0.812279 0.142737
H6    H     H_    0.037152 0.543783 0.069406 0.330674
H7    H     H_    0.465410 0.715668 0.265391 0.383883
H8    H     H_    0.484906 0.214543 0.657193 0.321981
H9    H     H_    0.361547 0.516548 0.187073 0.344524
H10   H     H_    0.946767 0.520462 0.809976 0.319814
H11   H     H_    0.506397 0.886795 0.627508 0.220317
H12   H     H_    0.521331 0.121770 0.194003 0.184158
H13   H     H_    0.525574 0.232249 0.332621 0.181156
H14   H     H_    0.939882 0.363678 0.389858 0.167884
H15   H     H_    0.735220 0.789874 0.752903 0.227813
H16   H     H_    0.976748 0.787583 0.753013 0.231594
H17   H     H_    0.864488 0.518569 0.207943 0.187753
H18   H     H_    0.126020 0.284957 0.929292 0.148098
N1    N     N_R   0.856800 0.501200 0.500850 -0.115407
N2    N     N_R   0.142390 0.501280 0.500880 -0.139186
O1    O     O_R   0.385310 0.683220 0.500000 -0.508621
O2    O     O_3   0.478654 0.742962 0.323775 -0.778940
O3    O     O_3   0.501514 0.122963 0.656445 -0.751672
O4    O     O_3   0.406390 0.468346 0.223230 -0.708348
O5    O     O_3   0.933269 0.522001 0.876823 -0.701390
O6    O     O_R   0.614640 0.683250 0.500010 -0.557305
O7    O     O_R   0.319840 0.499980 0.632240 -0.569470
O8    O     O_R   0.549160 0.500000 0.632250 -0.569651
O9    O     O_R   0.385360 0.316750 0.499990 -0.587881
O10   O     O_R   0.614690 0.316780 0.500000 -0.620851
O11   O     O_R   0.450840 0.500000 0.367750 -0.489512
O12   O     O_R   0.680160 0.500020 0.367760 -0.646140
O13   O     O_3   0.987069 0.530017 0.025166 -0.693880
Zn1   Zn    Zn3+2 0.346880 0.499980 0.499990 1.087810
Zn2   Zn    Zn3+2 0.653120 0.500020 0.500010 1.003918

loop_
_geom_bond_atom_site_label_1
_geom_bond_atom_site_label_2
_ccdc_geom_bond_type
C8    O2    S    
C27   C29   A    
O12   Zn2   S    
C35   H3    S    
N1    Zn2   S    
C12   C23   A    
C30   C35   A    
C16   O10   A    
C6    H17   S    
C21   C22   A    
C36   C37   A    
C21   H15   S    
O8    Zn2   S    
C3    C7    A    
C22   H16   S    
C5    C6    A    
C18   C19   A    
H9    O4    S    
C38   H1    S    
C7    O4    S    
C8    C9    A    
C1    O1    A    
O9    Zn1   S    
C1    C15   S    
C10   H12   S    
C9    C10   A    
C17   H11   S    
C6    C31   A    
C29   N2    A    
C13   C14   A    
C33   H2    S    
C7    C31   A    
C40   O5    S    
C13   C19   A    
C16   O9    A    
C24   C25   A    
C39   C40   A    
C25   C26   A    
C34   C39   A    
C37   H4    S    
H7    O2    S    
C26   N1    A    
C37   C38   A    
C17   C18   A    
C12   C35   A    
H8    O3    S    
C27   N1    A    
C39   H5    S    
O10   Zn2   S    
C29   F4    S    
C22   C24   A    
C2    C5    A    
C5    O13   S    
C28   O12   A    
H6    O13   S    
C4    O8    A    
C15   C17   A    
C8    C14   A    
O1    Zn1   S    
C30   C33   A    
O6    Zn2   S    
N2    Zn1   S    
C28   C31   S    
C27   H14   S    
C20   F2    S    
C23   C38   A    
C9    F1    S    
C1    O6    A    
C23   C32   A    
C2    C3    A    
C18   O3    S    
C32   H18   S    
C32   C33   A    
C11   C13   A    
H10   O5    S    
C20   C26   A    
C3    C36   A    
C16   C19   S    
C34   C36   A    
O7    Zn1   S    
O11   Zn1   S    
C10   C11   A    
C2    C40   A    
C20   C21   A    
C24   F3    S    
C14   C15   A    
C11   H13   S    
C28   O11   A    
C12   C34   A    
C25   N2    A    
C4    O7    A    
C4    C30   S    
