data_mof_unit_65462.cif
_audit_creation_date              2012-12-10T16:52:41-0500
_audit_creation_method            fapswitch 2.2
_symmetry_space_group_name_H-M    P1
_symmetry_Int_Tables_number       1
_space_group_crystal_system       triclinic
_cell_length_a                    7.832679
_cell_length_b                    8.549314
_cell_length_c                    13.858655
_cell_angle_alpha                 93.165837
_cell_angle_beta                  93.326601
_cell_angle_gamma                 94.304634
_cell_volume                      922.197990374

loop_
_atom_site_label
_atom_site_type_symbol
_atom_type_description
_atom_site_fract_x
_atom_site_fract_y
_atom_site_fract_z
_atom_type_partial_charge
C1    C     C_R   0.045205 0.794682 0.497407 0.968571
C2    C     C_R   0.936205 0.487803 0.318273 0.870564
C3    C     C_R   0.095889 0.525753 0.786100 -0.068296
C4    C     C_R   0.902175 0.467857 0.214271 -0.065318
C5    C     C_R   0.045063 0.647196 0.941660 -0.184143
C6    C     C_R   0.941558 0.329125 0.062570 -0.180042
C7    C     C_R   0.987581 0.603137 0.846391 -0.199715
C8    C     C_R   0.003890 0.379733 0.155971 -0.190140
C9    C     C_R   0.249149 0.475973 0.824113 -0.253203
C10   C     C_R   0.750277 0.519293 0.175841 -0.278046
C11   C     C_R   0.298535 0.501370 0.921646 0.091948
C12   C     C_R   0.954701 0.205279 0.502258 0.967894
C13   C     C_R   0.693398 0.483149 0.079952 0.078639
C14   C     C_R   0.205558 0.604951 0.977368 0.128887
C15   C     C_R   0.782429 0.373728 0.026216 0.161609
C16   C     C_R   0.453660 0.448262 0.959546 0.010127
C17   C     C_R   0.536889 0.534586 0.042182 -0.047972
C18   C     C_3   0.556164 0.807833 0.139233 -0.424079
C19   C     C_3   0.494779 0.840272 0.241038 -0.851580
C20   C     C_3   0.433921 0.176910 0.856975 -0.383617
C21   C     C_3   0.274143 0.111228 0.903906 -0.879203
C22   C     C_R   0.457534 0.666189 0.084745 0.158398
C23   C     C_R   0.530889 0.314793 0.917432 0.158298
C24   C     C_R   0.284876 0.683729 0.059939 -0.238577
C25   C     C_R   0.702320 0.294478 0.943996 -0.289608
C26   C     C_2   0.068638 0.958494 0.495758 -0.386333
C27   C     C_2   0.931099 0.041395 0.503300 -0.389744
C28   C     C_R   0.063662 0.511651 0.681781 0.870112
H1    H     H_    0.220873 0.777029 0.095506 0.152793
H2    H     H_    0.801600 0.989621 0.510378 0.178084
H3    H     H_    0.487171 0.374758 0.427778 0.188558
H4    H     H_    0.512825 0.625308 0.572173 0.187351
H5    H     H_    0.370656 0.895015 0.236796 0.246316
H6    H     H_    0.477141 0.731135 0.280270 0.265119
H7    H     H_    0.590225 0.923374 0.283529 0.249373
H8    H     H_    0.696821 0.799518 0.142523 0.203986
H9    H     H_    0.536770 0.913190 0.097438 0.210661
H10   H     H_    0.301886 0.099670 0.982634 0.256368
H11   H     H_    0.167968 0.187894 0.892516 0.259084
H12   H     H_    0.766765 0.201790 0.907970 0.137250
H13   H     H_    0.231115 0.993157 0.869722 0.251431
H14   H     H_    0.402192 0.203196 0.781200 0.195158
H15   H     H_    0.517139 0.077558 0.849583 0.198541
H16   H     H_    0.668536 0.575839 0.224131 0.192588
H17   H     H_    0.339306 0.433444 0.775266 0.163505
H18   H     H_    0.122136 0.337732 0.185197 0.155896
H19   H     H_    0.867581 0.642532 0.817788 0.155583
H20   H     H_    0.969825 0.722164 0.985060 0.134648
H21   H     H_    0.011500 0.246763 0.021764 0.134959
H22   H     H_    0.198108 0.010247 0.488564 0.178785
N1    N     N_2   0.440860 0.456490 0.474790 -0.176604
N2    N     N_2   0.559140 0.543510 0.525210 -0.175884
O1    O     O_R   0.891570 0.738930 0.506190 -0.610738
O2    O     O_R   0.108430 0.261070 0.493810 -0.611161
O3    O     O_R   0.174650 0.711050 0.490030 -0.624900
O4    O     O_R   0.825350 0.288950 0.509970 -0.625354
O5    O     O_R   0.909850 0.521900 0.644940 -0.617209
O6    O     O_R   0.090150 0.478100 0.355060 -0.616841
O7    O     O_R   0.192930 0.494020 0.628780 -0.626284
O8    O     O_R   0.807070 0.505980 0.371220 -0.624337
Zn1   Zn    Zn3+2 0.810990 0.518620 0.510790 0.929412
Zn2   Zn    Zn3+2 0.189010 0.481380 0.489210 0.928436

loop_
_geom_bond_atom_site_label_1
_geom_bond_atom_site_label_2
_ccdc_geom_bond_type
O6    Zn2   S    
C2    C4    S    
C2    O6    A    
O5    Zn1   S    
C3    C9    A    
C18   C22   S    
C11   C16   A    
C20   H14   S    
C17   C22   A    
C21   H11   S    
C20   C23   S    
C13   C17   A    
C4    C8    A    
C26   H22   S    
C13   C15   A    
C1    O3    A    
C25   H12   S    
C19   H7    S    
C28   O5    A    
C27   H2    S    
C9    H17   S    
C9    C11   A    
C5    C14   A    
C12   O4    A    
N1    Zn2   S    
O1    Zn1   S    
C21   H13   S    
C3    C28   S    
C11   C14   A    
C18   H9    S    
C16   C23   A    
C3    C7    A    
N2    Zn1   S    
C23   C25   A    
C6    H21   S    
C26   C27   D    
C1    C26   S    
C5    H20   S    
C22   C24   A    
C15   C25   A    
C16   C17   A    
C12   C27   S    
C10   H16   S    
N1    N2    D    
O3    Zn2   S    
C20   H15   S    
C20   C21   S    
C18   C19   S    
C19   H5    S    
C28   O7    A    
C14   C24   A    
C5    C7    A    
C1    O1    A    
O4    Zn1   S    
H4    N2    S    
O7    Zn2   S    
C6    C8    A    
O2    Zn2   S    
C8    H18   S    
C6    C15   A    
C24   H1    S    
C18   H8    S    
C19   H6    S    
C12   O2    A    
C21   H10   S    
C4    C10   A    
H3    N1    S    
O8    Zn1   S    
C2    O8    A    
C10   C13   A    
C7    H19   S    
