data_mof_unit_36803.cif
_audit_creation_date              2012-12-11T16:52:24-0500
_audit_creation_method            fapswitch 2.2
_symmetry_space_group_name_H-M    P1
_symmetry_Int_Tables_number       1
_space_group_crystal_system       triclinic
_cell_length_a                    7.195871
_cell_length_b                    26.039907
_cell_length_c                    28.731833
_cell_angle_alpha                 90.0
_cell_angle_beta                  89.999939
_cell_angle_gamma                 90.138589
_cell_volume                      5383.7497056

loop_
_atom_site_label
_atom_site_type_symbol
_atom_type_description
_atom_site_fract_x
_atom_site_fract_y
_atom_site_fract_z
_atom_type_partial_charge
O1    O     O_R   0.601030 0.796770 0.202460 -0.537853
O2    O     O_R   0.398970 0.203230 0.797540 -0.538950
O3    O     O_R   0.398970 0.203230 0.702460 -0.537852
O4    O     O_R   0.601030 0.796770 0.297540 -0.538949
O5    O     O_R   0.101030 0.703230 0.297540 -0.534744
O6    O     O_R   0.898970 0.296770 0.702460 -0.534591
O7    O     O_R   0.898970 0.296770 0.797540 -0.534744
O8    O     O_R   0.101030 0.703230 0.202460 -0.534591
O9    O     O_R   0.271290 0.802910 0.297210 -0.539700
O10   O     O_R   0.728710 0.197090 0.702790 -0.540810
O11   O     O_R   0.728710 0.197090 0.797210 -0.539697
O12   O     O_R   0.271290 0.802910 0.202790 -0.540807
O13   O     O_R   0.771290 0.697090 0.202790 -0.541280
O14   O     O_R   0.228710 0.302910 0.797210 -0.541349
O15   O     O_R   0.228710 0.302910 0.702790 -0.541281
O16   O     O_R   0.771290 0.697090 0.297210 -0.541350
C1    C     C_R   0.440156 0.815402 0.312628 0.689496
C2    C     C_R   0.559862 0.184598 0.687346 0.693137
C3    C     C_R   0.559844 0.184598 0.812628 0.689496
C4    C     C_R   0.440138 0.815402 0.187346 0.693140
C5    C     C_R   0.939789 0.684745 0.187282 0.690443
C6    C     C_R   0.060210 0.315254 0.812719 0.689621
C7    C     C_R   0.060211 0.315255 0.687282 0.690442
C8    C     C_R   0.939789 0.684746 0.312719 0.689620
O17   O     O_3   0.434520 0.717290 0.250000 -0.370788
O18   O     O_3   0.565480 0.282710 0.750000 -0.370788
O19   O     O_3   0.934520 0.782710 0.250000 -0.374807
O20   O     O_3   0.065480 0.217290 0.750000 -0.374807
V1    V     V_3+5 0.159680 0.756060 0.250000 1.419830
V2    V     V_3+5 0.840320 0.243940 0.750000 1.419830
V3    V     V_3+5 0.659680 0.743940 0.250000 1.415102
V4    V     V_3+5 0.340320 0.256060 0.750000 1.415101
C9    C     C_R   0.198596 0.387911 0.640515 -0.158744
C10   C     C_R   0.801422 0.612087 0.359485 -0.159020
C11   C     C_R   0.801406 0.612088 0.140516 -0.158743
C12   C     C_R   0.198575 0.387913 0.859484 -0.159020
C13   C     C_R   0.710121 0.129571 0.874375 -0.163317
C14   C     C_R   0.624046 0.870023 0.131293 -0.169473
C15   C     C_R   0.289871 0.870443 0.374364 -0.163306
C16   C     C_R   0.375957 0.129994 0.631280 -0.169473
H1    H     H_    0.321457 0.387321 0.662273 0.143929
H2    H     H_    0.678573 0.612670 0.337723 0.143970
H3    H     H_    0.678546 0.612677 0.162274 0.143929
H4    H     H_    0.321423 0.387332 0.837722 0.143971
H5    H     H_    0.845446 0.144624 0.865004 0.121459
H6    H     H_    0.752354 0.854434 0.144920 0.128379
H7    H     H_    0.154539 0.855402 0.364984 0.121467
H8    H     H_    0.247651 0.145596 0.644895 0.128366
C17   C     C_R   0.187894 0.424125 0.604478 -0.086189
C18   C     C_R   0.812127 0.575877 0.395525 -0.086303
C19   C     C_R   0.812108 0.575875 0.104478 -0.086187
C20   C     C_R   0.187870 0.424124 0.895524 -0.086302
C21   C     C_R   0.698150 0.094122 0.910970 -0.073332
C22   C     C_R   0.634524 0.906057 0.095238 -0.066846
C23   C     C_R   0.301840 0.905892 0.410959 -0.073337
C24   C     C_R   0.365479 0.093960 0.595224 -0.066862
H9    H     H_    0.300879 0.451087 0.599668 0.148209
H10   H     H_    0.699155 0.548910 0.400333 0.148225
H11   H     H_    0.699125 0.548912 0.099669 0.148210
H12   H     H_    0.300840 0.451092 0.900332 0.148227
H13   H     H_    0.823600 0.082510 0.928917 0.118210
H14   H     H_    0.769516 0.917408 0.082020 0.119092
H15   H     H_    0.176383 0.917516 0.428897 0.118197
H16   H     H_    0.230490 0.082622 0.581994 0.119057
C25   C     C_R   0.031177 0.426017 0.575430 0.174063
C26   C     C_R   0.968832 0.573994 0.424577 0.174240
C27   C     C_R   0.968824 0.573983 0.075430 0.174063
C28   C     C_R   0.031167 0.426006 0.924577 0.174240
C29   C     C_R   0.525291 0.074079 0.924581 0.195450
C30   C     C_R   0.472351 0.927361 0.076360 0.213464
C31   C     C_R   0.474706 0.925921 0.424582 0.195458
C32   C     C_R   0.527649 0.072640 0.576359 0.213482
C33   C     C_R   0.883696 0.391854 0.583630 -0.086319
C34   C     C_R   0.116296 0.608163 0.416380 -0.086462
C35   C     C_R   0.116303 0.608146 0.083629 -0.086320
C36   C     C_R   0.883706 0.391836 0.916381 -0.086464
C37   C     C_R   0.364847 0.089429 0.900712 -0.119776
C38   C     C_R   0.299143 0.911920 0.094060 -0.088439
C39   C     C_R   0.635160 0.910556 0.400724 -0.119770
C40   C     C_R   0.700853 0.088064 0.594073 -0.088437
H17   H     H_    0.761361 0.392783 0.561736 0.109926
H18   H     H_    0.238620 0.607240 0.438279 0.109805
H19   H     H_    0.238637 0.607218 0.061735 0.109926
H20   H     H_    0.761383 0.392758 0.938280 0.109804
H21   H     H_    0.230426 0.074014 0.910495 0.122739
H22   H     H_    0.172232 0.927560 0.079631 0.129143
H23   H     H_    0.769587 0.925960 0.410517 0.122704
H24   H     H_    0.827763 0.072411 0.579655 0.129139
C41   C     C_R   0.892595 0.356318 0.620124 -0.156739
C42   C     C_R   0.107392 0.643696 0.379885 -0.157707
C43   C     C_R   0.107404 0.643682 0.120123 -0.156739
C44   C     C_R   0.892609 0.356303 0.879886 -0.157708
C45   C     C_R   0.376259 0.125076 0.864374 -0.155459
C46   C     C_R   0.288268 0.875846 0.130152 -0.160798
C47   C     C_R   0.623749 0.874910 0.364386 -0.155458
C48   C     C_R   0.711729 0.124138 0.630165 -0.160796
H25   H     H_    0.776371 0.330463 0.625387 0.121417
H26   H     H_    0.223600 0.669558 0.374625 0.120845
H27   H     H_    0.223626 0.669539 0.125385 0.121416
H28   H     H_    0.776403 0.330440 0.874627 0.120844
H29   H     H_    0.249200 0.136293 0.846973 0.133147
H30   H     H_    0.152320 0.864709 0.142829 0.128024
H31   H     H_    0.750816 0.863681 0.346995 0.133132
H32   H     H_    0.847674 0.135262 0.642852 0.128037
C49   C     C_R   0.050616 0.353650 0.648926 -0.056472
C50   C     C_R   0.949386 0.646354 0.351077 -0.056472
C51   C     C_R   0.949385 0.646350 0.148926 -0.056472
C52   C     C_R   0.050613 0.353645 0.851077 -0.056472
C53   C     C_R   0.549037 0.145812 0.850728 -0.050594
C54   C     C_R   0.450701 0.854313 0.149300 -0.053989
C55   C     C_R   0.450963 0.854188 0.350728 -0.050597
C56   C     C_R   0.549299 0.145687 0.649299 -0.053988
C57   C     C_R   0.894170 0.505794 0.540796 0.365266
C58   C     C_R   0.105845 0.494217 0.459212 0.365269
C59   C     C_R   0.105831 0.494206 0.040795 0.365268
C60   C     C_R   0.894153 0.505782 0.959212 0.365269
C61   C     C_R   0.569940 0.985545 0.957114 0.332699
C62   C     C_R   0.427970 0.016312 0.044009 0.356592
C63   C     C_R   0.430162 0.014463 0.457105 0.332696
C64   C     C_R   0.571926 0.983681 0.544017 0.356586
C65   C     C_R   0.873100 0.541237 0.503976 0.180050
C66   C     C_R   0.126917 0.458775 0.496032 0.179998
C67   C     C_R   0.126900 0.458763 0.003976 0.180050
C68   C     C_R   0.873083 0.541225 0.996032 0.179998
C69   C     C_R   0.556187 0.949674 0.993867 0.168780
C70   C     C_R   0.442595 0.052208 0.007499 0.169249
C71   C     C_R   0.443918 0.050334 0.493858 0.168766
C72   C     C_R   0.557297 0.947785 0.507507 0.169236
C73   C     C_R   0.981609 0.535843 0.463108 -0.205298
C74   C     C_R   0.018406 0.464169 0.536900 -0.205261
C75   C     C_R   0.018390 0.464157 0.963108 -0.205298
C76   C     C_R   0.981595 0.535831 0.036900 -0.205261
C77   C     C_R   0.484293 0.964994 0.037448 -0.166624
C78   C     C_R   0.511984 0.036741 0.963602 -0.180962
C79   C     C_R   0.515708 0.035007 0.537448 -0.166641
C80   C     C_R   0.488011 0.963259 0.463602 -0.180981
Cl1   Cl    Cl    0.773438 0.515879 0.593668 -0.593720
Cl2   Cl    Cl    0.226575 0.484133 0.406339 -0.593874
Cl3   Cl    Cl    0.226566 0.484121 0.093667 -0.593724
Cl4   Cl    Cl    0.773421 0.515866 0.906340 -0.593876
Cl5   Cl    Cl    0.652925 0.965621 0.902052 -0.601094
Cl6   Cl    Cl    0.341651 0.036715 0.098565 -0.568625
Cl7   Cl    Cl    0.347306 0.034395 0.402034 -0.601066
Cl8   Cl    Cl    0.658119 0.963270 0.598583 -0.568604
N1    N     N_2   0.750089 0.583741 0.509568 -0.451932
H33   H     H_    0.789579 0.616885 0.492582 0.258121
C81   C     C_3   0.554599 0.572034 0.503606 -0.455984
H34   H     H_    0.525983 0.559645 0.467407 0.168573
H35   H     H_    0.470937 0.606829 0.511111 0.195549
H36   H     H_    0.509338 0.541256 0.527772 0.234273
N2    N     N_2   0.249925 0.416271 0.490439 -0.452016
H37   H     H_    0.210439 0.383126 0.507427 0.258372
C82   C     C_3   0.445417 0.427978 0.496398 -0.455852
H38   H     H_    0.529076 0.393181 0.488895 0.195647
H39   H     H_    0.474043 0.440369 0.532595 0.168591
H40   H     H_    0.490676 0.458752 0.472229 0.234214
N3    N     N_2   0.249911 0.416259 0.009568 -0.451933
H41   H     H_    0.210419 0.383114 0.992582 0.258120
C83   C     C_3   0.445400 0.427966 0.003605 -0.455987
H42   H     H_    0.529062 0.393171 0.011109 0.195548
H43   H     H_    0.490664 0.458744 0.027771 0.234273
H44   H     H_    0.474015 0.440354 0.967406 0.168577
N4    N     N_2   0.750074 0.583729 0.990439 -0.452016
H45   H     H_    0.789562 0.616874 0.007427 0.258371
C84   C     C_3   0.554583 0.572023 0.996399 -0.455854
H46   H     H_    0.470924 0.606818 0.988896 0.195647
H47   H     H_    0.525959 0.559631 0.032597 0.168594
H48   H     H_    0.509322 0.541247 0.972230 0.234214
N5    N     N_2   0.613579 0.897846 0.987259 -0.509683
H49   H     H_    0.731256 0.893539 0.967187 0.302594
C85   C     C_3   0.465632 0.863133 0.973957 -0.439904
H50   H     H_    0.520201 0.823332 0.972289 0.194664
H51   H     H_    0.410075 0.873791 0.939194 0.235180
H52   H     H_    0.351406 0.864071 0.999936 0.184490
N6    N     N_2   0.389335 0.104077 0.015760 -0.466053
H53   H     H_    0.314814 0.120845 0.989218 0.249542
C86   C     C_3   0.538092 0.136593 0.032575 -0.401886
H54   H     H_    0.647384 0.140862 0.005524 0.157536
H55   H     H_    0.600478 0.120155 0.064639 0.242686
H56   H     H_    0.482128 0.175173 0.041048 0.196821
N7    N     N_2   0.386633 0.102170 0.487242 -0.509671
H57   H     H_    0.268998 0.106492 0.467158 0.302600
C87   C     C_3   0.534667 0.136860 0.473954 -0.439907
H58   H     H_    0.480174 0.176670 0.472278 0.194670
H59   H     H_    0.590262 0.126193 0.439197 0.235177
H60   H     H_    0.648847 0.135909 0.499945 0.184483
N8    N     N_2   0.610451 0.895909 0.515775 -0.466047
H61   H     H_    0.684976 0.879129 0.489241 0.249548
C88   C     C_3   0.461612 0.863415 0.532580 -0.401883
H62   H     H_    0.352350 0.859160 0.505519 0.157525
H63   H     H_    0.399213 0.879864 0.564637 0.242687
H64   H     H_    0.517494 0.824828 0.541059 0.196828

loop_
_geom_bond_atom_site_label_1
_geom_bond_atom_site_label_2
_ccdc_geom_bond_type
O17   V3    S    
C85   H50   S    
O18   V4    S    
C84   H46   S    
O12   V1    S    
C12   C52   A    
C72   N8    S    
C63   Cl7   S    
N5    H49   S    
C29   C37   A    
C81   H34   S    
C10   H2    S    
C21   C29   A    
C36   H20   S    
C39   H23   S    
C25   C74   S    
C27   C35   A    
C25   C33   A    
O15   V4    S    
N6    C86   S    
O14   V4    S    
N7    H57   S    
O16   V3    S    
C48   C56   A    
O11   C3    A    
C29   C78   S    
C17   C25   A    
O8    V1    S    
C81   H35   S    
C71   C79   A    
C87   H59   S    
N8    C88   S    
C30   C38   A    
O6    C7    A    
C9    C17   A    
C7    C49   S    
O1    V3    S    
C17   H9    S    
O19   V1    S    
C68   C76   A    
O3    C2    A    
O2    V4    S    
C37   C45   A    
C88   H63   S    
C20   H12   S    
N4    H45   S    
C21   H13   S    
C44   C52   A    
N3    H41   S    
C15   C23   A    
C27   C76   S    
O11   V2    S    
C16   C24   A    
C64   Cl8   S    
C30   C77   S    
N2    H37   S    
C24   H16   S    
C40   C48   A    
C69   N5    S    
C13   C53   A    
C12   C20   A    
O9    V1    S    
C26   C73   S    
C13   C21   A    
C38   H22   S    
O15   C7    A    
C37   H21   S    
C14   C22   A    
O16   C8    A    
O7    V2    S    
N2    C82   S    
N5    C85   S    
O3    V4    S    
C34   H18   S    
C61   C78   A    
C1    C55   S    
C33   H17   S    
N1    C81   S    
C47   H31   S    
N1    H33   S    
C19   H11   S    
O5    V1    S    
C59   C76   A    
C3    C53   S    
C2    C56   S    
C85   H52   S    
C10   C18   A    
C59   C67   A    
C57   C74   A    
C10   C50   A    
C11   C51   A    
C43   C51   A    
C81   H36   S    
C9    C49   A    
C42   C50   A    
C16   C56   A    
N7    C87   S    
C45   H29   S    
C31   C80   S    
C32   C79   S    
C67   N3    S    
C24   C32   A    
C46   C54   A    
C31   C39   A    
C32   C40   A    
C23   H15   S    
C18   H10   S    
N3    C83   S    
C88   H64   S    
C61   Cl5   S    
C87   H58   S    
C39   C47   A    
C26   C34   A    
C85   H51   S    
O10   V2    S    
C83   H42   S    
C22   C30   A    
C8    C50   S    
C86   H56   S    
O12   C4    A    
C83   H43   S    
O8    C5    A    
C83   H44   S    
O13   C5    A    
C19   C27   A    
C42   H26   S    
C82   H40   S    
C18   C26   A    
C46   H30   S    
C82   H39   S    
C5    C51   S    
C62   C77   A    
C36   C44   A    
C4    C54   S    
O4    C1    A    
O9    C1    A    
C41   C49   A    
O6    V2    S    
C59   Cl3   S    
C84   H48   S    
C48   H32   S    
C11   C19   A    
O14   C6    A    
C71   N7    S    
C58   C73   A    
C57   Cl1   S    
C87   H60   S    
C14   C54   A    
C13   H5    S    
C11   H3    S    
C44   H28   S    
C15   H7    S    
C69   C77   A    
C16   H8    S    
O1    C4    A    
C60   C68   A    
C67   C75   A    
O2    C3    A    
O13   V3    S    
C65   C73   A    
C62   Cl6   S    
C20   C28   A    
C64   C72   A    
C38   C46   A    
C28   C75   S    
C35   C43   A    
C28   C36   A    
O7    C6    A    
C22   H14   S    
C63   C80   A    
C60   C75   A    
C64   C79   A    
C9    H1    S    
C66   N2    S    
C68   N4    S    
C72   C80   A    
C33   C41   A    
N8    H61   S    
C40   H24   S    
N6    H53   S    
C47   C55   A    
C15   C55   A    
C35   H19   S    
O5    C8    A    
O10   C2    A    
C6    C52   S    
C34   C42   A    
O20   V2    S    
C86   H55   S    
C65   N1    S    
C58   Cl2   S    
C88   H62   S    
C14   H6    S    
O4    V3    S    
C12   H4    S    
C58   C66   A    
C57   C65   A    
C70   C78   A    
C84   H47   S    
C86   H54   S    
C41   H25   S    
N4    C84   S    
C62   C70   A    
C43   H27   S    
C82   H38   S    
C61   C69   A    
C66   C74   A    
C23   C31   A    
C70   N6    S    
C45   C53   A    
C60   Cl4   S    
C63   C71   A    
