data_mof_unit_6507.cif
_audit_creation_date              2013-03-05T16:11:29-0500
_audit_creation_method            fapswitch 2.2
_symmetry_space_group_name_H-M    P1
_symmetry_Int_Tables_number       1
_space_group_crystal_system       triclinic
_cell_length_a                    9.532775
_cell_length_b                    10.905647
_cell_length_c                    17.253815
_cell_angle_alpha                 90.007038
_cell_angle_beta                  84.8691
_cell_angle_gamma                 91.100026
_cell_volume                      1786.20619014

loop_
_atom_site_label
_atom_site_type_symbol
_atom_site_description
_atom_site_fract_x
_atom_site_fract_y
_atom_site_fract_z
_atom_type_partial_charge
O1    O     O_R   0.379740 0.682430 0.499960 -0.560905
O2    O     O_R   0.620260 0.682190 0.500020 -0.604377
C1    C     C_R   0.501627 0.739090 0.497820 0.883938
O3    O     O_R   0.365800 0.500150 0.613560 -0.522565
O4    O     O_R   0.606310 0.499910 0.613620 -0.600260
C2    C     C_R   0.480429 0.502486 0.649618 0.877903
Cu1   Cu    Cu3+1 0.357600 0.500140 0.499960 1.080811
Cu2   Cu    Cu3+1 0.642400 0.499860 0.500040 1.009038
O5    O     O_R   0.379740 0.317810 0.499980 -0.542165
O6    O     O_R   0.620260 0.317570 0.500040 -0.562448
O7    O     O_R   0.393690 0.500090 0.386380 -0.560502
O8    O     O_R   0.634200 0.499850 0.386440 -0.558941
C3    C     C_R   0.498797 0.259655 0.503749 0.914643
C4    C     C_R   0.519965 0.499545 0.350390 0.889213
C5    C     C_R   0.469112 0.510728 0.734042 -0.033876
C6    C     C_R   0.556850 0.593639 0.769708 -0.150450
C7    C     C_R   0.555436 0.595924 0.850305 0.011587
C8    C     C_R   0.472057 0.510352 0.895511 0.143467
C9    C     C_R   0.378102 0.432953 0.860039 -0.081519
C10   C     C_R   0.375841 0.433746 0.779564 -0.062329
C11   C     C_R   0.481101 0.595883 0.145210 0.288413
C12   C     C_R   0.457528 0.583844 0.225883 -0.080115
C13   C     C_R   0.635332 0.428560 0.225413 -0.190553
C14   C     C_R   0.654357 0.432018 0.144362 0.346188
C15   C     C_R   0.577994 0.517172 0.103586 -0.164856
C16   C     C_2   0.477080 0.501989 0.980091 -0.214948
C17   C     C_2   0.594015 0.519206 0.017759 0.371506
C18   C     C_R   0.535920 0.502474 0.265868 -0.140966
H1    H     H_    0.383050 0.642523 0.258059 0.232937
H2    H     H_    0.693804 0.363921 0.256815 0.229138
H3    H     H_    0.378057 0.479775 0.014011 0.172759
H4    H     H_    0.621621 0.662530 0.876951 0.190775
C19   C     C_3   0.430716 0.927879 0.424689 0.483689
C20   C     C_3   0.409925 0.069243 0.440141 0.012529
C21   C     C_3   0.439195 0.918843 0.581688 0.028918
C22   C     C_3   0.656215 0.931110 0.491329 -0.446877
C23   C     C_3   0.502231 0.876009 0.498096 -0.260068
H5    H     H_    0.711741 0.907143 0.543218 0.222474
H6    H     H_    0.723513 0.893734 0.441360 0.271488
C24   C     C_3   0.497640 0.119913 0.507679 -0.283483
C25   C     C_3   0.455732 0.063395 0.593687 0.475488
C26   C     C_3   0.650590 0.072305 0.483943 -0.390537
H7    H     H_    0.729056 0.113114 0.520467 0.280623
H8    H     H_    0.512619 0.876165 0.619870 0.146171
C27   C     C_3   0.911744 0.372481 0.504867 0.212791
H9    H     H_    0.849254 0.328222 0.555076 0.169553
C28   C     C_3   0.072348 0.374822 0.521036 0.221419
H10   H     H_    0.127131 0.304722 0.485822 0.221087
C29   C     C_3   0.930147 0.558858 0.427245 -0.195065
C30   C     C_3   0.908652 0.571795 0.564237 -0.307508
N1    N     N_3   0.856560 0.499750 0.498270 -0.228367
N2    N     N_3   0.143860 0.496700 0.498910 -0.269321
C31   C     C_3   0.095059 0.537264 0.421328 0.182982
C32   C     C_3   0.075443 0.589610 0.554094 -0.217151
H11   H     H_    0.098778 0.683704 0.532014 0.216747
H12   H     H_    0.626383 0.656325 0.735119 0.159953
N3    N     N_R   0.746771 0.345214 0.104595 0.171648
O9    O     O_R   0.705046 0.281686 0.046790 -0.248842
O10   O     O_R   0.862213 0.314706 0.134033 -0.227640
N4    N     N_R   0.296546 0.864376 0.409754 0.145484
O11   O     O_R   0.187361 0.863122 0.460070 -0.305445
O12   O     O_R   0.280265 0.819146 0.341219 -0.286680
N5    N     N_R   0.528148 0.910687 0.353046 0.107369
O13   O     O_R   0.586259 0.804625 0.340177 -0.371136
O14   O     O_R   0.520361 0.981539 0.292852 -0.253895
H13   H     H_    0.456646 0.120588 0.388164 0.149912
N6    N     N_R   0.261813 0.102658 0.445188 0.163647
O15   O     O_R   0.184378 0.097466 0.510720 -0.236483
O16   O     O_R   0.199946 0.107138 0.381035 -0.181580
N7    N     N_R   0.302332 0.860883 0.609765 0.169714
O17   O     O_R   0.182321 0.910726 0.600598 -0.199784
O18   O     O_R   0.301871 0.767950 0.657167 -0.360840
N8    N     N_R   0.330672 0.116752 0.636169 0.200827
O19   O     O_R   0.323854 0.235091 0.637914 -0.327064
O20   O     O_R   0.276035 0.061096 0.698862 -0.197964
H14   H     H_    0.684916 0.099082 0.422856 0.260626
N9    N     N_R   0.571703 0.089249 0.644067 0.099692
O21   O     O_R   0.626196 0.199546 0.645269 -0.336726
O22   O     O_R   0.584849 0.020667 0.704716 -0.282312
N10   N     N_R   0.893002 0.293098 0.436866 0.123631
O23   O     O_R   0.938929 0.181632 0.436897 -0.282748
O24   O     O_R   0.820848 0.325145 0.380133 -0.332805
N11   N     N_R   0.080806 0.333554 0.602340 0.144225
O25   O     O_R   0.032190 0.224397 0.621801 -0.222867
O26   O     O_R   0.115489 0.404741 0.658027 -0.333951
H15   H     H_    0.885095 0.529814 0.373399 0.247433
N12   N     N_R   0.132516 0.456277 0.354305 0.150883
O27   O     O_R   0.192751 0.351420 0.360278 -0.275590
O28   O     O_R   0.112348 0.495218 0.284938 -0.291294
H16   H     H_    0.858398 0.663019 0.568070 0.197535
H17   H     H_    0.877241 0.525033 0.620581 0.215000
H18   H     H_    0.121537 0.594525 0.610301 0.261093
H19   H     H_    0.911070 0.659425 0.428523 0.160835
H20   H     H_    0.147892 0.626790 0.405923 0.175814
N13   N     N_R   0.733206 0.530833 0.977939 0.142069
O29   O     O_R   0.829827 0.594772 0.009357 -0.253009
O30   O     O_R   0.770225 0.461459 0.918477 -0.271678
H21   H     H_    0.309443 0.369429 0.894462 0.189700
N14   N     N_R   0.409117 0.690176 0.106916 0.148030
O31   O     O_R   0.284457 0.723739 0.134961 -0.227326
O32   O     O_R   0.474673 0.753972 0.050591 -0.276790
H22   H     H_    0.305558 0.370831 0.753286 0.241207

loop_
_geom_bond_atom_site_label_1
_geom_bond_atom_site_label_2
_geom_bond_distance
_ccdc_geom_bond_type
N12   O27   1.297633 A    
N5    O14   1.302846 A    
C12   H1    1.081038 S    
N8    O19   1.293655 A    
C17   N13   1.441954 S    
N13   O29   1.301150 A    
C8    C16   1.467286 S    
C20   H13   1.111417 S    
Cu1   Cu2   2.715119 S    
N9    O21   1.301956 A    
Cu1   O7    1.959121 S    
C16   C17   1.349720 D    
C30   C32   1.592102 S    
C20   C24   1.587074 S    
C22   C23   1.570017 S    
C21   C23   1.585901 S    
Cu1   N2    2.038861 S    
C25   N9    1.489006 S    
O4    C2    1.301740 A    
C11   N14   1.439875 S    
O7    C4    1.304309 A    
N3    O10   1.301459 A    
C10   H22   1.077888 S    
C27   N1    1.501626 S    
C5    C6    1.399531 A    
N4    O12   1.302087 A    
C8    C9    1.399334 A    
C27   C28   1.580300 S    
O5    C3    1.317350 A    
C3    C24   1.525281 S    
C2    C5    1.453864 S    
C22   C26   1.547454 S    
C30   H16   1.111860 S    
N11   O25   1.302203 A    
C21   N7    1.480462 S    
C6    C7    1.389688 A    
C29   N1    1.496129 S    
C13   C14   1.394406 A    
N7    O17   1.298297 A    
C28   N11   1.482799 S    
C19   N5    1.492338 S    
C24   C26   1.576504 S    
C16   H3    1.088445 S    
C12   C18   1.392734 A    
C11   C12   1.395749 A    
N8    O20   1.302680 A    
O3    Cu1   1.968566 S    
C9    H21   1.083615 S    
N2    C32   1.507533 S    
C19   C20   1.577743 S    
N9    O22   1.302828 A    
C5    C10   1.399596 A    
N6    O15   1.294472 A    
C13   H2    1.081844 S    
C14   C15   1.415977 A    
N10   O24   1.297358 A    
C14   N3    1.437621 S    
C30   N1    1.498421 S    
C27   H9    1.111337 S    
C19   C23   1.599476 S    
N4    O11   1.294224 A    
O1    C1    1.303079 A    
C6    H12   1.083889 S    
C32   H18   1.100784 S    
C28   H10   1.088473 S    
Cu2   O8    1.968563 S    
C7    C8    1.404220 A    
C31   N12   1.477447 S    
C13   C18   1.394968 A    
C21   H8    1.111571 S    
Cu2   N1    2.039058 S    
O3    C2    1.304724 A    
C24   C25   1.620620 S    
N14   O32   1.301498 A    
O8    C4    1.301456 A    
C19   N4    1.485532 S    
N12   O28   1.301605 A    
C26   H7    1.107317 S    
N2    C31   1.524251 S    
Cu1   O5    2.003625 S    
C11   C15   1.420356 A    
C32   H11   1.106251 S    
N11   O26   1.296905 A    
C31   H20   1.111210 S    
O1    Cu1   1.995129 S    
C29   H15   1.101802 S    
C22   H6    1.109976 S    
O2    Cu2   2.003626 S    
N10   O23   1.299945 A    
O6    C3    1.304747 A    
C20   N6    1.460017 S    
O4    Cu2   1.959123 S    
N13   O30   1.301835 A    
C28   N2    1.515229 S    
C15   C17   1.475181 S    
C26   H14   1.112633 S    
N14   O31   1.301576 A    
C29   H19   1.115057 S    
C4    C18   1.452926 S    
C9    C10   1.390630 A    
C22   H5    1.113629 S    
O2    C1    1.303861 A    
N3    O9    1.301204 A    
C29   C31   1.588326 S    
C27   N10   1.479618 S    
C21   C25   1.596581 S    
C25   N8    1.472193 S    
N5    O13   1.302531 A    
C30   H17   1.112213 S    
C1    C23   1.493098 S    
Cu2   O6    1.995129 S    
C7    H4    1.082259 S    
N7    O18   1.302106 A    
N6    O16   1.301270 A    
