data_mof_unit_55998.cif
_audit_creation_date              2012-10-26T19:49:59-0400
_audit_creation_method            fapswitch 2.2
_symmetry_space_group_name_H-M    P1
_symmetry_Int_Tables_number       1
_space_group_crystal_system       triclinic
_cell_length_a                    15.147378
_cell_length_b                    13.892045
_cell_length_c                    10.747068
_cell_angle_alpha                 89.617772
_cell_angle_beta                  91.754937
_cell_angle_gamma                 89.253677
_cell_volume                      2260.17558551

loop_
_atom_site_label
_atom_site_type_symbol
_atom_type_description
_atom_site_fract_x
_atom_site_fract_y
_atom_site_fract_z
_atom_type_partial_charge
C1    C     C_R   0.329859 0.500602 0.502714 0.540177
C2    C     C_R   0.950371 0.500413 0.494470 -0.018199
C3    C     C_R   0.544427 0.102299 0.585481 0.267425
C4    C     C_R   0.444453 0.110505 0.407120 0.188077
C5    C     C_R   0.549316 0.203059 0.583838 0.318771
C6    C     C_R   0.445433 0.213511 0.414799 0.353148
C7    C     C_R   0.494858 0.053986 0.493875 -0.016026
C8    C     C_R   0.417837 0.892352 0.500015 0.219262
C9    C     C_R   0.576843 0.892762 0.487235 0.200971
C10   C     C_R   0.421502 0.790856 0.501671 0.017926
C11   C     C_R   0.576758 0.791329 0.493244 0.035132
C12   C     C_R   0.669768 0.499390 0.500844 0.526381
C13   C     C_R   0.496243 0.945199 0.491168 0.061826
C14   C     C_R   0.512173 0.500206 0.263021 0.612971
C15   C     C_R   0.516489 0.500846 0.736900 0.560973
C16   C     C_R   0.600212 0.666949 0.139142 0.273981
C17   C     C_R   0.584634 0.683046 0.881007 0.275728
C18   C     C_R   0.605557 0.757162 0.082086 -0.141717
C19   C     C_R   0.595480 0.765386 0.954589 -0.143132
C20   C     C_R   0.561640 0.593354 0.938096 -0.036329
C21   C     C_R   0.564503 0.588432 0.071034 -0.041142
C22   C     C_R   0.539899 0.501481 0.131165 -0.039872
C23   C     C_R   0.232959 0.501770 0.504483 0.008407
C24   C     C_R   0.545402 0.505386 0.871377 -0.056290
C25   C     C_R   0.550631 0.414733 0.065697 0.248606
C26   C     C_R   0.563176 0.418522 0.936918 0.248450
C27   C     C_R   0.092949 0.583303 0.535210 -0.051248
C28   C     C_R   0.907190 0.542952 0.594211 -0.053888
C29   C     C_R   0.184627 0.582530 0.547207 0.236312
C30   C     C_R   0.815717 0.542547 0.599895 0.218934
C31   C     C_3   0.636486 0.288448 0.141959 0.018859
C32   C     C_3   0.646958 0.232836 0.263726 -0.374270
C33   C     C_3   0.696726 0.375234 0.860874 -0.004104
C34   C     C_R   0.765865 0.497999 0.503269 0.021535
C35   C     C_3   0.762386 0.290887 0.864005 -0.370498
C36   C     C_3   0.312010 0.945114 0.628947 -0.006525
C37   C     C_3   0.226259 0.002741 0.634970 -0.343422
C38   C     C_3   0.686779 0.948677 0.368032 -0.011293
C39   C     C_3   0.774566 0.000522 0.371815 -0.351268
C40   C     C_3   0.544432 0.039085 0.782786 0.021109
C41   C     C_3   0.606062 0.046657 0.896653 -0.350142
C42   C     C_3   0.437090 0.051378 0.210212 -0.020577
C43   C     C_3   0.377330 0.002338 0.114366 -0.353540
C44   C     C_R   0.187217 0.421577 0.458335 -0.159027
C45   C     C_R   0.808828 0.453453 0.405078 -0.144322
C46   C     C_R   0.095394 0.421351 0.453299 -0.136111
C47   C     C_R   0.900500 0.455151 0.400110 -0.129523
C48   C     C_R   0.047508 0.502221 0.491756 -0.017101
Cu1   Cu    Cu3+1 0.500000 0.596430 0.500000 1.002513
Cu2   Cu    Cu3+1 0.500000 0.403570 0.500000 1.017532
H1    H     H_    0.360266 0.752591 0.505093 0.187444
H2    H     H_    0.932168 0.422455 0.321619 0.117922
H3    H     H_    0.688787 0.344395 0.141611 0.104164
H4    H     H_    0.647484 0.236449 0.066240 0.170721
H5    H     H_    0.636266 0.281410 0.343105 0.200341
H6    H     H_    0.599322 0.173030 0.265948 0.126401
H7    H     H_    0.714920 0.202281 0.272680 0.076930
H8    H     H_    0.721541 0.428391 0.930903 0.120636
H9    H     H_    0.698397 0.409488 0.767676 0.134691
H10   H     H_    0.739384 0.231150 0.804182 0.217417
H11   H     H_    0.826793 0.315584 0.829817 0.113540
H12   H     H_    0.639390 0.753496 0.494017 0.171159
H13   H     H_    0.773513 0.263612 0.960394 0.103951
H14   H     H_    0.363021 0.982591 0.686844 0.098546
H15   H     H_    0.301003 0.872063 0.668479 0.145757
H16   H     H_    0.173296 0.966717 0.579577 0.174483
H17   H     H_    0.205962 0.008112 0.733127 0.093685
H18   H     H_    0.235583 0.076426 0.597198 0.165228
H19   H     H_    0.639309 0.991684 0.308728 0.103010
H20   H     H_    0.697417 0.876719 0.325963 0.103093
H21   H     H_    0.824864 0.957003 0.425355 0.166953
H22   H     H_    0.797454 0.011568 0.275641 0.087594
H23   H     H_    0.626253 0.819537 0.134669 0.078507
H24   H     H_    0.766963 0.071627 0.417164 0.168850
H25   H     H_    0.671641 0.710062 0.281682 0.304164
H26   H     H_    0.629915 0.753484 0.738681 0.329178
H27   H     H_    0.275061 0.636573 0.655199 0.329008
H28   H     H_    0.716858 0.564696 0.707178 0.347663
H29   H     H_    0.515019 0.966223 0.781397 0.106809
H30   H     H_    0.490084 0.093428 0.792885 0.128942
H31   H     H_    0.662494 0.995412 0.889500 0.154472
H32   H     H_    0.632041 0.120735 0.903078 0.191358
H33   H     H_    0.569941 0.030238 0.982397 0.069657
H34   H     H_    0.608031 0.834409 0.912112 0.101262
H35   H     H_    0.495775 0.003878 0.228249 0.108013
H36   H     H_    0.458338 0.121206 0.170144 0.157260
H37   H     H_    0.413383 0.990333 0.027295 0.080123
H38   H     H_    0.355950 0.931707 0.151045 0.177943
H39   H     H_    0.318161 0.048231 0.092896 0.160198
H40   H     H_    0.614533 0.308832 0.648135 0.377739
H41   H     H_    0.352266 0.229280 0.286076 0.334605
H42   H     H_    0.057102 0.646765 0.564577 0.136873
H43   H     H_    0.944647 0.575038 0.670359 0.137899
H44   H     H_    0.222477 0.358719 0.425768 0.161026
H45   H     H_    0.771136 0.419385 0.330643 0.114692
H46   H     H_    0.062002 0.357275 0.421206 0.119120
N1    N     N_R   0.500000 0.258690 0.500000 -0.277272
N2    N     N_R   0.500000 0.741330 0.500000 -0.268830
O1    O     O_R   0.371460 0.581430 0.500010 -0.516178
O2    O     O_3   0.609151 0.343909 0.882400 -0.523093
O3    O     O_3   0.336993 0.939257 0.503798 -0.512307
O4    O     O_3   0.656635 0.939944 0.490243 -0.519323
O5    O     O_3   0.641313 0.650834 0.254001 -0.678575
O6    O     O_3   0.609512 0.687818 0.758890 -0.669109
O7    O     O_3   0.223553 0.660400 0.604442 -0.718028
O8    O     O_3   0.778892 0.584530 0.702365 -0.696421
O9    O     O_3   0.594023 0.051337 0.674538 -0.485439
O10   O     O_3   0.390066 0.065756 0.320039 -0.527052
O11   O     O_3   0.605097 0.242069 0.671133 -0.654613
O12   O     O_R   0.628540 0.581430 0.499990 -0.458248
O13   O     O_3   0.392253 0.270137 0.336770 -0.631382
O14   O     O_R   0.371470 0.418560 0.500010 -0.458685
O15   O     O_R   0.628530 0.418560 0.499990 -0.577801
O16   O     O_R   0.500000 0.581450 0.319650 -0.457564
O17   O     O_R   0.500000 0.581450 0.680350 -0.447688
O18   O     O_R   0.500010 0.418580 0.319650 -0.409028
O19   O     O_R   0.499990 0.418580 0.680350 -0.485897
O20   O     O_3   0.549685 0.326834 0.127997 -0.511938

loop_
_geom_bond_atom_site_label_1
_geom_bond_atom_site_label_2
_ccdc_geom_bond_type
C27   C48   A    
H26   O6    S    
C38   H20   S    
C8    C13   A    
C27   C29   A    
Cu2   O19   S    
C6    O13   S    
C11   H12   S    
C25   O20   S    
C1    O1    A    
C12   O12   A    
C4    O10   S    
C33   H8    S    
C11   N2    A    
C43   H38   S    
C23   C29   A    
C36   C37   S    
C17   O6    S    
C24   C26   A    
C3    C7    A    
C1    O14   A    
C38   C39   S    
C41   H33   S    
C37   H18   S    
C17   C20   A    
C18   C19   A    
C39   H24   S    
H41   O13   S    
C10   N2    A    
C9    C13   A    
C17   C19   A    
Cu1   N2    S    
C20   C24   A    
C9    O4    S    
C22   C25   A    
C39   H22   S    
C40   H30   S    
C42   H36   S    
C8    O3    S    
C32   H5    S    
C36   O3    S    
Cu1   O16   S    
C38   H19   S    
C33   H9    S    
C21   C22   A    
C30   O8    S    
H25   O5    S    
C29   O7    S    
C32   H7    S    
C4    C7    A    
C10   H1    S    
C44   C46   A    
C45   C47   A    
C46   C48   A    
C30   C34   A    
C6    N1    A    
C4    C6    A    
C34   C45   A    
C36   H15   S    
C3    O9    S    
C25   C26   A    
C14   O16   A    
C23   C44   A    
C15   O19   A    
C28   H43   S    
C31   O20   S    
Cu1   O1    S    
C16   O5    S    
C31   C32   S    
C41   H31   S    
C37   H16   S    
Cu2   O14   S    
C40   H29   S    
C27   H42   S    
C35   H11   S    
C42   H35   S    
C43   H39   S    
C31   H3    S    
C9    C11   A    
C40   O9    S    
C8    C10   A    
C40   C41   S    
Cu1   O17   S    
C5    N1    A    
C1    C23   S    
C18   H23   S    
C15   O17   A    
C42   C43   S    
C12   C34   S    
C19   H34   S    
C45   H45   S    
C12   O15   A    
C15   C24   S    
Cu2   N1    S    
C3    C5    A    
C2    C28   A    
C16   C21   A    
C47   H2    S    
C2    C47   A    
H28   O8    S    
Cu2   O15   S    
C2    C48   S    
C33   O2    S    
C28   C30   A    
C43   H37   S    
C38   O4    S    
C14   C22   S    
C5    O11   S    
C14   O18   A    
C41   H32   S    
C37   H17   S    
H27   O7    S    
C33   C35   S    
Cu2   O18   S    
C31   H4    S    
C44   H44   S    
C7    C13   S    
C46   H46   S    
C20   C21   A    
C16   C18   A    
Cu1   Cu2   S    
C39   H21   S    
C35   H10   S    
C35   H13   S    
H40   O11   S    
C36   H14   S    
C42   O10   S    
C32   H6    S    
C26   O2    S    
Cu1   O12   S    
