data_mof_unit_60336.cif
_audit_creation_date              2012-12-10T19:27:52-0500
_audit_creation_method            fapswitch 2.2
_symmetry_space_group_name_H-M    P1
_symmetry_Int_Tables_number       1
_space_group_crystal_system       triclinic
_cell_length_a                    30.752832
_cell_length_b                    30.7528
_cell_length_c                    32.809448
_cell_angle_alpha                 90.002216
_cell_angle_beta                  89.998194
_cell_angle_gamma                 89.995358
_cell_volume                      31029.0658656

loop_
_atom_site_label
_atom_site_type_symbol
_atom_type_description
_atom_site_fract_x
_atom_site_fract_y
_atom_site_fract_z
_atom_type_partial_charge
C1    C     C_R   0.119018 0.380995 0.250006 -0.041639
C2    C     C_R   0.881873 0.381870 0.249998 -0.027996
C3    C     C_R   0.084288 0.415683 0.750045 0.522432
C4    C     C_R   0.584610 0.084609 0.249999 0.519289
C5    C     C_R   0.415440 0.915440 0.750000 0.513317
C6    C     C_R   0.084610 0.415392 0.250001 0.519233
C7    C     C_R   0.915683 0.584287 0.749955 0.522472
C8    C     C_R   0.415326 0.084500 0.750143 0.514975
C9    C     C_R   0.584275 0.915724 0.250000 0.523544
C10   C     C_R   0.915375 0.415379 0.749997 0.518308
C11   C     C_R   0.084277 0.584277 0.250000 0.523568
C12   C     C_R   0.584498 0.915324 0.749855 0.514981
C13   C     C_R   0.380637 0.118545 0.750587 -0.041590
C14   C     C_R   0.415724 0.084276 0.250000 0.523529
C15   C     C_R   0.084329 0.584329 0.750000 0.530574
C16   C     C_R   0.915723 0.415723 0.250000 0.523514
C17   C     C_1   0.499996 0.999994 0.399186 0.012137
C18   C     C_1   0.499993 0.999986 0.600816 0.015263
C19   C     C_1   0.000012 0.500004 0.399186 0.012289
C20   C     C_1   0.000032 0.500006 0.600816 0.017809
C21   C     C_1   0.000006 0.500032 0.899184 0.017806
C22   C     C_1   0.000004 0.500012 0.100814 0.012289
C23   C     C_1   0.499986 0.999993 0.899184 0.015264
C24   C     C_R   0.618129 0.881875 0.249997 -0.027981
C25   C     C_1   0.499994 0.999996 0.100814 0.012137
C26   C     C_1   0.499992 0.999989 0.436785 -0.016171
C27   C     C_1   0.499987 0.999982 0.563216 -0.014387
C28   C     C_1   0.000023 0.500008 0.436786 -0.015915
C29   C     C_1   0.000040 0.500011 0.563217 -0.012992
C30   C     C_1   0.000011 0.500040 0.936783 -0.012994
C31   C     C_1   0.000007 0.500023 0.063214 -0.015916
C32   C     C_1   0.499982 0.999987 0.936783 -0.014386
C33   C     C_1   0.499989 0.999992 0.063214 -0.016171
C34   C     C_R   0.109501 0.338184 0.263810 -0.029411
C35   C     C_R   0.880945 0.380963 0.749987 -0.042178
C36   C     C_R   0.838427 0.606999 0.739796 -0.026505
C37   C     C_R   0.338173 0.890512 0.263790 -0.029676
C38   C     C_R   0.607776 0.160795 0.737595 -0.026687
C39   C     C_R   0.890524 0.661831 0.263783 -0.029366
C40   C     C_R   0.161555 0.392435 0.740790 -0.028864
C41   C     C_R   0.661820 0.109491 0.263819 -0.029373
C42   C     C_R   0.354451 0.874649 0.715175 -0.027428
C43   C     C_R   0.131430 0.637635 0.787036 -0.025575
C44   C     C_R   0.839063 0.392283 0.261983 -0.026561
C45   C     C_R   0.337431 0.108140 0.738647 -0.030067
C46   C     C_R   0.118130 0.618127 0.250002 -0.028200
C47   C     C_R   0.607727 0.839077 0.262017 -0.026551
C48   C     C_R   0.890033 0.338535 0.734885 -0.029446
C49   C     C_R   0.160927 0.607718 0.262027 -0.026799
C50   C     C_R   0.661777 0.890229 0.736995 -0.029420
C51   C     C_R   0.392293 0.160934 0.261999 -0.026589
C52   C     C_R   0.608106 0.837410 0.761274 -0.030055
C53   C     C_R   0.339071 0.107725 0.238006 -0.026554
C54   C     C_R   0.838515 0.390069 0.765079 -0.029431
C55   C     C_R   0.107728 0.660925 0.237978 -0.026802
C56   C     C_R   0.390227 0.161770 0.763054 -0.029406
C57   C     C_R   0.618535 0.880630 0.749404 -0.041576
C58   C     C_R   0.660927 0.892286 0.237980 -0.026588
C59   C     C_R   0.137636 0.631428 0.712964 -0.025575
C60   C     C_R   0.892292 0.339061 0.238013 -0.026561
C61   C     C_R   0.609501 0.161815 0.236171 -0.029375
C62   C     C_R   0.374649 0.854451 0.784825 -0.027415
C63   C     C_R   0.838181 0.609495 0.236202 -0.029413
C64   C     C_R   0.106997 0.338412 0.760123 -0.026522
C65   C     C_R   0.390523 0.838168 0.236220 -0.029673
C66   C     C_R   0.660788 0.107802 0.762405 -0.026691
C67   C     C_R   0.161830 0.390522 0.236209 -0.029363
C68   C     C_R   0.381875 0.118131 0.250004 -0.028001
C69   C     C_R   0.892408 0.661533 0.759288 -0.028865
C70   C     C_R   0.141869 0.305722 0.263249 0.108323
C71   C     C_R   0.805742 0.639093 0.740281 0.111089
C72   C     C_R   0.305710 0.858148 0.263226 0.108429
C73   C     C_R   0.639932 0.193395 0.738284 0.111777
C74   C     C_R   0.858164 0.694300 0.263220 0.108358
C75   C     C_R   0.193825 0.359895 0.740835 0.111125
C76   C     C_R   0.694285 0.141852 0.263262 0.108338
C77   C     C_R   0.321958 0.842297 0.715315 0.108756
C78   C     C_R   0.163808 0.670069 0.787049 0.111072
C79   C     C_R   0.184119 0.315910 0.250009 0.067810
C80   C     C_R   0.806506 0.360069 0.261425 0.111704
C81   C     C_R   0.304861 0.140422 0.738586 0.108932
C82   C     C_R   0.639945 0.806521 0.261465 0.111717
C83   C     C_R   0.857730 0.306022 0.735604 0.108123
C84   C     C_R   0.193488 0.639929 0.261477 0.111805
C85   C     C_R   0.693965 0.857588 0.737513 0.107920
C86   C     C_R   0.360083 0.193498 0.261448 0.111682
C87   C     C_R   0.640380 0.804832 0.761330 0.108947
C88   C     C_R   0.306515 0.139942 0.238562 0.111717
C89   C     C_R   0.805994 0.357774 0.764362 0.108128
C90   C     C_R   0.816602 0.682391 0.749940 0.066316
C91   C     C_R   0.139943 0.693482 0.238531 0.111806
C92   C     C_R   0.357591 0.193963 0.762542 0.107909
C93   C     C_R   0.693489 0.860074 0.238528 0.111682
C94   C     C_R   0.170070 0.663805 0.712950 0.111072
C95   C     C_R   0.860081 0.306500 0.238568 0.111702
C96   C     C_R   0.641866 0.194277 0.236728 0.108338
C97   C     C_R   0.342297 0.821957 0.784683 0.108759
C98   C     C_R   0.805717 0.641861 0.236766 0.108326
C99   C     C_R   0.139097 0.305733 0.759631 0.111081
C100  C     C_R   0.358164 0.805700 0.236786 0.108430
C101  C     C_R   0.315904 0.815889 0.250006 0.068164
C102  C     C_R   0.693378 0.139968 0.761710 0.111778
C103  C     C_R   0.194299 0.358162 0.236771 0.108355
C104  C     C_R   0.859861 0.693797 0.759247 0.111135
C105  C     C_1   0.215341 0.279592 0.174484 0.218121
C106  C     C_1   0.783928 0.717291 0.825452 0.217278
C107  C     C_1   0.279643 0.784607 0.174478 0.217303
C108  C     C_1   0.717373 0.215662 0.825594 0.219946
C109  C     C_1   0.784653 0.720393 0.174466 0.218310
C110  C     C_1   0.214288 0.281268 0.825635 0.216192
C111  C     C_1   0.720483 0.215265 0.174474 0.218258
C112  C     C_R   0.881684 0.618081 0.749730 -0.029261
C113  C     C_R   0.682737 0.182768 0.749995 0.065034
C114  C     C_1   0.338955 0.725808 0.740729 0.213951
C115  C     C_1   0.273214 0.660140 0.740414 0.213828
C116  C     C_1   0.783904 0.283020 0.174402 0.218837
C117  C     C_1   0.278624 0.214329 0.825722 0.215603
C118  C     C_1   0.716889 0.783819 0.174400 0.218858
C119  C     C_1   0.785627 0.278508 0.825452 0.219176
C120  C     C_1   0.216216 0.716857 0.174411 0.217840
C121  C     C_1   0.718896 0.783624 0.825286 0.217471
C122  C     C_1   0.283097 0.216162 0.174413 0.218678
C123  C     C_1   0.714446 0.778735 0.674259 0.215628
C124  C     C_R   0.815908 0.684116 0.249994 0.067806
C125  C     C_1   0.283868 0.216941 0.325602 0.218864
C126  C     C_1   0.778452 0.285670 0.674525 0.219166
C127  C     C_1   0.216875 0.716198 0.325599 0.217843
C128  C     C_1   0.283789 0.219065 0.674712 0.217439
C129  C     C_1   0.716202 0.783141 0.325590 0.218673
C130  C     C_1   0.160141 0.773212 0.759584 0.213827
C131  C     C_1   0.783036 0.283889 0.325590 0.218836
C132  C     C_1   0.715282 0.220466 0.325517 0.218261
C133  C     C_1   0.225809 0.838953 0.759269 0.213948
C134  C     C_1   0.779632 0.715381 0.325522 0.218138
C135  C     C_R   0.182409 0.316618 0.750055 0.066309
C136  C     C_1   0.217459 0.284100 0.674546 0.217282
C137  C     C_1   0.284627 0.779623 0.325533 0.217299
C138  C     C_1   0.715612 0.217410 0.674391 0.219954
C139  C     C_1   0.220440 0.284699 0.325533 0.218293
C140  C     C_1   0.781395 0.714409 0.674354 0.216188
C141  C     C_1   0.066312 0.326308 0.277551 0.247019
C142  C     C_1   0.827635 0.562937 0.727880 0.224411
C143  C     C_1   0.326293 0.933708 0.277514 0.246528
C144  C     C_1   0.564392 0.171075 0.723326 0.224290
C145  C     C_1   0.933723 0.673705 0.277500 0.246830
C146  C     C_R   0.684110 0.184098 0.249995 0.067819
C147  C     C_1   0.173175 0.436859 0.730835 0.217480
C148  C     C_1   0.673689 0.066302 0.277568 0.246986
C149  C     C_1   0.361242 0.899574 0.678219 0.238436
C150  C     C_1   0.111373 0.624725 0.825132 0.224388
C151  C     C_1   0.828587 0.435845 0.275649 0.223960
C152  C     C_1   0.325229 0.063938 0.728369 0.233056
C153  C     C_1   0.564175 0.828613 0.275711 0.223739
C154  C     C_1   0.932683 0.327075 0.719453 0.248807
C155  C     C_1   0.171388 0.564163 0.275720 0.223629
C156  C     C_1   0.674229 0.933670 0.724479 0.245886
C157  C     C_R   0.316085 0.816085 0.749999 0.068598
C158  C     C_1   0.435856 0.171398 0.275661 0.224013
C159  C     C_1   0.563884 0.825205 0.771479 0.233014
C160  C     C_1   0.328600 0.064168 0.224327 0.223751
C161  C     C_1   0.827060 0.432733 0.780479 0.248783
C162  C     C_1   0.064176 0.671391 0.224281 0.223629
C163  C     C_1   0.433657 0.174205 0.775621 0.245936
C164  C     C_1   0.671387 0.935845 0.224304 0.223999
C165  C     C_1   0.124725 0.611371 0.674867 0.224371
C166  C     C_1   0.935856 0.328588 0.224354 0.223958
C167  C     C_1   0.566315 0.173688 0.222416 0.246994
C168  C     C_R   0.183006 0.683005 0.749999 0.067854
C169  C     C_1   0.399573 0.861243 0.821781 0.238432
C170  C     C_1   0.826304 0.566303 0.222470 0.247014
C171  C     C_1   0.062922 0.327594 0.771975 0.224450
C172  C     C_1   0.433723 0.826291 0.222503 0.246522
C173  C     C_1   0.671076 0.064429 0.776697 0.224292
C174  C     C_1   0.173700 0.433717 0.222482 0.246837
C175  C     C_1   0.936814 0.673142 0.769321 0.217408
C176  C     C_3   0.118965 0.233380 0.244128 -0.288383
C177  C     C_3   0.735298 0.616716 0.765051 -0.284818
C178  C     C_3   0.233381 0.881046 0.244052 -0.288914
C179  C     C_R   0.817213 0.317202 0.249996 0.065431
C180  C     C_3   0.617667 0.264901 0.760297 -0.286544
C181  C     C_3   0.881065 0.766625 0.244054 -0.288400
C182  C     C_3   0.264702 0.380764 0.765761 -0.284037
C183  C     C_3   0.766637 0.118923 0.244193 -0.288306
C184  C     C_3   0.310080 0.804594 0.651606 -0.285327
C185  C     C_3   0.212813 0.669836 0.844579 -0.283560
C186  C     C_3   0.735056 0.382327 0.239237 -0.286696
C187  C     C_3   0.232832 0.117911 0.759223 -0.285708
C188  C     C_3   0.617671 0.735050 0.239360 -0.286793
C189  C     C_3   0.881077 0.233326 0.752966 -0.288175
C190  C     C_R   0.315133 0.183169 0.750328 0.068073
C191  C     C_3   0.264961 0.617632 0.239381 -0.287328
C192  C     C_3   0.765962 0.879970 0.758278 -0.286327
C193  C     C_3   0.382363 0.264952 0.239297 -0.286772
C194  C     C_3   0.617894 0.732840 0.740555 -0.285712
C195  C     C_3   0.235053 0.117678 0.260710 -0.286791
C196  C     C_3   0.733304 0.381132 0.746992 -0.288175
C197  C     C_3   0.117657 0.764958 0.260629 -0.287329
C198  C     C_3   0.380016 0.265990 0.741910 -0.286317
C199  C     C_3   0.764954 0.882360 0.260636 -0.286774
C200  C     C_3   0.169837 0.712810 0.655420 -0.283561
C201  C     C_R   0.682800 0.817217 0.249995 0.065437
C202  C     C_3   0.882350 0.235054 0.260756 -0.286695
C203  C     C_3   0.618944 0.266633 0.255794 -0.288306
C204  C     C_3   0.304594 0.810080 0.848392 -0.285331
C205  C     C_3   0.733387 0.618970 0.255927 -0.288387
C206  C     C_3   0.116778 0.235333 0.734706 -0.284817
C207  C     C_3   0.381070 0.733376 0.255964 -0.288914
C208  C     C_3   0.764889 0.117719 0.739699 -0.286546
C209  C     C_3   0.266633 0.381078 0.255900 -0.288394
C210  C     C_3   0.880761 0.764726 0.734474 -0.284036
C211  C     C_R   0.815829 0.315869 0.749986 0.067552
C212  C     C_R   0.380991 0.880986 0.250003 -0.041913
C213  C     C_R   0.182798 0.682786 0.250005 0.065779
C214  C     C_R   0.683147 0.815114 0.749659 0.068059
C215  C     C_R   0.317219 0.182803 0.250007 0.065428
C216  C     C_R   0.283063 0.216968 0.250007 0.024807
C217  C     C_R   0.717150 0.780771 0.749779 0.028088
C218  C     C_R   0.216962 0.716945 0.250005 0.024988
C219  C     C_R   0.781648 0.281695 0.749988 0.025598
C220  C     C_R   0.716964 0.783059 0.249995 0.024807
C221  C     C_R   0.280796 0.217176 0.750210 0.028119
C222  C     C_R   0.783053 0.283039 0.249996 0.024768
C223  C     C_R   0.618099 0.118109 0.749998 -0.028073
C224  C     C_R   0.217158 0.717157 0.749999 0.030008
C225  C     C_R   0.281917 0.781916 0.749999 0.030337
C226  C     C_R   0.718290 0.218275 0.249995 0.026398
C227  C     C_R   0.216355 0.282254 0.750084 0.027154
C228  C     C_R   0.781731 0.718298 0.249994 0.026401
C229  C     C_R   0.716892 0.216933 0.749992 0.023631
C230  C     C_R   0.281726 0.781708 0.250006 0.026592
C231  C     C_R   0.782232 0.716332 0.749910 0.027151
C232  C     C_R   0.218301 0.281734 0.250008 0.026420
C233  C     C_R   0.233645 0.264638 0.212762 -0.021898
C234  C     C_R   0.880995 0.619016 0.249995 -0.041638
C235  C     C_R   0.766754 0.733364 0.787120 -0.022663
C236  C     C_R   0.264659 0.766335 0.212758 -0.021617
C237  C     C_R   0.733997 0.232266 0.787238 -0.022049
C238  C     C_R   0.766368 0.735371 0.212747 -0.021986
C239  C     C_R   0.231436 0.265010 0.787353 -0.022205
C240  C     C_R   0.735411 0.233594 0.212751 -0.021954
C241  C     C_R   0.293612 0.737798 0.745530 -0.022389
C242  C     C_R   0.261235 0.705489 0.745191 -0.022704
C243  C     C_R   0.767436 0.266224 0.212741 -0.022239
C244  C     C_R   0.263583 0.232492 0.787416 -0.021943
C245  C     C_R   0.118087 0.381688 0.750267 -0.029310
C246  C     C_R   0.733734 0.767397 0.212738 -0.022278
C247  C     C_R   0.766746 0.264158 0.787215 -0.021686
C248  C     C_R   0.232632 0.733706 0.212750 -0.021943
C249  C     C_R   0.734271 0.765568 0.787056 -0.022562
C250  C     C_R   0.266275 0.232610 0.212752 -0.022175
C251  C     C_R   0.732537 0.763626 0.712572 -0.021938
C252  C     C_R   0.267422 0.233760 0.287263 -0.022274
C253  C     C_R   0.764107 0.266791 0.712764 -0.021683
C254  C     C_R   0.233724 0.732614 0.287261 -0.021944
C255  C     C_R   0.265663 0.234368 0.712937 -0.022561
C256  C     C_R   0.619014 0.119009 0.249997 -0.041628
C257  C     C_R   0.732628 0.766294 0.287252 -0.022180
C258  C     C_R   0.205490 0.761234 0.754807 -0.022702
C259  C     C_R   0.766240 0.267420 0.287250 -0.022236
C260  C     C_R   0.733610 0.235394 0.287241 -0.021955
C261  C     C_R   0.237799 0.793611 0.754468 -0.022387
C262  C     C_R   0.764655 0.733663 0.287243 -0.021898
C263  C     C_R   0.233459 0.266850 0.712875 -0.022660
C264  C     C_R   0.266354 0.764640 0.287253 -0.021616
C265  C     C_R   0.732218 0.234038 0.712745 -0.022048
C266  C     C_R   0.235396 0.266392 0.287255 -0.021986
C267  C     C_R   0.381117 0.881117 0.750000 -0.038489
C268  C     C_R   0.765058 0.731482 0.712637 -0.022214
C269  C     C_1   0.499987 0.999984 0.481202 0.018675
C270  C     C_1   0.499985 0.999982 0.518800 0.019006
C271  C     C_1   0.000034 0.500011 0.481202 0.019130
C272  C     C_1   0.000040 0.500013 0.518801 0.019764
C273  C     C_1   0.000013 0.500040 0.981199 0.019763
C274  C     C_1   0.000011 0.500034 0.018798 0.019129
C275  C     C_1   0.499982 0.999985 0.981200 0.019006
C276  C     C_1   0.499984 0.999987 0.018798 0.018675
C277  C     C_R   0.499999 0.999999 0.145995 0.493361
C278  C     C_R   0.118273 0.618272 0.750000 -0.025418
C279  C     C_R   0.499994 0.999999 0.854004 0.493442
C280  C     C_R   0.000001 0.500002 0.145995 0.493438
C281  C     C_R   0.000001 0.500013 0.854004 0.498193
C282  C     C_R   0.000013 0.500001 0.645996 0.498196
C283  C     C_R   0.000002 0.500001 0.354005 0.493438
C284  C     C_R   0.499999 0.999994 0.645996 0.493444
C285  C     C_R   0.499999 0.999999 0.354004 0.493361
C286  C     C_R   0.415391 0.915390 0.250000 0.519042
C287  C     C_R   0.584268 0.084268 0.750001 0.524478
C288  C     C_R   0.915393 0.584610 0.249999 0.519231
H1    H     H_    0.112848 0.260470 0.301798 0.270120
H2    H     H_    0.200059 0.885097 0.256511 0.148925
H3    H     H_    0.587431 0.255766 0.268872 0.161820
H4    H     H_    0.364594 0.784134 0.832804 0.272250
H5    H     H_    0.300216 0.785520 0.872850 0.154633
H6    H     H_    0.272644 0.815444 0.833527 0.167137
H7    H     H_    0.315931 0.840990 0.862343 0.158131
H8    H     H_    0.760447 0.612822 0.198248 0.270127
H9    H     H_    0.700068 0.614927 0.243467 0.149320
H10   H     H_    0.732164 0.643890 0.280377 0.166671
H11   H     H_    0.744274 0.587474 0.269026 0.161761
H12   H     H_    0.107004 0.258399 0.793391 0.270388
H13   H     H_    0.232161 0.856121 0.219606 0.166491
H14   H     H_    0.111475 0.201276 0.744773 0.150170
H15   H     H_    0.143267 0.235419 0.711726 0.167393
H16   H     H_    0.086357 0.247671 0.720540 0.164752
H17   H     H_    0.387226 0.760423 0.198283 0.269601
H18   H     H_    0.385127 0.700054 0.243507 0.148928
H19   H     H_    0.356143 0.732153 0.280407 0.166491
H20   H     H_    0.412559 0.744270 0.269069 0.161512
H21   H     H_    0.739661 0.109085 0.797773 0.271511
H22   H     H_    0.798575 0.112973 0.751028 0.149379
H23   H     H_    0.765460 0.143689 0.716201 0.166133
H24   H     H_    0.244269 0.912539 0.230950 0.161513
H25   H     H_    0.753379 0.086868 0.725738 0.164714
H26   H     H_    0.239551 0.387196 0.198230 0.269864
H27   H     H_    0.299947 0.385124 0.243424 0.149184
H28   H     H_    0.267873 0.356168 0.280357 0.166776
H29   H     H_    0.255744 0.412578 0.268993 0.161764
H30   H     H_    0.891853 0.741308 0.792821 0.272614
H31   H     H_    0.885775 0.798766 0.744722 0.152540
H32   H     H_    0.853904 0.764489 0.711885 0.166211
H33   H     H_    0.911098 0.752928 0.719760 0.162013
H34   H     H_    0.609027 0.239667 0.702226 0.271506
H35   H     H_    0.612909 0.298585 0.748968 0.149384
H36   H     H_    0.643642 0.265480 0.783790 0.166132
H37   H     H_    0.586823 0.253382 0.774264 0.164709
H38   H     H_    0.887214 0.739569 0.301733 0.269873
H39   H     H_    0.885116 0.799945 0.256514 0.149187
H40   H     H_    0.856143 0.767851 0.219608 0.166767
H41   H     H_    0.114931 0.200067 0.256607 0.149316
H42   H     H_    0.912558 0.755731 0.230950 0.161759
H43   H     H_    0.241395 0.391954 0.707391 0.272613
H44   H     H_    0.298762 0.385795 0.755579 0.152546
H45   H     H_    0.264421 0.353871 0.788311 0.166213
H46   H     H_    0.252875 0.411078 0.780497 0.161997
H47   H     H_    0.739508 0.112843 0.301849 0.270064
H48   H     H_    0.799942 0.114887 0.256693 0.149338
H49   H     H_    0.767892 0.143816 0.219722 0.166729
H50   H     H_    0.755766 0.087414 0.231112 0.161818
H51   H     H_    0.284132 0.864594 0.667197 0.272248
H52   H     H_    0.143871 0.232144 0.219666 0.166679
H53   H     H_    0.285517 0.800216 0.627149 0.154632
H54   H     H_    0.315446 0.772645 0.666470 0.167138
H55   H     H_    0.340987 0.815933 0.637654 0.158132
H56   H     H_    0.151467 0.697775 0.843588 0.272166
H57   H     H_    0.222167 0.689287 0.871705 0.153820
H58   H     H_    0.241437 0.667712 0.824093 0.167125
H59   H     H_    0.203453 0.636645 0.854695 0.161360
H60   H     H_    0.760169 0.391024 0.297339 0.270963
H61   H     H_    0.701346 0.387107 0.250495 0.148634
H62   H     H_    0.734520 0.356336 0.215760 0.166508
H63   H     H_    0.087460 0.244258 0.231041 0.161764
H64   H     H_    0.746615 0.413156 0.225272 0.164430
H65   H     H_    0.259345 0.109787 0.701568 0.272305
H66   H     H_    0.199417 0.113198 0.747201 0.153540
H67   H     H_    0.231664 0.143673 0.782875 0.166149
H68   H     H_    0.244051 0.086983 0.773226 0.159489
H69   H     H_    0.609036 0.760225 0.297449 0.270755
H70   H     H_    0.612907 0.701352 0.250650 0.148477
H71   H     H_    0.643635 0.734489 0.215858 0.166552
H72   H     H_    0.586825 0.746597 0.225414 0.164362
H73   H     H_    0.885813 0.261527 0.695642 0.270458
H74   H     H_    0.758480 0.607055 0.706389 0.270391
H75   H     H_    0.884805 0.200262 0.739834 0.149991
H76   H     H_    0.856745 0.231619 0.777911 0.166424
H77   H     H_    0.912885 0.243947 0.765584 0.162188
H78   H     H_    0.239776 0.609010 0.297466 0.270645
H79   H     H_    0.298657 0.612860 0.250678 0.148273
H80   H     H_    0.265529 0.643594 0.215879 0.166194
H81   H     H_    0.253414 0.586787 0.225436 0.164103
H82   H     H_    0.740152 0.886858 0.700190 0.269584
H83   H     H_    0.799562 0.883997 0.746488 0.150639
H84   H     H_    0.766561 0.854812 0.782522 0.167591
H85   H     H_    0.701260 0.611433 0.754919 0.150171
H86   H     H_    0.754926 0.911380 0.771450 0.162224
H87   H     H_    0.391024 0.239809 0.297391 0.271018
H88   H     H_    0.387144 0.298654 0.250572 0.148621
H89   H     H_    0.356384 0.265508 0.215810 0.166459
H90   H     H_    0.413197 0.253389 0.225339 0.164367
H91   H     H_    0.609672 0.759260 0.798235 0.272316
H92   H     H_    0.613153 0.699406 0.752522 0.153545
H93   H     H_    0.643699 0.731704 0.716942 0.166142
H94   H     H_    0.586993 0.744087 0.726519 0.159480
H95   H     H_    0.260199 0.109016 0.202614 0.270753
H96   H     H_    0.735342 0.643159 0.788077 0.167393
H97   H     H_    0.201350 0.112910 0.249435 0.148476
H98   H     H_    0.234505 0.143652 0.284202 0.166554
H99   H     H_    0.246605 0.086837 0.274661 0.164360
H100  H     H_    0.761506 0.385882 0.804315 0.270455
H101  H     H_    0.700241 0.384877 0.760123 0.149994
H102  H     H_    0.731588 0.356791 0.722056 0.166425
H103  H     H_    0.743935 0.412932 0.734363 0.162181
H104  H     H_    0.109031 0.739775 0.202543 0.270645
H105  H     H_    0.112890 0.798654 0.249333 0.148271
H106  H     H_    0.143618 0.765521 0.284132 0.166195
H107  H     H_    0.747611 0.586267 0.779184 0.164760
H108  H     H_    0.086811 0.753414 0.274574 0.164104
H109  H     H_    0.386808 0.240084 0.799971 0.269575
H110  H     H_    0.384028 0.299571 0.753753 0.150639
H111  H     H_    0.354896 0.266630 0.717632 0.167597
H112  H     H_    0.411445 0.254971 0.728767 0.162227
H113  H     H_    0.739781 0.890994 0.202549 0.271019
H114  H     H_    0.798652 0.887132 0.249346 0.148622
H115  H     H_    0.765519 0.856395 0.284134 0.166457
H116  H     H_    0.753399 0.913202 0.274586 0.164368
H117  H     H_    0.197775 0.651463 0.656411 0.272167
H118  H     H_    0.260431 0.887202 0.301733 0.269601
H119  H     H_    0.189287 0.722163 0.628293 0.153822
H120  H     H_    0.167713 0.741434 0.675906 0.167123
H121  H     H_    0.136646 0.703449 0.645304 0.161359
H122  H     H_    0.891041 0.260168 0.202654 0.270963
H123  H     H_    0.887135 0.201345 0.249497 0.148636
H124  H     H_    0.856360 0.234514 0.284233 0.166508
H125  H     H_    0.913178 0.246618 0.274720 0.164429
H126  H     H_    0.612863 0.239503 0.198138 0.270063
H127  H     H_    0.614913 0.299938 0.243293 0.149334
H128  H     H_    0.643834 0.267883 0.280268 0.166729
N1    N     N_1   0.200706 0.291545 0.143982 -0.265570
N2    N     N_1   0.797064 0.296455 0.143851 -0.264094
N3    N     N_1   0.290651 0.199804 0.856244 -0.267268
N4    N     N_1   0.703415 0.796943 0.143851 -0.263719
N5    N     N_1   0.800722 0.289976 0.855920 -0.264936
N6    N     N_1   0.203098 0.703380 0.143861 -0.269715
N7    N     N_1   0.706600 0.798065 0.855750 -0.262566
N8    N     N_1   0.296551 0.203018 0.143862 -0.264844
N9    N     N_1   0.699979 0.790817 0.643732 -0.267259
N10   N     N_1   0.297009 0.203488 0.356152 -0.263721
N11   N     N_1   0.789917 0.300763 0.644054 -0.264939
N12   N     N_1   0.797659 0.704430 0.855998 -0.262392
N13   N     N_1   0.203398 0.703080 0.356149 -0.269713
N14   N     N_1   0.298287 0.206826 0.644251 -0.262575
N15   N     N_1   0.703075 0.796617 0.356139 -0.264840
N16   N     N_1   0.123953 0.782702 0.763385 -0.266154
N17   N     N_1   0.796470 0.297049 0.356140 -0.264096
N18   N     N_1   0.700626 0.208533 0.356017 -0.264887
N19   N     N_1   0.216308 0.875135 0.763099 -0.269477
N20   N     N_1   0.791604 0.700762 0.356024 -0.265568
N21   N     N_1   0.204657 0.297891 0.644002 -0.262404
N22   N     N_1   0.299237 0.791600 0.356037 -0.271051
N23   N     N_1   0.291620 0.799217 0.143974 -0.271047
N24   N     N_1   0.702344 0.204111 0.643829 -0.263821
N25   N     N_1   0.208486 0.299336 0.356035 -0.264558
N26   N     N_1   0.794465 0.700763 0.643851 -0.265983
N27   N     N_1   0.031945 0.316646 0.288722 -0.255026
N28   N     N_1   0.819007 0.527822 0.718127 -0.279769
N29   N     N_1   0.316626 0.968081 0.288672 -0.255522
N30   N     N_1   0.529828 0.179272 0.711695 -0.277376
N31   N     N_1   0.968097 0.683365 0.288651 -0.255783
N32   N     N_1   0.182432 0.472342 0.722904 -0.273340
N33   N     N_1   0.683347 0.031934 0.288744 -0.255220
N34   N     N_1   0.704077 0.202396 0.856158 -0.263823
N35   N     N_1   0.366607 0.919403 0.648657 -0.261459
N36   N     N_1   0.095352 0.614403 0.855549 -0.275070
N37   N     N_1   0.820227 0.470564 0.286765 -0.279599
N38   N     N_1   0.315373 0.028673 0.720189 -0.259565
N39   N     N_1   0.529462 0.820264 0.286849 -0.280308
N40   N     N_1   0.966596 0.317741 0.706898 -0.253247
N41   N     N_1   0.179734 0.529449 0.286855 -0.279787
N42   N     N_1   0.684353 0.968234 0.714248 -0.255454
N43   N     N_1   0.470578 0.179748 0.286772 -0.279426
N44   N     N_1   0.528605 0.815347 0.779599 -0.259618
N45   N     N_1   0.799275 0.708420 0.143964 -0.264555
N46   N     N_1   0.320245 0.029453 0.213201 -0.280287
N47   N     N_1   0.817729 0.466658 0.793007 -0.253309
N48   N     N_1   0.029464 0.679742 0.213142 -0.279777
N49   N     N_1   0.468212 0.184315 0.785890 -0.255476
N50   N     N_1   0.679734 0.970564 0.213182 -0.279443
N51   N     N_1   0.114403 0.595349 0.644451 -0.275093
N52   N     N_1   0.970579 0.320232 0.213243 -0.279604
N53   N     N_1   0.531950 0.183348 0.211234 -0.255212
N54   N     N_1   0.419402 0.866609 0.851343 -0.261483
N55   N     N_1   0.816641 0.531933 0.211305 -0.255014
N56   N     N_1   0.200581 0.294275 0.856138 -0.265993
N57   N     N_1   0.027798 0.318944 0.781680 -0.279698
N58   N     N_1   0.468098 0.816628 0.211351 -0.255533
N59   N     N_1   0.679281 0.029875 0.788349 -0.277330
N60   N     N_1   0.183359 0.468089 0.211324 -0.255797
N61   N     N_1   0.972284 0.682391 0.777314 -0.273377
N62   N     N_2   0.132450 0.262472 0.276368 -0.517132
N63   N     N_2   0.761842 0.628453 0.730379 -0.516604
N64   N     N_2   0.262452 0.867582 0.276317 -0.517188
N65   N     N_2   0.629846 0.236972 0.726730 -0.515803
N66   N     N_2   0.867596 0.737555 0.276316 -0.517206
N67   N     N_1   0.708550 0.200609 0.143974 -0.264890
N68   N     N_2   0.237844 0.370101 0.730995 -0.515556
N69   N     N_2   0.737525 0.132432 0.276410 -0.517169
N70   N     N_2   0.294390 0.836154 0.680795 -0.516550
N71   N     N_2   0.176771 0.690651 0.824073 -0.516176
N72   N     N_2   0.762899 0.370161 0.272869 -0.515899
N73   N     N_2   0.261484 0.130393 0.726284 -0.516224
N74   N     N_2   0.629871 0.762926 0.272956 -0.515937
N75   N     N_2   0.866852 0.263049 0.721523 -0.517267
N76   N     N_2   0.237080 0.629844 0.272973 -0.515830
N77   N     N_2   0.737544 0.866939 0.725354 -0.517676
N78   N     N_1   0.375136 0.716308 0.736900 -0.269456
N79   N     N_2   0.370174 0.237097 0.272911 -0.515853
N80   N     N_2   0.630322 0.761436 0.773554 -0.516213
N81   N     N_2   0.262914 0.129863 0.227097 -0.515937
N82   N     N_2   0.763023 0.366910 0.778440 -0.517262
N83   N     N_2   0.129865 0.737076 0.227037 -0.515831
N84   N     N_2   0.366929 0.237521 0.774776 -0.517679
N85   N     N_2   0.737082 0.870157 0.227039 -0.515854
N86   N     N_2   0.190652 0.676768 0.675926 -0.516174
N87   N     N_2   0.870179 0.262894 0.227125 -0.515897
N88   N     N_2   0.632451 0.237517 0.223578 -0.517171
N89   N     N_1   0.282704 0.623952 0.736614 -0.266138
N90   N     N_2   0.336154 0.794390 0.819204 -0.516548
N91   N     N_2   0.762463 0.632437 0.223668 -0.517128
N92   N     N_2   0.128445 0.261812 0.769441 -0.516607
N93   N     N_2   0.367603 0.762443 0.223697 -0.517186
N94   N     N_2   0.736958 0.129897 0.773264 -0.515806
N95   N     N_2   0.237549 0.367590 0.223656 -0.517210
N96   N     N_2   0.870042 0.737799 0.769178 -0.515553
O1    O     O_3   0.500000 0.000000 0.250000 -0.442371
O2    O     O_R   0.500000 0.036350 0.833960 -0.528667
O3    O     O_R   0.963650 0.500000 0.166040 -0.525781
O4    O     O_R   0.036350 0.500000 0.833960 -0.521690
O5    O     O_R   0.000000 0.536350 0.666040 -0.521684
O6    O     O_R   1.000000 0.463650 0.333960 -0.525780
O7    O     O_R   0.536350 0.000000 0.666040 -0.528674
O8    O     O_R   0.463650 0.000000 0.333960 -0.526021
O9    O     O_R   0.000000 0.463650 0.666040 -0.526582
O10   O     O_R   1.000000 0.536350 0.333960 -0.526165
O11   O     O_R   0.463650 0.000000 0.666040 -0.517336
O12   O     O_3   0.500000 0.000000 0.750000 -0.443499
O13   O     O_R   0.536350 0.000000 0.333960 -0.525931
O14   O     O_R   0.448840 0.912530 0.228020 -0.521018
O15   O     O_R   0.551160 0.087470 0.771980 -0.519982
O16   O     O_R   0.912530 0.551160 0.228020 -0.520897
O17   O     O_R   0.087470 0.448840 0.771980 -0.527877
O18   O     O_R   0.551160 0.087470 0.228020 -0.520886
O19   O     O_R   0.448840 0.912530 0.771980 -0.518112
O20   O     O_R   0.087470 0.448840 0.228020 -0.520975
O21   O     O_R   0.912530 0.551160 0.771980 -0.518745
O22   O     O_R   0.448840 0.087470 0.771980 -0.522152
O23   O     O_3   0.000000 0.500000 0.250000 -0.442381
O24   O     O_R   0.551160 0.912530 0.228020 -0.520400
O25   O     O_R   0.912530 0.448840 0.771980 -0.521168
O26   O     O_R   0.087470 0.551160 0.228020 -0.520567
O27   O     O_R   0.551160 0.912530 0.771980 -0.521617
O28   O     O_R   0.448840 0.087470 0.228020 -0.520579
O29   O     O_R   0.087470 0.551160 0.771980 -0.520460
O30   O     O_R   0.912530 0.448840 0.228020 -0.520485
O31   O     O_R   0.948840 0.412530 0.728020 -0.521157
O32   O     O_R   0.051160 0.587470 0.271980 -0.520567
O33   O     O_R   0.412530 0.051160 0.728020 -0.521624
O34   O     O_3   0.000000 0.500000 0.750000 -0.443078
O35   O     O_R   0.587470 0.948840 0.271980 -0.520578
O36   O     O_R   0.051160 0.587470 0.728020 -0.520488
O37   O     O_R   0.948840 0.412530 0.271980 -0.520486
O38   O     O_R   0.587470 0.948840 0.728020 -0.522162
O39   O     O_R   0.412530 0.051160 0.271980 -0.520402
O40   O     O_R   0.948840 0.587470 0.271980 -0.520979
O41   O     O_R   0.051160 0.412530 0.728020 -0.518758
O42   O     O_R   0.412530 0.948840 0.271980 -0.521015
O43   O     O_R   0.587470 0.051160 0.728020 -0.519983
O44   O     O_R   0.051160 0.412530 0.271980 -0.520892
O45   O     O_R   0.500000 0.036350 0.166040 -0.525931
O46   O     O_R   0.948840 0.587470 0.728020 -0.527880
O47   O     O_R   0.587470 0.051160 0.271980 -0.520890
O48   O     O_R   0.412530 0.948840 0.728020 -0.518132
O49   O     O_R   0.500000 0.963650 0.833960 -0.517347
O50   O     O_R   0.036350 0.500000 0.166040 -0.526163
O51   O     O_R   0.963650 0.500000 0.833960 -0.526581
O52   O     O_R   0.500000 0.963650 0.166040 -0.526021
Zn1   Zn    Zn3+2 0.448050 0.000000 0.281500 0.990464
Zn2   Zn    Zn3+2 0.051950 0.500000 0.218500 0.990425
Zn3   Zn    Zn3+2 0.500000 0.051950 0.781500 0.987579
Zn4   Zn    Zn3+2 0.500000 0.948050 0.218500 0.990468
Zn5   Zn    Zn3+2 0.051950 0.500000 0.781500 0.991762
Zn6   Zn    Zn3+2 0.948050 0.500000 0.218500 0.990816
Zn7   Zn    Zn3+2 0.500000 0.948050 0.781500 0.992459
Zn8   Zn    Zn3+2 0.500000 0.051950 0.218500 0.990674
Zn9   Zn    Zn3+2 0.551950 0.000000 0.718500 0.987564
Zn10  Zn    Zn3+2 1.000000 0.551950 0.281500 0.990421
Zn11  Zn    Zn3+2 0.000000 0.448050 0.718500 0.991636
Zn12  Zn    Zn3+2 0.551950 0.000000 0.281500 0.990678
Zn13  Zn    Zn3+2 0.448050 0.000000 0.718500 0.992459
Zn14  Zn    Zn3+2 1.000000 0.448050 0.281500 0.990820
Zn15  Zn    Zn3+2 0.000000 0.551950 0.718500 0.991761
Zn16  Zn    Zn3+2 0.948050 0.500000 0.781500 0.991645

loop_
_geom_bond_atom_site_label_1
_geom_bond_atom_site_label_2
_ccdc_geom_bond_type
C127  C254  S    
H73   N75   S    
C110  N56   T    
H95   N81   S    
C194  H93   S    
C58   C164  S    
C197  H108  S    
C221  C255  A    
C199  H116  S    
C175  N61   T    
H30   N96   S    
C183  H48   S    
C94   N86   S    
C41   C256  A    
O50   Zn2   S    
H126  N88   S    
O1    Zn4   S    
C63   C98   A    
C191  H79   S    
C206  H15   S    
C189  H75   S    
C10   C35   S    
C105  N1    T    
C72   C101  A    
C167  N53   T    
C16   O30   A    
C100  N93   S    
C191  H81   S    
C128  C255  S    
C188  N74   S    
C204  H7    S    
C208  H23   S    
C185  H57   S    
C53   C68   A    
C36   C142  S    
O7    Zn9   S    
C162  N48   T    
O12   Zn7   S    
C279  O2    A    
C286  O14   A    
C46   C55   A    
C230  C236  A    
C115  N89   T    
C181  N66   S    
C93   C201  A    
C36   C71   A    
C76   C146  A    
C74   N66   S    
C231  C268  A    
C159  N44   T    
O25   Zn16  S    
H118  N64   S    
C70   N62   S    
H78   N76   S    
C233  C250  A    
C86   N79   S    
C85   N77   S    
C177  H107  S    
C186  H62   S    
C5    O48   A    
C195  H98   S    
C227  C263  A    
C1    C6    S    
C44   C151  S    
C7    O46   A    
C192  H86   S    
C201  C220  S    
O20   Zn2   S    
C106  C235  S    
O1    Zn8   S    
O47   Zn12  S    
C89   N82   S    
C47   C153  S    
C134  N20   T    
C277  O52   A    
C38   C223  A    
C127  N13   T    
C215  C216  S    
C228  C238  A    
C125  N10   T    
C210  H31   S    
C82   C201  A    
C26   C269  S    
H17   N93   S    
C198  H112  S    
C46   C49   A    
C182  H45   S    
C156  N42   T    
C39   C145  S    
C161  N47   T    
C196  H102  S    
H26   N95   S    
C192  H83   S    
C123  N9    T    
C90   C104  A    
C77   N70   S    
H82   N77   S    
C188  H70   S    
C75   N68   S    
C255  C263  A    
C11   O32   A    
C5    C267  S    
C221  C244  A    
C207  H19   S    
C279  O49   A    
C185  H58   S    
C94   C168  A    
C199  H114  S    
H91   N80   S    
C3    O41   A    
C210  H33   S    
C23   C279  S    
C126  N11   T    
C40   C147  S    
C70   C79   A    
C50   C57   A    
C49   C155  S    
C15   C278  S    
C45   C81   A    
C205  H10   S    
O34   Zn15  S    
C118  C246  S    
C33   C276  S    
O24   Zn4   S    
C284  O7    A    
C19   C283  S    
O12   Zn13  S    
C184  H54   S    
C285  O13   A    
C64   C171  S    
C195  N81   S    
C91   C213  A    
C139  N25   T    
C193  H90   S    
C41   C76   A    
C13   C45   A    
O12   Zn9   S    
O39   Zn1   S    
C180  H35   S    
C208  N94   S    
C2    C60   A    
C8    O33   A    
O3    Zn6   S    
C121  N7    T    
C195  H99   S    
C122  N8    T    
C137  C264  S    
C108  C237  S    
C30   C273  S    
C59   C278  A    
C200  N86   S    
C32   C275  S    
C133  N19   T    
C11   C46   S    
C69   C175  S    
C198  N84   S    
C31   C274  S    
C108  N34   T    
C226  C260  A    
C271  C272  T    
C196  N82   S    
O14   Zn4   S    
O45   Zn8   S    
C205  N91   S    
C236  C248  A    
C225  C261  A    
C147  N32   T    
C40   C245  A    
C61   C96   A    
C73   C113  A    
C132  C260  S    
C282  O5    A    
C177  N63   S    
C133  C261  S    
C210  N96   S    
C171  N57   T    
C284  O11   A    
C135  C227  S    
C49   C84   A    
H43   N68   S    
C193  H88   S    
C129  C257  S    
C82   N74   S    
O42   Zn1   S    
C197  H105  S    
C22   C280  S    
C198  H110  S    
C67   C174  S    
C17   C285  S    
C7    C112  S    
C237  C247  A    
C241  C242  A    
C187  H66   S    
O1    Zn1   S    
C196  H101  S    
C21   C281  S    
C14   O39   A    
C188  H72   S    
C281  O4    A    
H12   N92   S    
C64   C99   A    
C197  N83   S    
C2    C44   A    
C99   N92   S    
O34   Zn5   S    
C204  H6    S    
C97   N90   S    
C208  H22   S    
C142  N28   T    
C222  C259  A    
C59   C165  S    
C16   O37   A    
C13   C56   A    
C111  N67   T    
C79   C232  S    
C207  N93   S    
C184  N70   S    
C6    O44   A    
C136  C263  S    
C92   N84   S    
C79   C103  A    
C192  N77   S    
C217  C249  A    
O26   Zn2   S    
C130  C258  S    
C1    C34   A    
O28   Zn8   S    
C131  N17   T    
C173  N59   T    
C230  C264  A    
C199  N85   S    
C65   C172  S    
C80   C179  A    
O31   Zn11  S    
C203  H127  S    
H8    N91   S    
C229  C265  A    
C63   C170  S    
C180  H37   S    
O19   Zn7   S    
C7    O21   A    
C232  C266  A    
C96   N88   S    
C177  H85   S    
O15   Zn3   S    
C60   C95   A    
C19   C28   T    
C122  C250  S    
C62   C97   A    
H4    N90   S    
O37   Zn14  S    
C163  N49   T    
C120  N6    T    
C117  N3    T    
C187  H68   S    
C118  N4    T    
C43   C150  S    
C287  O43   A    
C153  N39   T    
C12   C57   S    
O18   Zn8   S    
C202  H123  S    
C34   C141  S    
C4    C256  S    
O1    Zn12  S    
C180  N65   S    
C88   N81   S    
C2    C16   S    
C84   C213  A    
O23   Zn2   S    
C252  C266  A    
C48   C154  S    
C219  C253  A    
C166  N52   T    
C178  H24   S    
C194  H94   S    
C164  N50   T    
C66   C223  A    
C218  C254  A    
O8    Zn1   S    
C199  H115  S    
C222  C243  A    
C113  C229  S    
C5    O19   A    
C138  C265  S    
C138  N24   T    
C78   C168  A    
C111  C240  S    
O49   Zn7   S    
C48   C83   A    
H113  N85   S    
C204  N90   S    
O46   Zn15  S    
O27   Zn7   S    
C85   C214  A    
C145  N31   T    
C63   C234  A    
C206  H16   S    
C178  N64   S    
C71   C90   A    
O30   Zn6   S    
H34   N65   S    
O34   Zn11  S    
C1    C67   A    
C87   C214  A    
C3    O17   A    
C277  O45   A    
C39   C74   A    
C54   C161  S    
C280  O50   A    
C185  N71   S    
C71   N63   S    
C42   C77   A    
C9    O35   A    
C177  H96   S    
C231  C235  A    
C137  N22   T    
C120  C248  S    
C42   C267  A    
O52   Zn4   S    
C25   C33   T    
O23   Zn6   S    
C74   C124  A    
C107  C236  S    
C281  O51   A    
C8    C13   S    
C88   C215  A    
C178  H2    S    
C275  C276  T    
O5    Zn15  S    
C152  N38   T    
C211  C219  S    
C89   C211  A    
C109  C238  S    
C43   C78   A    
C280  O3    A    
C150  N36   T    
C195  H97   S    
C93   N85   S    
O23   Zn14  S    
C58   C93   A    
C91   N83   S    
O2    Zn3   S    
C191  N76   S    
C69   C112  A    
C75   C135  A    
C283  O10   A    
C174  N60   T    
H60   N72   S    
C225  C241  A    
C285  O8    A    
C172  N58   T    
C203  H3    S    
C42   C149  S    
H47   N69   S    
C65   C212  A    
C55   C91   A    
C87   N80   S    
C50   C85   A    
C210  H32   S    
C181  H40   S    
C254  C264  A    
C92   C190  A    
C182  H46   S    
C36   C112  A    
C8    O22   A    
C140  C268  S    
C116  N2    T    
C59   C94   A    
O48   Zn13  S    
C34   C70   A    
C209  H28   S    
C104  N96   S    
C157  C225  S    
C282  O9    A    
C189  H77   S    
H1    N62   S    
C288  O40   A    
C269  C270  T    
C209  N95   S    
C35   C54   A    
C73   N65   S    
C29   C272  S    
O10   Zn10  S    
C20   C282  S    
C35   C48   A    
C51   C86   A    
C186  H61   S    
C228  C262  A    
C125  C252  S    
O36   Zn15  S    
C226  C240  A    
C179  C222  S    
C67   C103  A    
C257  C262  A    
C148  N33   T    
C44   C80   A    
C205  H9    S    
O34   Zn16  S    
C191  H80   S    
C206  H14   S    
C189  H76   S    
C212  C286  S    
C146  C226  S    
C11   O26   A    
C283  O6    A    
C240  C243  A    
C60   C166  S    
C132  N18   T    
C61   C167  S    
C218  C248  A    
C98   C124  A    
C37   C212  A    
C193  H89   S    
C115  C242  S    
C151  N37   T    
H74   N63   S    
C180  H36   S    
C213  C218  S    
C227  C239  A    
C238  C246  A    
C99   C135  A    
O16   Zn6   S    
C202  N87   S    
C141  N27   T    
C10   O25   A    
H100  N82   S    
H51   N70   S    
O29   Zn5   S    
C287  O15   A    
C98   N91   S    
C219  C247  A    
C186  N72   S    
H21   N94   S    
O41   Zn11  S    
C72   N64   S    
C15   O36   A    
C76   N69   S    
C96   C146  A    
O43   Zn9   S    
C27   C270  S    
C224  C258  A    
C62   C169  S    
C193  N79   S    
C53   C160  S    
C37   C143  S    
H104  N83   S    
C95   N87   S    
C38   C144  S    
C203  N88   S    
H38   N66   S    
C65   C100  A    
C185  H59   S    
C136  N21   T    
C39   C234  A    
C9    O24   A    
O22   Zn3   S    
C176  H41   S    
C21   C30   T    
C119  N5    T    
C51   C158  S    
C40   C75   A    
C45   C152  S    
C23   C32   T    
O32   Zn10  S    
C102  C113  A    
C183  H50   S    
C158  N43   T    
C224  C242  A    
C198  H111  S    
O13   Zn12  S    
C234  C288  S    
C232  C233  A    
C81   N73   S    
C12   O38   A    
C81   C190  A    
C52   C57   A    
C117  C244  S    
C18   C284  S    
H122  N87   S    
C216  C250  A    
C37   C72   A    
H69   N74   S    
C14   C68   S    
C207  H20   S    
C170  N55   T    
C3    C245  S    
C14   O28   A    
C251  C268  A    
O17   Zn5   S    
C200  H120  S    
C4    O47   A    
H117  N86   S    
C154  N40   T    
C66   C102  A    
O44   Zn14  S    
C130  N16   T    
C205  H11   S    
O33   Zn13  S    
C109  N45   T    
C41   C148  S    
C56   C163  S    
C184  H53   S    
C187  N73   S    
C178  H13   S    
C17   C26   T    
C83   N75   S    
C286  O42   A    
C183  H49   S    
O40   Zn10  S    
C47   C82   A    
C143  N29   T    
C86   C215  A    
C100  C101  A    
C119  C247  S    
C106  N12   T    
C10   O31   A    
O23   Zn10  S    
C64   C245  A    
C50   C156  S    
O4    Zn5   S    
C208  H25   S    
C66   C173  S    
C239  C244  A    
C176  H63   S    
C53   C88   A    
C187  H67   S    
C128  N14   T    
C51   C68   A    
O38   Zn9   S    
C140  N26   T    
C52   C159  S    
C116  C243  S    
C165  N51   T    
C134  C262  S    
C28   C271  S    
C149  N35   T    
C182  N68   S    
C168  C224  S    
H65   N73   S    
C124  C228  S    
C15   O29   A    
C20   C29   T    
C144  N30   T    
C189  N75   S    
H109  N84   S    
C22   C31   T    
C12   O27   A    
C160  N46   T    
C24   C58   A    
C181  H42   S    
C54   C89   A    
C25   C277  S    
C190  C221  S    
C197  H106  S    
C186  H64   S    
C110  C239  S    
C129  N15   T    
C200  H121  S    
C202  H125  S    
C194  N80   S    
C155  N41   T    
C196  H103  S    
C97   C157  A    
C169  N54   T    
C123  C251  S    
C62   C267  A    
C188  H71   S    
C103  N95   S    
C121  C249  S    
O6    Zn14  S    
C216  C252  A    
C209  H29   S    
C114  C241  S    
C273  C274  T    
C207  H18   S    
C204  H5    S    
C101  C230  S    
C192  H84   S    
C176  N62   S    
C223  C287  S    
C217  C251  A    
C95   C179  A    
C84   N76   S    
C139  C266  S    
C61   C256  A    
O21   Zn16  S    
C131  C259  S    
C90   C231  S    
C258  C261  A    
C235  C249  A    
C259  C260  A    
C69   C104  A    
C220  C246  A    
C184  H55   S    
O9    Zn11  S    
C24   C47   A    
C105  C233  S    
C52   C87   A    
C18   C27   T    
C176  H52   S    
C55   C162  S    
C214  C217  S    
C203  H128  S    
C9    C24   S    
C6    O20   A    
C183  N69   S    
C114  N78   T    
C200  H119  S    
C220  C257  A    
C78   N71   S    
C4    O18   A    
H87   N79   S    
C43   C278  A    
C80   N72   S    
C253  C265  A    
C126  C253  S    
O51   Zn16  S    
C194  H92   S    
O12   Zn3   S    
C288  O16   A    
C202  H124  S    
C181  H39   S    
O11   Zn13  S    
C56   C92   A    
H56   N71   S    
C107  N23   T    
C206  N92   S    
O35   Zn12  S    
C102  N94   S    
C229  C237  A    
C209  H27   S    
C83   C211  A    
C77   C157  A    
C182  H44   S    
C38   C73   A    
