data_mof_unit_54989.cif
_audit_creation_date              2012-12-10T18:34:31-0500
_audit_creation_method            fapswitch 2.2
_symmetry_space_group_name_H-M    P1
_symmetry_Int_Tables_number       1
_space_group_crystal_system       triclinic
_cell_length_a                    14.939783
_cell_length_b                    15.305959
_cell_length_c                    15.721478
_cell_angle_alpha                 89.849866
_cell_angle_beta                  105.351433
_cell_angle_gamma                 81.30648
_cell_volume                      3423.46679506

loop_
_atom_site_label
_atom_site_type_symbol
_atom_type_description
_atom_site_fract_x
_atom_site_fract_y
_atom_site_fract_z
_atom_type_partial_charge
C1    C     C_R   0.440435 0.663497 0.486212 0.935100
C2    C     C_R   0.559468 0.336747 0.514366 0.875449
C3    C     C_R   0.277830 0.878917 0.497484 0.156398
C4    C     C_R   0.719422 0.123291 0.618416 0.142992
C5    C     C_R   0.306564 0.789842 0.480837 0.323961
C6    C     C_R   0.690309 0.213354 0.590318 0.338521
C7    C     C_R   0.466028 0.818834 0.498690 0.442667
C8    C     C_R   0.535404 0.180810 0.514025 0.362065
C9    C     C_R   0.442020 0.902572 0.530157 -0.052591
C10   C     C_R   0.555868 0.099827 0.561505 -0.036346
C11   C     C_R   0.346014 0.936410 0.520124 -0.104558
C12   C     C_R   0.650715 0.066078 0.604892 -0.049455
C13   C     C_R   0.511414 0.955586 0.565943 -0.027790
C14   C     C_R   0.484924 0.047594 0.558167 -0.068948
C15   C     C_R   0.388825 0.083251 0.548597 0.528075
C16   C     C_R   0.605221 0.919937 0.611468 0.471166
C17   C     C_R   0.321408 0.027123 0.531854 -0.214179
C18   C     C_R   0.673254 0.976226 0.633093 -0.316400
C19   C     C_R   0.840079 0.641758 0.628323 -0.302208
C20   C     C_R   0.159553 0.358339 0.372208 -0.274438
C21   C     C_R   0.750731 0.618885 0.604730 0.066077
C22   C     C_R   0.249220 0.380426 0.396146 0.083989
C23   C     C_R   0.501656 0.500140 0.662286 0.892490
C24   C     C_R   0.498358 0.499823 0.337708 0.890546
C25   C     C_R   0.796248 0.509392 0.512022 -0.002956
C26   C     C_R   0.203611 0.491696 0.487168 -0.015692
C27   C     C_R   0.885668 0.534995 0.526787 -0.038933
C28   C     C_R   0.113928 0.466711 0.472363 -0.035011
C29   C     C_R   0.910400 0.597580 0.592182 0.067152
C30   C     C_R   0.089065 0.403811 0.407334 0.059719
C31   C     C_R   0.951857 0.496825 0.481856 -0.117650
C32   C     C_R   0.047670 0.505562 0.516955 -0.114306
C33   C     C_R   0.074089 0.553284 0.595283 0.388134
C34   C     C_R   0.925348 0.449457 0.403332 0.383117
C35   C     C_R   0.005485 0.609034 0.624456 0.146248
C36   C     C_R   0.993793 0.393263 0.374408 0.146857
C37   C     C_3   0.554760 0.556382 0.044608 -0.202899
C38   C     C_3   0.445232 0.443493 0.955326 -0.206136
C39   C     C_3   0.588496 0.474264 0.998019 0.227950
C40   C     C_3   0.411491 0.525614 0.001909 0.227728
C41   C     C_1   0.505155 0.500462 0.752115 -0.164293
C42   C     C_1   0.494866 0.499457 0.247861 -0.166787
C43   C     C_3   0.469293 0.582504 0.963109 -0.204084
C44   C     C_3   0.530702 0.417370 0.036826 -0.208837
C45   C     C_3   0.504013 0.500098 0.918118 0.113175
C46   C     C_3   0.495975 0.499779 0.081824 0.113716
C47   C     C_1   0.506041 0.500389 0.827680 -0.063599
C48   C     C_1   0.493965 0.499502 0.172282 -0.064800
C49   C     C_R   0.402384 0.758757 0.485607 -0.295878
C50   C     C_R   0.597682 0.242265 0.536723 -0.328707
H1    H     H_    0.222936 0.547499 0.525652 0.210136
H2    H     H_    0.777045 0.453924 0.472935 0.196676
H3    H     H_    0.303231 0.346297 0.368632 0.149795
H4    H     H_    0.696833 0.651868 0.633025 0.173804
H5    H     H_    0.852989 0.691915 0.676262 0.149776
H6    H     H_    0.146573 0.307701 0.324820 0.156663
H7    H     H_    0.599678 0.602063 0.082962 0.149808
H8    H     H_    0.400324 0.397808 0.916963 0.149002
H9    H     H_    0.555980 0.350168 0.068790 0.146422
H10   H     H_    0.444027 0.649704 0.931136 0.149193
H11   H     H_    0.249599 0.056748 0.526157 0.177697
H12   H     H_    0.743861 0.947801 0.668975 0.151437
N1    N     N_R   0.731710 0.552730 0.549140 -0.115082
N2    N     N_R   0.268290 0.447270 0.450860 -0.117247
O1    O     O_R   0.383110 0.605620 0.475230 -0.614792
O2    O     O_R   0.616890 0.394380 0.524770 -0.590548
O3    O     O_R   0.531900 0.639510 0.506760 -0.537961
O4    O     O_R   0.468100 0.360490 0.493240 -0.587570
O5    O     O_R   0.425620 0.483070 0.607460 -0.596692
O6    O     O_R   0.574380 0.516930 0.392540 -0.597974
O7    O     O_R   0.574400 0.516960 0.638990 -0.632958
O8    O     O_R   0.425600 0.483040 0.361010 -0.634603
Zn1   Zn    Zn3+2 0.400660 0.477370 0.478940 0.961300
Zn2   Zn    Zn3+2 0.599340 0.522630 0.521060 0.983530
C51   C     C_3   0.689364 0.445169 0.993193 -0.429713
C52   C     C_3   0.756536 0.423896 0.085019 -0.842339
H13   H     H_    0.755825 0.483101 0.125682 0.273029
H14   H     H_    0.736186 0.369150 0.118632 0.260634
H15   H     H_    0.829108 0.403112 0.079261 0.243539
H16   H     H_    0.691988 0.385555 0.953244 0.206747
H17   H     H_    0.711680 0.499014 0.960098 0.210193
C53   C     C_3   0.310586 0.554741 0.006613 -0.430295
C54   C     C_3   0.243513 0.576028 0.914731 -0.840058
H18   H     H_    0.263973 0.630706 0.881121 0.261455
H19   H     H_    0.244198 0.516799 0.874099 0.272534
H20   H     H_    0.170927 0.596909 0.920407 0.243163
H21   H     H_    0.288197 0.500913 0.039663 0.208939
H22   H     H_    0.307931 0.614359 0.046550 0.208630
O9    O     O_3   0.164979 0.541184 0.648910 -0.802361
H23   H     H_    0.192307 0.478170 0.647412 0.338437
O10   O     O_3   0.834536 0.462140 0.349482 -0.807315
H24   H     H_    0.807230 0.525041 0.351726 0.337260
O11   O     O_3   0.455512 0.196709 0.443844 -0.722941
H25   H     H_    0.467713 0.235493 0.398909 0.327008
O12   O     O_3   0.548459 0.796372 0.473683 -0.714405
H26   H     H_    0.568098 0.851035 0.455732 0.330502
O13   O     O_3   0.753637 0.271367 0.614583 -0.756485
H27   H     H_    0.726515 0.316011 0.650195 0.337086
O14   O     O_3   0.239043 0.735681 0.456944 -0.762184
H28   H     H_    0.248081 0.705905 0.403248 0.343306
C55   C     C_3   0.174521 0.910480 0.491059 -0.342943
C56   C     C_3   0.123387 0.956229 0.401191 -0.861884
H29   H     H_    0.155574 0.014197 0.389048 0.257321
H30   H     H_    0.126127 0.909117 0.347974 0.270693
H31   H     H_    0.048631 0.979400 0.398873 0.249249
H32   H     H_    0.138395 0.854445 0.500794 0.249128
H33   H     H_    0.166494 0.955012 0.545037 0.178546
C57   C     C_3   0.822180 0.091190 0.665924 -0.351818
C58   C     C_3   0.873387 0.040395 0.604571 -0.851756
H34   H     H_    0.840342 0.982084 0.579100 0.255707
H35   H     H_    0.872177 0.084348 0.547793 0.273619
H36   H     H_    0.947728 0.016963 0.641149 0.243094
H37   H     H_    0.859962 0.147014 0.690701 0.248600
H38   H     H_    0.828444 0.049864 0.725937 0.176723
O15   O     O_3   0.358788 0.170479 0.562770 -0.732548
H39   H     H_    0.411866 0.194408 0.602577 0.333428
O16   O     O_3   0.627196 0.831805 0.639839 -0.751841
H40   H     H_    0.694996 0.817958 0.671063 0.314553
C59   C     C_3   0.036266 0.674368 0.695316 -0.358390
C60   C     C_3   0.013635 0.769160 0.656056 -0.890643
H41   H     H_    0.052426 0.775619 0.605627 0.273299
H42   H     H_    0.937289 0.788461 0.624719 0.259341
H43   H     H_    0.035666 0.815461 0.709045 0.247417
H44   H     H_    0.003401 0.668356 0.750201 0.180383
H45   H     H_    0.113057 0.660977 0.726812 0.262889
C61   C     C_3   0.962761 0.328353 0.303209 -0.369831
C62   C     C_3   0.983336 0.233619 0.342370 -0.873185
H46   H     H_    0.059294 0.213393 0.374900 0.264974
H47   H     H_    0.943176 0.227934 0.391824 0.274160
H48   H     H_    0.961503 0.187552 0.289100 0.247788
H49   H     H_    0.886215 0.342864 0.270804 0.262680
H50   H     H_    0.996749 0.333603 0.249001 0.181258

loop_
_geom_bond_atom_site_label_1
_geom_bond_atom_site_label_2
_ccdc_geom_bond_type
C55   H33   S    
C61   C62   S    
C27   C29   A    
C24   C42   S    
C23   O5    A    
C35   C59   S    
O12   H26   S    
C52   H15   S    
C20   H6    S    
O13   H27   S    
C24   O6    A    
C20   C30   A    
C59   H44   S    
C40   C46   S    
C4    C57   S    
C55   C56   S    
C19   C21   A    
C52   H14   S    
C33   O9    S    
C58   H35   S    
C21   H4    S    
C44   H9    S    
C53   H21   S    
O2    Zn2   S    
O1    Zn1   S    
C57   C58   S    
C56   H31   S    
C15   C17   A    
C25   N1    A    
C57   H38   S    
C9    C13   A    
C34   O10   S    
C38   C45   S    
C26   N2    A    
C2    C50   S    
C17   H11   S    
C38   H8    S    
C40   C43   S    
C31   C32   A    
C60   H42   S    
O6    Zn2   S    
C1    O1    A    
N2    Zn1   S    
O5    Zn1   S    
C39   C51   S    
C4    C12   A    
C51   H16   S    
C58   H34   S    
C60   H43   S    
C39   C45   S    
C3    C55   S    
C13   C14   A    
C5    C49   A    
C44   C46   S    
C22   H3    S    
C45   C47   S    
C46   C48   S    
C27   C31   A    
C6    O13   S    
C40   C53   S    
C28   C32   A    
C52   H13   S    
C7    C49   A    
C4    C6    A    
C10   C14   A    
C58   H36   S    
C16   O16   S    
O10   H24   S    
C18   H12   S    
C3    C5    A    
O4    Zn1   S    
C1    O3    A    
C57   H37   S    
C37   C43   S    
C51   C52   S    
C62   H47   S    
C38   C44   S    
C23   O7    A    
C43   C45   S    
C54   H18   S    
C61   H50   S    
C41   C47   T    
C31   C34   A    
O3    Zn2   S    
C42   C48   T    
C6    C50   A    
C56   H30   S    
C9    C11   A    
C10   C12   A    
C43   H10   S    
C59   H45   S    
C16   C18   A    
C54   H19   S    
C20   C22   A    
C15   O15   S    
C62   H46   S    
C19   C29   A    
C8    C50   A    
C60   H41   S    
C24   O8    A    
C19   H5    S    
C55   H32   S    
C7    C9    A    
C11   C17   A    
C26   C28   A    
C36   C61   S    
C8    O11   S    
O8    Zn1   S    
C2    O2    A    
O7    Zn2   S    
C59   C60   S    
C39   C44   S    
C5    O14   S    
N1    Zn2   S    
C51   H17   S    
C25   C27   A    
C7    O12   S    
O11   H25   S    
C29   C35   A    
C2    O4    A    
C23   C41   S    
O14   H28   S    
C30   C36   A    
C32   C33   A    
C28   C30   A    
C37   C46   S    
C25   H2    S    
C37   C39   S    
O16   H40   S    
C38   C40   S    
C1    C49   S    
C61   H49   S    
C53   H22   S    
C33   C35   A    
C34   C36   A    
C56   H29   S    
C21   N1    A    
C3    C11   A    
C22   N2    A    
C54   H20   S    
C8    C10   A    
C53   C54   S    
C13   C16   A    
C12   C18   A    
C14   C15   A    
O9    H23   S    
C26   H1    S    
C62   H48   S    
C37   H7    S    
O15   H39   S    
