data_mof_unit_51088.cif
_audit_creation_date              2012-12-11T15:29:29-0500
_audit_creation_method            fapswitch 2.2
_symmetry_space_group_name_H-M    P1
_symmetry_Int_Tables_number       1
_space_group_crystal_system       triclinic
_cell_length_a                    13.484128
_cell_length_b                    13.492774
_cell_length_c                    27.574224
_cell_angle_alpha                 90.683617
_cell_angle_beta                  90.056986
_cell_angle_gamma                 60.076534
_cell_volume                      4347.64865319

loop_
_atom_site_label
_atom_site_type_symbol
_atom_type_description
_atom_site_fract_x
_atom_site_fract_y
_atom_site_fract_z
_atom_type_partial_charge
C1    C     C_R   0.620333 0.101280 0.569876 0.545874
C2    C     C_1   0.631182 0.731950 0.615934 -0.016320
C3    C     C_3   0.699636 0.560712 0.766806 -0.101435
C4    C     C_3   0.679615 0.654261 0.804362 0.052794
C5    C     C_3   0.590341 0.648077 0.739923 -0.099227
C6    C     C_3   0.663546 0.683155 0.709958 0.052775
C7    C     C_3   0.570536 0.741163 0.778204 -0.102123
C8    C     C_3   0.643541 0.776716 0.747505 -0.102961
C9    C     C_1   0.688469 0.633330 0.856560 -0.059668
C10   C     C_1   0.649582 0.704673 0.657820 -0.058954
C11   C     C_3   0.090726 0.133097 0.737236 -0.101828
C12   C     C_R   0.599707 0.779347 0.568471 0.545981
C13   C     C_3   0.182691 0.059313 0.775066 -0.100532
C14   C     C_1   0.097787 0.199794 0.900268 -0.017129
C15   C     C_1   0.229596 0.137888 0.617088 -0.016439
C16   C     C_3   0.055656 0.241344 0.768908 -0.101269
C17   C     C_3   0.148052 0.167392 0.805884 0.052756
C18   C     C_3   0.144469 0.262153 0.742245 -0.099069
C19   C     C_3   0.179143 0.154193 0.711344 0.052668
C20   C     C_3   0.236394 0.188462 0.779923 -0.101966
C21   C     C_3   0.271569 0.080194 0.748296 -0.102958
C22   C     C_1   0.125580 0.180560 0.858188 -0.059375
C23   C     C_R   0.277731 0.121715 0.569382 0.545673
C24   C     C_1   0.201665 0.146710 0.659100 -0.059077
C25   C     C_3   0.628999 0.276737 0.739115 -0.101728
C26   C     C_3   0.555008 0.257999 0.776926 -0.100017
C27   C     C_1   0.691652 0.206395 0.901401 -0.016532
C28   C     C_1   0.635528 0.133511 0.617806 -0.016347
C29   C     C_3   0.737023 0.204118 0.769998 -0.101430
C30   C     C_3   0.662875 0.185109 0.806969 0.052879
C31   C     C_3   0.758639 0.094439 0.742429 -0.099284
C32   C     C_3   0.650865 0.167206 0.712320 0.052646
C33   C     C_3   0.684733 0.075648 0.780122 -0.102167
C34   C     C_R   0.621908 0.100056 0.431479 0.541773
C35   C     C_3   0.576680 0.148201 0.749267 -0.102989
C36   C     C_1   0.674613 0.195502 0.859307 -0.059119
C37   C     C_1   0.643860 0.152459 0.659966 -0.059097
C38   C     C_R   0.638137 0.725488 0.382221 0.021632
C39   C     C_R   0.720496 0.740472 0.357366 -0.126585
C40   C     C_R   0.731571 0.725630 0.307601 -0.125250
C41   C     C_R   0.663430 0.691663 0.282132 0.036207
C42   C     C_R   0.588945 0.665964 0.307504 -0.124848
C43   C     C_R   0.575671 0.683655 0.357362 -0.135287
C44   C     C_R   0.572350 0.712923 0.201543 -0.123071
C45   C     C_R   0.601673 0.777283 0.430274 0.538321
C46   C     C_R   0.582609 0.687207 0.152247 -0.132133
C47   C     C_R   0.787242 0.614677 0.156973 -0.128991
C48   C     C_R   0.777403 0.637732 0.206251 -0.125419
C49   C     C_R   0.670699 0.682450 0.229219 0.037586
C50   C     C_R   0.691073 0.632640 0.130337 0.024302
C51   C     C_R   0.235362 0.131254 0.381962 0.028020
C52   C     C_R   0.286768 0.035174 0.350985 -0.123345
C53   C     C_R   0.266015 0.047002 0.301662 -0.124162
C54   C     C_R   0.190381 0.154576 0.282604 0.034891
C55   C     C_R   0.133590 0.249718 0.314152 -0.116857
C56   C     C_R   0.279886 0.119408 0.430861 0.538791
C57   C     C_R   0.157705 0.238463 0.363540 -0.130455
C58   C     C_R   0.155024 0.267762 0.207721 -0.128706
C59   C     C_R   0.125491 0.285996 0.159254 -0.137373
C60   C     C_R   0.147141 0.095888 0.152117 -0.006206
C61   C     C_R   0.172646 0.080724 0.201571 -0.103614
C62   C     C_R   0.172465 0.167789 0.229925 0.024139
C63   C     C_R   0.114058 0.204031 0.131563 0.026218
C64   C     C_R   0.640909 0.138711 0.384816 0.022553
C65   C     C_R   0.548496 0.230919 0.361785 -0.124880
C66   C     C_R   0.555555 0.250699 0.313004 -0.120660
C67   C     C_3   0.772719 0.596187 0.736055 -0.101526
C68   C     C_R   0.655794 0.179943 0.286708 0.036363
C69   C     C_R   0.751573 0.093989 0.310703 -0.121041
C70   C     C_R   0.744046 0.073106 0.359451 -0.129124
C71   C     C_R   0.715526 0.096516 0.203664 -0.120046
C72   C     C_R   0.727561 0.109191 0.154448 -0.135777
C73   C     C_R   0.618022 0.315470 0.164715 -0.126461
C74   C     C_R   0.607513 0.302842 0.214012 -0.121935
C75   C     C_R   0.659164 0.193337 0.234084 0.036381
C76   C     C_R   0.682097 0.218786 0.135044 0.022885
C77   C     C_R   0.049966 0.234732 0.947979 0.544159
C78   C     C_3   0.752943 0.689317 0.774470 -0.100328
C79   C     C_R   0.712047 0.561734 0.946390 0.544894
C80   C     C_R   0.722615 0.223994 0.949119 0.546771
C81   C     C_R   0.050599 0.242302 0.085673 0.536040
C82   C     C_R   0.708994 0.572897 0.084068 0.540225
C83   C     C_R   0.719709 0.233377 0.087420 0.540945
C84   C     C_1   0.697476 0.607155 0.898592 -0.017271
Cr1   Cr    Cr6+3 0.417550 0.169090 0.500530 1.021445
Cr2   Cr    Cr6+3 0.669180 0.913420 0.499920 1.019332
Cr3   Cr    Cr6+3 0.413260 0.917540 0.499520 1.021628
Cr4   Cr    Cr6+3 0.909770 0.175810 0.018240 1.002152
Cr5   Cr    Cr6+3 0.913300 0.427650 0.016090 1.017320
Cr6   Cr    Cr6+3 0.657770 0.431010 0.016900 1.019435
H1    H     H_    0.819405 0.706708 0.789301 0.103676
H2    H     H_    0.296509 0.210785 0.797901 0.102946
H3    H     H_    0.128287 0.345687 0.728218 0.104074
H4    H     H_    0.966476 0.307987 0.777973 0.099411
H5    H     H_    0.471208 0.324869 0.791718 0.103999
H6    H     H_    0.606585 0.359127 0.721786 0.102513
H7    H     H_    0.510437 0.125128 0.740117 0.100470
H8    H     H_    0.707214 0.993198 0.797413 0.102754
H9    H     H_    0.842511 0.027537 0.727700 0.104054
H10   H     H_    0.803349 0.227097 0.779115 0.099443
H11   H     H_    0.769881 0.772989 0.375575 0.133602
H12   H     H_    0.855558 0.536378 0.718239 0.103105
H13   H     H_    0.488473 0.751679 0.218375 0.095757
H14   H     H_    0.507167 0.703229 0.132062 0.118579
H15   H     H_    0.789423 0.746294 0.288930 0.098636
H16   H     H_    0.854654 0.613222 0.226712 0.097544
H17   H     H_    0.872056 0.572816 0.140904 0.128569
H18   H     H_    0.538638 0.635430 0.288664 0.100402
H19   H     H_    0.512284 0.670802 0.375918 0.125241
H20   H     H_    0.349522 0.951893 0.364338 0.138303
H21   H     H_    0.160427 0.333915 0.228163 0.102703
H22   H     H_    0.104861 0.368018 0.144404 0.129260
H23   H     H_    0.620395 0.865915 0.738941 0.100496
H24   H     H_    0.313220 0.972569 0.278433 0.100902
H25   H     H_    0.189644 0.001334 0.218019 0.095504
H26   H     H_    0.072375 0.333210 0.300585 0.105672
H27   H     H_    0.118128 0.313338 0.387069 0.117389
H28   H     H_    0.467760 0.283126 0.380437 0.133033
H29   H     H_    0.752908 0.011083 0.218136 0.104389
H30   H     H_    0.776825 0.033629 0.132021 0.119494
H31   H     H_    0.480466 0.317447 0.295364 0.102159
H32   H     H_    0.563996 0.378842 0.236712 0.101383
H33   H     H_    0.487635 0.800970 0.795984 0.102717
H34   H     H_    0.583399 0.401047 0.150655 0.133720
H35   H     H_    0.831102 0.040662 0.291409 0.101650
H36   H     H_    0.816791 0.002103 0.376494 0.125110
H37   H     H_    0.523834 0.630658 0.725161 0.104112
H38   H     H_    0.722694 0.471536 0.775362 0.098725
H39   H     H_    0.198830 0.975864 0.789169 0.103502
H40   H     H_    0.030608 0.110848 0.719214 0.102970
H41   H     H_    0.360764 0.013643 0.739198 0.100557
O1    O     O_R   0.301780 0.195490 0.553940 -0.507570
O2    O     O_R   0.658840 0.818280 0.449970 -0.505874
O3    O     O_R   0.503160 0.801780 0.445740 -0.523564
O4    O     O_R   0.319320 0.022190 0.450230 -0.505341
O5    O     O_3   0.499990 0.000010 0.499990 -0.245272
O6    O     O_R   0.819250 0.149410 0.965240 -0.508690
O7    O     O_R   0.006940 0.180310 0.968270 -0.497990
O8    O     O_R   0.028420 0.332670 0.963010 -0.506164
O9    O     O_R   0.810130 0.520390 0.966030 -0.494460
O10   O     O_R   0.636050 0.541380 0.962520 -0.508285
O11   O     O_R   0.666480 0.323610 0.968170 -0.493288
O12   O     O_R   0.522450 0.158840 0.550250 -0.494273
O13   O     O_R   0.817280 0.156800 0.072180 -0.529465
O14   O     O_R   0.005110 0.187160 0.067410 -0.504927
O15   O     O_R   0.026450 0.340060 0.069950 -0.524342
O16   O     O_R   0.808300 0.527240 0.065170 -0.505848
O17   O     O_R   0.634070 0.548770 0.069460 -0.522956
O18   O     O_R   0.664650 0.330470 0.067300 -0.501776
O19   O     O_3   0.826940 0.344820 0.017080 -0.240150
O20   O     O_R   0.694460 0.003360 0.553820 -0.506655
O21   O     O_R   0.657750 0.819520 0.549120 -0.494005
O22   O     O_R   0.501990 0.803120 0.552700 -0.506599
O23   O     O_R   0.318230 0.023430 0.549370 -0.493364
O24   O     O_R   0.302950 0.194150 0.446980 -0.516347
O25   O     O_R   0.523540 0.157600 0.451100 -0.504609
O26   O     O_R   0.695630 0.002030 0.446860 -0.522379
C85   C     C_3   0.157644 0.994520 0.123510 -0.246049
C86   C     C_3   0.059028 0.972932 0.135691 -0.279823
C87   C     C_3   0.056657 0.885378 0.100922 -0.435973
H42   H     H_    0.041867 0.917796 0.063239 0.164380
H43   H     H_    0.138864 0.803247 0.102420 0.141192
H44   H     H_    0.986173 0.869752 0.111374 0.134277
H45   H     H_    0.068788 0.940735 0.173308 0.138990
H46   H     H_    0.976144 0.054008 0.133802 0.209902
H47   H     H_    0.162902 0.005289 0.083965 0.160445
H48   H     H_    0.240142 0.917244 0.132741 0.120272

loop_
_geom_bond_atom_site_label_1
_geom_bond_atom_site_label_2
_ccdc_geom_bond_type
C44   C49   A    
C58   C62   A    
C66   C68   A    
C41   C42   A    
C73   C74   A    
C12   O21   A    
C12   O22   A    
Cr6   O19   S    
C2    C12   S    
Cr1   O12   S    
C82   O16   A    
C7    C8    S    
C53   C54   A    
C52   C53   A    
C68   C75   S    
C34   O25   A    
C20   H2    S    
C11   C19   S    
C45   O3    A    
Cr2   O20   S    
C63   C81   S    
C60   C63   A    
C5    C6    S    
C19   C21   S    
C60   C85   S    
C34   C64   S    
C51   C56   S    
Cr6   O18   S    
Cr1   O1    S    
C79   C84   S    
C45   O2    A    
C55   H26   S    
C80   O6    A    
C17   C20   S    
C18   C19   S    
C33   H8    S    
Cr1   O24   S    
C14   C77   S    
C21   H41   S    
C38   C45   S    
Cr6   O17   S    
C48   H16   S    
C31   C32   S    
C16   C17   S    
Cr5   O8    S    
Cr1   O5    S    
C61   H25   S    
C1    C28   S    
C65   H28   S    
Cr3   O22   S    
C51   C57   A    
C31   H9    S    
C30   C33   S    
C72   C76   A    
C81   O14   A    
Cr5   O9    S    
C25   C32   S    
C15   C23   S    
C79   O9    A    
C69   H35   S    
C8    C78   S    
Cr3   O3    S    
C5    H37   S    
C69   C70   A    
C67   C78   S    
Cr4   O19   S    
C56   O24   A    
C76   C83   S    
C41   C49   S    
C44   H13   S    
C44   C46   A    
C85   H48   S    
C39   H11   S    
C47   C50   A    
C25   C29   S    
Cr5   O15   S    
C66   H31   S    
C74   C75   A    
C51   C52   A    
C32   C35   S    
Cr3   O4    S    
C47   H17   S    
C38   C39   A    
C77   O7    A    
C27   C80   S    
C39   C40   A    
C5    C7    S    
C3    H38   S    
C68   C69   A    
C6    C8    S    
C54   C62   S    
C4    C7    S    
C25   C26   S    
C46   H14   S    
C86   H46   S    
C60   C61   A    
Cr1   O25   S    
C87   H43   S    
C87   H44   S    
C4    C78   S    
C29   C30   S    
C1    O12   A    
Cr2   O21   S    
C11   C16   S    
Cr2   O2    S    
C47   C48   A    
C52   H20   S    
Cr4   O14   S    
C73   H34   S    
C72   H30   S    
C31   C33   S    
C59   H22   S    
Cr3   O23   S    
C13   C21   S    
C32   C37   S    
Cr4   O7    S    
Cr6   O11   S    
C8    H23   S    
Cr2   O5    S    
C15   C24   T    
C74   H32   S    
C26   C30   S    
C64   C70   A    
C55   C57   A    
C86   C87   S    
C85   C86   S    
C27   C36   T    
C73   C76   A    
C42   C43   A    
C3    C4    S    
C2    C10   T    
C11   H40   S    
Cr5   O19   S    
C56   O4    A    
C53   H24   S    
C50   C82   S    
C57   H27   S    
C26   H5    S    
Cr5   O16   S    
C54   C55   A    
C40   C41   A    
C80   O11   A    
C29   H10   S    
C59   C63   A    
Cr3   O5    S    
C3    C67   S    
C77   O8    A    
C7    H33   S    
C3    C5    S    
C6    C10   S    
C82   O17   A    
C58   H21   S    
C71   H29   S    
C78   H1    S    
C46   C50   A    
C16   H4    S    
C17   C22   S    
C30   C36   S    
C64   C65   A    
C14   C22   T    
C19   C24   S    
C58   C59   A    
C38   C43   A    
C29   C31   S    
C6    C67   S    
C83   O13   A    
C87   H42   S    
C71   C75   A    
C11   C13   S    
C70   H36   S    
C79   O10   A    
C28   C37   T    
C48   C49   A    
C33   C35   S    
C23   O1    A    
C1    O20   A    
C18   C20   S    
C65   C66   A    
C61   C62   A    
Cr2   O26   S    
Cr4   O6    S    
Cr6   O10   S    
C9    C84   T    
C13   C17   S    
C85   H47   S    
C26   C35   S    
C71   C72   A    
C20   C21   S    
C25   H6    S    
C16   C18   S    
C81   O15   A    
C23   O23   A    
C18   H3    S    
C13   H39   S    
C86   H45   S    
C43   H19   S    
C4    C9    S    
C35   H7    S    
C42   H18   S    
Cr4   O13   S    
C34   O26   A    
C67   H12   S    
C40   H15   S    
C83   O18   A    
