data_mof_unit_66377.cif
_audit_creation_date              2012-10-26T17:50:02-0400
_audit_creation_method            fapswitch 2.2
_symmetry_space_group_name_H-M    P1
_symmetry_Int_Tables_number       1
_space_group_crystal_system       triclinic
_cell_length_a                    21.719077
_cell_length_b                    21.715809
_cell_length_c                    47.299573
_cell_angle_alpha                 89.998281
_cell_angle_beta                  89.994159
_cell_angle_gamma                 89.978293
_cell_volume                      22308.715484

loop_
_atom_site_label
_atom_site_type_symbol
_atom_type_description
_atom_site_fract_x
_atom_site_fract_y
_atom_site_fract_z
_atom_type_partial_charge
C1    C     C_R   0.618867 0.497795 0.000048 0.533691
C2    C     C_R   0.218312 0.541413 0.022104 0.065987
C3    C     C_R   0.539802 0.963020 0.810194 0.458552
C4    C     C_R   0.542359 0.965203 0.310089 0.458006
C5    C     C_R   0.960879 0.538442 0.310253 0.457160
C6    C     C_R   0.457612 0.034790 0.310093 0.458002
C7    C     C_R   0.039152 0.461559 0.310249 0.457159
C8    C     C_R   0.960652 0.458457 0.780232 -0.011363
C9    C     C_R   0.543007 0.963843 0.780242 -0.011265
C10   C     C_R   0.036284 0.542859 0.780241 -0.011193
C11   C     C_R   0.458288 0.039179 0.780232 -0.011315
C12   C     C_R   0.457990 0.038029 0.280123 -0.011673
C13   C     C_R   0.459518 0.218169 0.022481 0.064563
C14   C     C_R   0.041289 0.461092 0.280247 -0.012001
C15   C     C_R   0.541972 0.961955 0.280120 -0.011671
C16   C     C_R   0.958736 0.538908 0.280251 -0.011998
C17   C     C_R   0.998872 0.500333 0.765225 -0.071047
C18   C     C_R   0.500323 0.001104 0.765225 -0.071053
C19   C     C_R   0.499981 0.999992 0.265102 -0.071346
C20   C     C_R   0.000010 0.499999 0.265243 -0.071088
C21   C     C_R   0.923711 0.415895 0.764848 -0.028196
C22   C     C_R   0.587164 0.928694 0.764956 -0.029157
C23   C     C_R   0.071592 0.586866 0.764955 -0.028948
C24   C     C_R   0.781679 0.458587 0.022102 0.065993
C25   C     C_R   0.415559 0.075957 0.764847 -0.027999
C26   C     C_R   0.417736 0.077547 0.264820 -0.030104
C27   C     C_R   0.083104 0.423261 0.264865 -0.029377
C28   C     C_R   0.582216 0.922428 0.264813 -0.030104
C29   C     C_R   0.916918 0.576738 0.264873 -0.029375
C30   C     C_R   0.416930 0.076474 0.234924 0.239510
C31   C     C_R   0.085559 0.426378 0.235020 0.238736
C32   C     C_R   0.583022 0.923502 0.234917 0.239509
C33   C     C_R   0.914454 0.573616 0.235029 0.238735
C34   C     C_R   0.926814 0.413593 0.734990 0.239530
C35   C     C_R   0.041471 0.281651 0.522089 0.065959
C36   C     C_R   0.586418 0.927960 0.735066 0.239894
C37   C     C_R   0.072312 0.586126 0.735064 0.240032
C38   C     C_R   0.413277 0.072853 0.734989 0.239627
C39   C     C_R   0.458872 0.038613 0.220012 0.057518
C40   C     C_R   0.043192 0.463757 0.220135 0.057253
C41   C     C_R   0.541086 0.961370 0.220009 0.057518
C42   C     C_R   0.956816 0.536234 0.220140 0.057250
C43   C     C_R   0.963530 0.456552 0.720113 0.057941
C44   C     C_R   0.543733 0.964944 0.720151 0.057654
C45   C     C_R   0.035169 0.543603 0.720152 0.057739
C46   C     C_R   0.718311 0.041432 0.522099 0.065458
C47   C     C_R   0.456397 0.036299 0.720112 0.057992
C48   C     C_R   0.499980 0.999991 0.235080 -0.118027
C49   C     C_R   0.000006 0.499997 0.235215 -0.117822
C50   C     C_R   0.999048 0.500278 0.735204 -0.117443
C51   C     C_R   0.500265 0.000925 0.735204 -0.117442
C52   C     C_R   0.460885 0.038418 0.190076 0.432051
C53   C     C_R   0.043187 0.466257 0.190209 0.431635
C54   C     C_R   0.539075 0.961569 0.190073 0.432051
C55   C     C_R   0.956813 0.533730 0.190214 0.431635
C56   C     C_R   0.966204 0.456525 0.690187 0.432109
C57   C     C_R   0.958521 0.718345 0.522090 0.065939
C58   C     C_R   0.543367 0.966924 0.690222 0.432201
C59   C     C_R   0.033170 0.543261 0.690223 0.432234
C60   C     C_R   0.456393 0.033642 0.690186 0.432142
C61   C     C_R   0.499984 0.999999 0.145380 0.222589
C62   C     C_R   0.999996 0.499994 0.145492 0.222198
C63   C     C_R   0.999850 0.499864 0.645491 0.222774
C64   C     C_R   0.499854 0.000126 0.645491 0.222836
C65   C     C_R   0.999297 0.500164 0.854804 0.320688
C66   C     C_R   0.500168 0.000688 0.854806 0.320667
C67   C     C_R   0.499990 0.000000 0.354686 0.321817
C68   C     C_R   0.281678 0.958562 0.522094 0.065444
C69   C     C_R   0.000015 0.499998 0.354819 0.321232
C70   C     C_R   0.022792 0.449042 0.869590 0.256250
C71   C     C_R   0.551162 0.024016 0.869714 0.255028
C72   C     C_R   0.976116 0.551248 0.869715 0.254918
C73   C     C_R   0.449136 0.977049 0.869596 0.256165
C74   C     C_R   0.481900 0.946844 0.369532 0.254796
C75   C     C_R   0.050867 0.523821 0.369662 0.255961
C76   C     C_R   0.518081 0.053158 0.369528 0.254805
C77   C     C_R   0.949160 0.476172 0.369665 0.255957
C78   C     C_R   0.553508 0.015595 0.130380 -0.056613
C79   C     C_R   0.546219 0.717116 0.019157 -0.013254
C80   C     C_R   0.006895 0.555311 0.130482 -0.055836
C81   C     C_R   0.446462 0.984406 0.130383 -0.056613
C82   C     C_R   0.993095 0.444680 0.130483 -0.055828
C83   C     C_R   0.055206 0.493082 0.630502 -0.056182
C84   C     C_R   0.506577 0.055438 0.630466 -0.054870
C85   C     C_R   0.944558 0.506694 0.630465 -0.054945
C86   C     C_R   0.493181 0.944756 0.630505 -0.056182
C87   C     C_R   0.592201 0.685306 0.034426 -0.112716
C88   C     C_R   0.314923 0.593559 0.033478 -0.111985
C89   C     C_R   0.407794 0.314691 0.034432 -0.112705
C90   C     C_R   0.283008 0.546907 0.018703 -0.012875
C91   C     C_R   0.685064 0.406436 0.033476 -0.111933
C92   C     C_R   0.093607 0.184979 0.533452 -0.111791
C93   C     C_R   0.814920 0.093595 0.533459 -0.112515
C94   C     C_R   0.906382 0.815017 0.533454 -0.111705
C95   C     C_R   0.185064 0.906392 0.533451 -0.112535
C96   C     C_R   0.628090 0.715518 0.054367 -0.146369
C97   C     C_R   0.284798 0.630553 0.053020 -0.148175
C98   C     C_R   0.371898 0.284476 0.054374 -0.146374
C99   C     C_R   0.715181 0.369447 0.053021 -0.148156
C100  C     C_R   0.130616 0.215071 0.552986 -0.146354
C101  C     C_R   0.453778 0.282881 0.019161 -0.013256
C102  C     C_R   0.784793 0.130611 0.552991 -0.146796
C103  C     C_R   0.869362 0.784921 0.552987 -0.146029
C104  C     C_R   0.215182 0.869373 0.552984 -0.146995
C105  C     C_R   0.618045 0.777386 0.060040 -0.099154
C106  C     C_R   0.222945 0.620920 0.058813 -0.102259
C107  C     C_R   0.381939 0.222606 0.060045 -0.099165
C108  C     C_R   0.777031 0.379083 0.058815 -0.102247
C109  C     C_R   0.120996 0.276941 0.558781 -0.101349
C110  C     C_R   0.722940 0.120981 0.558788 -0.101576
C111  C     C_R   0.878977 0.723050 0.558782 -0.101021
C112  C     C_R   0.502430 0.618879 0.000057 0.533318
C113  C     C_R   0.716985 0.453088 0.018700 -0.012840
C114  C     C_R   0.277031 0.879004 0.558782 -0.101977
C115  C     C_R   0.573821 0.811048 0.044721 0.261355
C116  C     C_R   0.189220 0.575928 0.044005 0.264485
C117  C     C_R   0.426165 0.188945 0.044723 0.261352
C118  C     C_R   0.810761 0.424075 0.044005 0.264486
C119  C     C_R   0.076001 0.310714 0.543983 0.264033
C120  C     C_R   0.689218 0.075969 0.543992 0.263951
C121  C     C_R   0.923980 0.689280 0.543983 0.264097
C122  C     C_R   0.310760 0.924021 0.543988 0.263856
C123  C     C_1   0.880587 0.375234 0.779017 0.278674
C124  C     C_R   0.046954 0.216945 0.518687 -0.012797
C125  C     C_1   0.636751 0.896590 0.779318 0.280648
C126  C     C_1   0.103895 0.636305 0.779316 0.280580
C127  C     C_1   0.374689 0.118911 0.779017 0.278660
C128  C     C_1   0.379883 0.122934 0.279162 0.280059
C129  C     C_1   0.122637 0.379028 0.279006 0.278704
C130  C     C_1   0.620052 0.877027 0.279153 0.280060
C131  C     C_1   0.877391 0.620975 0.279018 0.278708
C132  C     C_R   0.783007 0.046925 0.518696 -0.013290
C133  C     C_R   0.953041 0.783053 0.518689 -0.012796
C134  C     C_R   0.216985 0.953066 0.518689 -0.013343
C135  C     C_R   0.506171 0.685815 0.000414 0.002979
C136  C     C_R   0.314241 0.505918 0.000386 0.003706
C137  C     C_R   0.493832 0.314185 0.000417 0.002959
C138  C     C_R   0.685759 0.494075 0.000380 0.003751
C139  C     C_R   0.005947 0.185751 0.500380 0.004151
C140  C     C_R   0.381133 0.502203 0.000051 0.533687
C141  C     C_R   0.814241 0.005913 0.500389 0.003083
C142  C     C_R   0.994057 0.814249 0.500382 0.004174
C143  C     C_R   0.185758 0.994081 0.500382 0.003045
C144  C     C_R   0.465375 0.718548 0.983318 -0.149594
C145  C     C_R   0.281516 0.464288 0.983736 -0.149251
C146  C     C_R   0.534631 0.281454 0.983318 -0.149413
C147  C     C_R   0.718491 0.535702 0.983727 -0.149127
C148  C     C_R   0.964316 0.218514 0.483737 -0.149601
C149  C     C_R   0.781520 0.964250 0.483755 -0.149668
C150  C     C_R   0.035699 0.781488 0.483740 -0.149601
C151  C     C_R   0.497571 0.381121 0.000058 0.533331
C152  C     C_R   0.218488 0.035746 0.483749 -0.149680
C153  C     C_R   0.463095 0.782081 0.984733 -0.165577
C154  C     C_R   0.217987 0.462124 0.985190 -0.164558
C155  C     C_R   0.536909 0.217921 0.984733 -0.165450
C156  C     C_R   0.782020 0.537868 0.985182 -0.164460
C157  C     C_R   0.962164 0.282049 0.485189 -0.164874
C158  C     C_R   0.717991 0.962087 0.485211 -0.164857
C159  C     C_R   0.037848 0.717954 0.485192 -0.164884
C160  C     C_R   0.282015 0.037911 0.485206 -0.164869
C161  C     C_R   0.500412 0.814184 0.003783 0.020176
C162  C     C_R   0.118867 0.997795 0.500049 0.532925
C163  C     C_R   0.185880 0.500432 0.003845 0.020737
C164  C     C_R   0.499586 0.185815 0.003783 0.020152
C165  C     C_R   0.814118 0.499567 0.003841 0.020753
C166  C     C_R   0.000482 0.314120 0.503838 0.020981
C167  C     C_R   0.685881 0.000428 0.503850 0.019317
C168  C     C_R   0.999518 0.685879 0.503839 0.020986
C169  C     C_R   0.314117 0.999570 0.503847 0.019289
C170  C     C_R   0.499991 0.000001 0.085792 0.023075
C171  C     C_R   0.999996 0.499997 0.085864 0.030590
C172  C     C_R   0.999964 0.499959 0.585864 0.030514
C173  C     C_R   0.002214 0.118864 0.500049 0.532992
C174  C     C_R   0.499953 0.000025 0.585865 0.030523
C175  C     C_R   0.499997 0.000000 0.054563 0.622248
C176  C     C_R   0.999998 0.499999 0.054589 0.622883
C177  C     C_R   0.999995 0.499991 0.554588 0.622775
C178  C     C_R   0.499989 0.000001 0.554589 0.623096
C179  C     C_R   0.500007 0.881185 0.001599 0.604784
C180  C     C_R   0.118834 0.500005 0.001654 0.604587
C181  C     C_R   0.499993 0.118815 0.001599 0.604782
C182  C     C_R   0.881165 0.499995 0.001652 0.604587
C183  C     C_R   0.000024 0.381169 0.501655 0.604674
C184  C     C_R   0.881133 0.002204 0.500051 0.532933
C185  C     C_R   0.618834 0.000005 0.501656 0.604708
C186  C     C_R   0.999976 0.618831 0.501655 0.604675
C187  C     C_R   0.381165 0.999995 0.501655 0.604695
C188  C     C_R   0.022236 0.449086 0.899337 -0.152386
C189  C     C_R   0.550996 0.022991 0.899453 -0.152123
C190  C     C_R   0.977142 0.551078 0.899454 -0.152138
C191  C     C_R   0.449177 0.977614 0.899344 -0.152434
C192  C     C_R   0.482527 0.947068 0.399282 -0.152853
C193  C     C_R   0.050773 0.523017 0.399405 -0.152062
C194  C     C_R   0.517460 0.052935 0.399278 -0.152857
C195  C     C_R   0.997788 0.881136 0.500050 0.532985
C196  C     C_R   0.949247 0.476976 0.399408 -0.152055
C197  C     C_R   0.553666 0.015180 0.100848 -0.140621
C198  C     C_R   0.006275 0.555421 0.100959 -0.138353
C199  C     C_R   0.446312 0.984823 0.100850 -0.140628
C200  C     C_R   0.993714 0.444572 0.100959 -0.138351
C201  C     C_R   0.055368 0.493733 0.600976 -0.138326
C202  C     C_R   0.506030 0.055494 0.600943 -0.138349
C203  C     C_R   0.944507 0.506136 0.600942 -0.138364
C204  C     C_R   0.493824 0.944602 0.600978 -0.138245
C205  C     C_R   0.500007 0.000029 0.945561 0.551582
C206  C     C_R   0.540476 0.781827 0.022479 0.064567
C207  C     C_R   0.999970 0.500005 0.945560 0.551449
C208  C     C_R   0.000003 0.499999 0.445563 0.551543
C209  C     C_R   0.499999 0.000001 0.445533 0.551885
C210  C     C_R   0.999794 0.500048 0.914361 -0.049849
C211  C     C_R   0.500052 0.000200 0.914363 -0.049828
C212  C     C_R   0.499996 0.000001 0.414282 -0.052184
C213  C     C_R   0.000008 0.499997 0.414369 -0.049361
C214  C     C_R   0.037093 0.539649 0.810193 0.458678
C215  C     C_R   0.460822 0.039128 0.810241 0.458087
C216  C     C_R   0.960724 0.460979 0.810241 0.457979
Cu1   Cu    Cu3+1 0.500000 0.500000 0.971900 0.971798
Cu2   Cu    Cu3+1 0.500040 0.938160 0.500050 0.992712
Cu3   Cu    Cu3+1 0.061840 0.500040 0.500050 0.993845
Cu4   Cu    Cu3+1 0.499960 0.061840 0.500050 0.992896
Cu5   Cu    Cu3+1 1.000000 0.000000 0.471900 0.971896
Cu6   Cu    Cu3+1 0.500000 0.500000 0.028180 0.943996
Cu7   Cu    Cu3+1 0.000000 0.000000 0.528180 0.947767
Cu8   Cu    Cu3+1 0.438160 0.999960 0.000050 0.992378
Cu9   Cu    Cu3+1 0.000040 0.438160 0.000050 0.994663
Cu10  Cu    Cu3+1 0.561840 0.000040 0.000050 0.992499
Cu11  Cu    Cu3+1 0.999960 0.561840 0.000050 0.994685
Cu12  Cu    Cu3+1 0.938160 0.499960 0.500050 0.994017
H1    H     H_    0.595054 0.028137 0.141643 0.144077
H2    H     H_    0.590227 0.040937 0.910946 0.130508
H3    H     H_    0.959307 0.590379 0.910948 0.130614
H4    H     H_    0.409908 0.959487 0.910753 0.130172
H5    H     H_    0.468565 0.906137 0.410693 0.133561
H6    H     H_    0.089904 0.541305 0.410857 0.129547
H7    H     H_    0.531425 0.093866 0.410686 0.133565
H8    H     H_    0.910114 0.458688 0.410862 0.129559
H9    H     H_    0.595617 0.027358 0.089813 0.134901
H10   H     H_    0.011162 0.598899 0.089984 0.129787
H11   H     H_    0.404365 0.972645 0.089817 0.134890
H12   H     H_    0.012690 0.598351 0.141728 0.145345
H13   H     H_    0.988826 0.401095 0.089986 0.129781
H14   H     H_    0.098867 0.488920 0.590013 0.129559
H15   H     H_    0.510803 0.098970 0.589957 0.129922
H16   H     H_    0.901044 0.510985 0.589957 0.129883
H17   H     H_    0.489087 0.901094 0.590016 0.129530
H18   H     H_    0.434694 0.694712 0.968940 0.140219
H19   H     H_    0.305361 0.432895 0.969676 0.139563
H20   H     H_    0.565316 0.305292 0.968939 0.140482
H21   H     H_    0.694653 0.567091 0.969664 0.139562
H22   H     H_    0.932910 0.194695 0.469685 0.138399
H23   H     H_    0.404913 0.971862 0.141646 0.144078
H24   H     H_    0.805366 0.932833 0.469707 0.141078
H25   H     H_    0.067113 0.805310 0.469690 0.138382
H26   H     H_    0.194647 0.067165 0.469701 0.141086
H27   H     H_    0.601526 0.637005 0.030867 0.149718
H28   H     H_    0.363255 0.602516 0.029836 0.148686
H29   H     H_    0.398473 0.362993 0.030875 0.149724
H30   H     H_    0.636735 0.397477 0.029833 0.148686
H31   H     H_    0.102549 0.136632 0.529809 0.148978
H32   H     H_    0.863253 0.102545 0.529815 0.148771
H33   H     H_    0.897443 0.863365 0.529812 0.149014
H34   H     H_    0.987300 0.401638 0.141730 0.145347
H35   H     H_    0.136734 0.897441 0.529806 0.148809
H36   H     H_    0.662870 0.690383 0.066021 0.139418
H37   H     H_    0.309995 0.665861 0.064294 0.133350
H38   H     H_    0.337117 0.309610 0.066030 0.139418
H39   H     H_    0.689980 0.334138 0.064296 0.133350
H40   H     H_    0.165926 0.189836 0.564252 0.137510
H41   H     H_    0.809989 0.165934 0.564256 0.137550
H42   H     H_    0.834046 0.810154 0.564252 0.137865
H43   H     H_    0.189981 0.834047 0.564247 0.137462
H44   H     H_    0.644576 0.799111 0.076659 0.120411
H45   H     H_    0.098231 0.487356 0.641764 0.144016
H46   H     H_    0.201294 0.648333 0.075157 0.107696
H47   H     H_    0.355402 0.200878 0.076664 0.120403
H48   H     H_    0.798674 0.351673 0.075161 0.107698
H49   H     H_    0.148421 0.298566 0.575119 0.110195
H50   H     H_    0.701290 0.148410 0.575126 0.110651
H51   H     H_    0.851544 0.701422 0.575119 0.110602
H52   H     H_    0.298674 0.851572 0.575121 0.109960
H53   H     H_    0.432417 0.806500 0.970546 0.135786
H54   H     H_    0.193583 0.430761 0.971327 0.136612
H55   H     H_    0.567590 0.193504 0.970544 0.135937
H56   H     H_    0.512193 0.098516 0.641700 0.145939
H57   H     H_    0.806431 0.569229 0.971317 0.136636
H58   H     H_    0.930794 0.306485 0.471332 0.135704
H59   H     H_    0.693591 0.930698 0.471359 0.141313
H60   H     H_    0.069226 0.693520 0.471336 0.135687
H61   H     H_    0.306423 0.069303 0.471355 0.141326
H62   H     H_    0.339728 0.123041 0.231335 0.333706
H63   H     H_    0.164037 0.382047 0.231478 0.335741
H64   H     H_    0.660216 0.876923 0.231322 0.333706
H65   H     H_    0.835974 0.617946 0.231496 0.335742
H66   H     H_    0.883657 0.334454 0.731426 0.334655
H67   H     H_    0.901489 0.512399 0.641699 0.145885
H68   H     H_    0.642054 0.856997 0.731464 0.332345
H69   H     H_    0.143482 0.641439 0.731456 0.332045
H70   H     H_    0.333944 0.115697 0.731425 0.334345
H71   H     H_    0.586775 0.883212 0.068561 0.322350
H72   H     H_    0.117247 0.590389 0.067689 0.312762
H73   H     H_    0.413199 0.116776 0.068562 0.322344
H74   H     H_    0.882730 0.409606 0.067684 0.312765
H75   H     H_    0.090507 0.382691 0.567655 0.313043
H76   H     H_    0.617236 0.090456 0.567671 0.313202
H77   H     H_    0.909472 0.617301 0.567659 0.313206
H78   H     H_    0.487542 0.901717 0.641769 0.143775
H79   H     H_    0.382731 0.909527 0.567667 0.312967
H80   H     H_    0.060901 0.368078 0.867844 0.329764
H81   H     H_    0.632051 0.062252 0.868163 0.330327
H82   H     H_    0.938117 0.632287 0.868169 0.330343
H83   H     H_    0.368320 0.938709 0.867857 0.329696
H84   H     H_    0.452296 0.862414 0.367869 0.329433
H85   H     H_    0.131470 0.562624 0.368007 0.328641
H86   H     H_    0.547686 0.137587 0.367858 0.329439
H87   H     H_    0.868557 0.437369 0.368015 0.328646
H88   H     H_    0.040254 0.409747 0.910743 0.130321
N1    N     N_R   0.999007 0.500273 0.824276 -0.340587
N2    N     N_1   0.676465 0.870970 0.790647 -0.213609
N3    N     N_1   0.129676 0.675900 0.790643 -0.214766
N4    N     N_1   0.341978 0.153297 0.790175 -0.216055
N5    N     N_1   0.349652 0.159295 0.290473 -0.208056
N6    N     N_1   0.154270 0.343613 0.290139 -0.208695
N7    N     N_1   0.650269 0.840654 0.290461 -0.208064
N8    N     N_1   0.845764 0.656394 0.290153 -0.208700
N9    N     N_R   0.500274 0.000977 0.824277 -0.340608
N10   N     N_R   0.499988 0.999999 0.324161 -0.340005
N11   N     N_R   0.000016 0.500000 0.324292 -0.340404
N12   N     N_R   0.499981 0.999995 0.175911 -0.428922
N13   N     N_R   0.999998 0.499993 0.176033 -0.429379
N14   N     N_R   0.999767 0.499865 0.676029 -0.429247
N15   N     N_R   0.499852 0.000203 0.676029 -0.429285
N16   N     N_1   0.846062 0.342692 0.790173 -0.215007
O1    O     O_R   0.590150 0.499950 0.976270 -0.503502
O2    O     O_R   0.500070 0.590130 0.023800 -0.516819
O3    O     O_R   0.409870 0.500070 0.023800 -0.516152
O4    O     O_R   0.499930 0.409870 0.023800 -0.516847
O5    O     O_R   0.090130 0.999930 0.523800 -0.515769
O6    O     O_R   0.000070 0.090130 0.523800 -0.516098
O7    O     O_R   0.909870 0.000070 0.523800 -0.515640
O8    O     O_R   0.999930 0.909870 0.523800 -0.515971
O9    O     O_R   0.447770 0.999940 0.041110 -0.490466
O10   O     O_R   0.000060 0.447770 0.041110 -0.490126
O11   O     O_R   0.552230 0.000060 0.041110 -0.490467
O12   O     O_R   0.500050 0.590150 0.976270 -0.503755
O13   O     O_R   0.999940 0.552230 0.041110 -0.490095
O14   O     O_R   0.947770 0.499940 0.541110 -0.490239
O15   O     O_R   0.500060 0.947770 0.541110 -0.490068
O16   O     O_R   0.052230 0.500060 0.541110 -0.490245
O17   O     O_R   0.499940 0.052230 0.541110 -0.490081
O18   O     O_R   0.447760 0.909780 0.000050 -0.522136
O19   O     O_R   0.090220 0.447760 0.000050 -0.520712
O20   O     O_R   0.552240 0.090220 0.000050 -0.522141
O21   O     O_R   0.909780 0.552240 0.000050 -0.520729
O22   O     O_R   0.947760 0.409780 0.500050 -0.521391
O23   O     O_R   0.409850 0.500050 0.976270 -0.503623
O24   O     O_R   0.590220 0.947760 0.500050 -0.517692
O25   O     O_R   0.052240 0.590220 0.500050 -0.521423
O26   O     O_R   0.409780 0.052240 0.500050 -0.517694
O27   O     O_R   0.552140 0.909770 0.000040 -0.467591
O28   O     O_R   0.090230 0.552140 0.000040 -0.468226
O29   O     O_R   0.447860 0.090230 0.000040 -0.467611
O30   O     O_R   0.909770 0.447860 0.000040 -0.468218
O31   O     O_R   0.052140 0.409770 0.500040 -0.467651
O32   O     O_R   0.590230 0.052140 0.500040 -0.471299
O33   O     O_R   0.947860 0.590230 0.500040 -0.467660
O34   O     O_R   0.499950 0.409850 0.976270 -0.503560
O35   O     O_R   0.409770 0.947860 0.500040 -0.471302
O36   O     O_R   0.447770 0.999980 0.958990 -0.513840
O37   O     O_R   0.000020 0.447770 0.958990 -0.514087
O38   O     O_R   0.552230 0.000020 0.958990 -0.513884
O39   O     O_R   0.999980 0.552230 0.958990 -0.514171
O40   O     O_R   0.947770 0.499980 0.458990 -0.514011
O41   O     O_R   0.500020 0.947770 0.458990 -0.515199
O42   O     O_R   0.052230 0.500020 0.458990 -0.514021
O43   O     O_R   0.499980 0.052230 0.458990 -0.515184
O44   O     O_2   0.076291 0.574629 0.825390 -0.446616
O45   O     O_R   0.090150 0.999950 0.476270 -0.503902
O46   O     O_2   0.424253 0.076592 0.825576 -0.444422
O47   O     O_2   0.923153 0.424549 0.825578 -0.444522
O48   O     O_2   0.574939 0.923933 0.825391 -0.446649
O49   O     O_2   0.585162 0.934760 0.325306 -0.447251
O50   O     O_2   0.924269 0.575864 0.325592 -0.444665
O51   O     O_2   0.414816 0.065239 0.325314 -0.447248
O52   O     O_2   0.075764 0.424138 0.325585 -0.444657
O53   O     O_2   0.424693 0.076874 0.175040 -0.406705
O54   O     O_2   0.086324 0.435735 0.175198 -0.404109
O55   O     O_2   0.575268 0.923115 0.175034 -0.406707
O56   O     O_R   0.000050 0.090150 0.476270 -0.503638
O57   O     O_2   0.913671 0.564250 0.175207 -0.404105
O58   O     O_2   0.936033 0.413201 0.675155 -0.404762
O59   O     O_2   0.586631 0.936548 0.675225 -0.403184
O60   O     O_2   0.063650 0.586436 0.675228 -0.403450
O61   O     O_2   0.412980 0.063708 0.675151 -0.404816
O62   O     O_3   0.376203 0.112810 0.219722 -0.619636
O63   O     O_3   0.127435 0.391407 0.219800 -0.619696
O64   O     O_3   0.623743 0.887160 0.219712 -0.619635
O65   O     O_3   0.872574 0.608586 0.219813 -0.619695
O66   O     O_3   0.892608 0.371154 0.719748 -0.621045
O67   O     O_R   0.909850 0.000050 0.476270 -0.503926
O68   O     O_3   0.627499 0.892002 0.719869 -0.620148
O69   O     O_3   0.108420 0.627047 0.719866 -0.620475
O70   O     O_3   0.370684 0.106897 0.719747 -0.621300
O71   O     O_3   0.560110 0.870698 0.052537 -0.692371
O72   O     O_3   0.129669 0.562616 0.052059 -0.691701
O73   O     O_3   0.439870 0.129293 0.052538 -0.692370
O74   O     O_3   0.870308 0.437389 0.052059 -0.691708
O75   O     O_3   0.062704 0.370283 0.552040 -0.691701
O76   O     O_3   0.629669 0.062657 0.552053 -0.691273
O77   O     O_3   0.937275 0.629709 0.552041 -0.691571
O78   O     O_R   0.999950 0.909850 0.476270 -0.503655
O79   O     O_3   0.370304 0.937333 0.552050 -0.691449
O80   O     O_3   0.046343 0.400043 0.854445 -0.651542
O81   O     O_3   0.600170 0.047874 0.854689 -0.651469
O82   O     O_3   0.952401 0.600349 0.854693 -0.651635
O83   O     O_3   0.400230 0.953352 0.854455 -0.651742
O84   O     O_3   0.463450 0.895653 0.354438 -0.653552
O85   O     O_3   0.099670 0.547897 0.354572 -0.653174
O86   O     O_3   0.536528 0.104348 0.354429 -0.653538
O87   O     O_3   0.900360 0.452097 0.354578 -0.653183
O88   O     O_R   0.590130 0.499930 0.023800 -0.516182

loop_
_geom_bond_atom_site_label_1
_geom_bond_atom_site_label_2
_ccdc_geom_bond_type
C172  C177  S    
C215  O46   S    
C178  O17   A    
Cu3   O31   S    
C209  O43   A    
C136  C140  S    
C79   C87   A    
C192  H5    S    
C59   N14   A    
C173  O56   A    
C61   N12   S    
C35   C124  A    
C205  C211  S    
C179  O18   A    
C167  C185  S    
C29   C33   A    
C3    O48   S    
C2    C90   A    
C34   O66   S    
C134  C143  A    
C188  C210  A    
Cu1   O1    S    
C207  C210  S    
C207  O39   A    
C107  H47   S    
C73   O83   S    
C60   N15   A    
C88   C97   A    
C74   O84   S    
Cu7   O7    S    
C95   H35   S    
C100  C109  A    
C63   C85   A    
H66   O66   S    
C57   C133  A    
C81   H23   S    
Cu4   O43   S    
Cu5   O45   S    
C18   C51   A    
C216  N1    A    
Cu10  O38   S    
C150  C159  A    
C27   C31   A    
C55   N13   A    
C103  H42   S    
Cu6   O88   S    
C137  C146  A    
C28   C32   A    
C169  C187  S    
C101  C137  A    
C140  O23   A    
C23   C37   A    
Cu9   O19   S    
C153  C161  A    
C111  H51   S    
C21   C123  S    
C172  C203  A    
C187  O35   A    
C125  N2    T    
C162  O5    A    
C108  C118  A    
C42   C55   A    
H82   O82   S    
C68   C169  A    
C76   O86   S    
C127  N4    T    
Cu4   O26   S    
C16   C20   A    
C4    N10   A    
Cu12  O33   S    
C67   C74   A    
C121  O77   S    
C70   O80   S    
C97   H37   S    
C3    N9    A    
C32   O64   S    
Cu9   O10   S    
H68   O68   S    
C36   C44   A    
C132  C141  A    
C37   C45   A    
H70   O70   S    
Cu2   O41   S    
C115  O71   S    
C193  H6    S    
C183  O22   A    
C69   N11   S    
C45   C59   A    
C89   C101  A    
C93   C102  A    
Cu1   O34   S    
C8    C216  A    
Cu10  O20   S    
H87   O87   S    
C193  C213  A    
C157  H58   S    
C53   O54   S    
C22   C36   A    
C8    C17   A    
C64   C84   A    
C60   O61   S    
C24   C165  A    
C190  C210  A    
C104  H43   S    
H84   O84   S    
C186  O25   A    
C45   C50   A    
Cu5   O78   S    
C58   N15   A    
C189  H2    S    
C28   C130  S    
C207  O37   A    
C119  O75   S    
C120  O76   S    
C56   N14   A    
C194  C212  A    
Cu7   O5    S    
C208  O40   A    
C86   H78   S    
C184  O7    A    
C116  O72   S    
C151  O34   A    
C187  O26   A    
C191  C211  A    
C11   C18   A    
C208  C213  S    
C102  H41   S    
C124  C139  A    
C69   C77   A    
Cu5   O67   S    
C209  C212  S    
C57   C168  A    
C128  N5    T    
C78   H1    S    
C99   C108  A    
C133  C142  A    
C20   C49   A    
C33   C42   A    
C123  N16   T    
C62   C80   A    
C112  O12   A    
C46   C132  A    
C126  N3    T    
C11   C25   A    
C65   C70   A    
C181  O29   A    
C6    N10   A    
C192  C212  A    
C214  O44   S    
C164  C181  S    
C53   N13   A    
Cu6   O3    S    
Cu8   O29   S    
Cu3   Cu12  S    
C161  C179  S    
C93   C132  A    
C149  C158  A    
C138  C147  A    
C131  N8    T    
C70   C188  A    
C105  H44   S    
C5    N11   A    
C155  H55   S    
C197  H9    S    
C72   C190  A    
C156  H57   S    
C158  H59   S    
C139  C148  A    
C168  C186  S    
C145  H19   S    
C140  O3    A    
C180  O19   A    
C85   C203  A    
C22   C125  S    
C203  H16   S    
C100  H40   S    
Cu4   O32   S    
C201  H14   S    
C12   C26   A    
Cu10  O11   S    
C182  O21   A    
C82   H34   S    
C171  C200  A    
C3    C9    A    
C25   C38   A    
C1    O1    A    
Cu2   Cu4   S    
C142  C195  S    
C174  C204  A    
C46   C120  A    
C181  O20   A    
C54   O55   S    
H64   O64   S    
C76   C194  A    
Cu2   O35   S    
Cu3   O25   S    
Cu1   O12   S    
C145  C154  A    
C26   C30   A    
C23   C126  S    
C7    N11   A    
C208  O42   A    
C66   N9    S    
C182  O30   A    
C92   H31   S    
C72   O82   S    
Cu3   O16   S    
C105  C115  A    
C34   C43   A    
C199  H11   S    
C2    C116  A    
C109  H49   S    
C43   C50   A    
H80   O80   S    
C65   C72   A    
C171  C176  S    
H81   O81   S    
C159  H60   S    
C89   C98   A    
C61   C81   A    
C29   C131  S    
C98   H38   S    
Cu9   O30   S    
H72   O72   S    
C30   C39   A    
H73   O73   S    
C148  C157  A    
C36   O68   S    
C176  O10   A    
H71   O71   S    
C205  O38   A    
C9    C18   A    
H85   O85   S    
C115  C206  A    
C180  O28   A    
C91   C99   A    
C83   H45   S    
C170  C197  A    
C11   C215  A    
C96   C105  A    
C52   N12   A    
C194  H7    S    
C112  O2    A    
C15   C19   A    
Cu11  O21   S    
C165  C182  S    
C171  C198  A    
C92   C124  A    
C6    C12   A    
C31   O63   S    
C85   H67   S    
C146  H20   S    
C178  O15   A    
C174  C202  A    
C94   C133  A    
C31   C40   A    
C103  C111  A    
C190  H3    S    
C214  N1    A    
C198  H10   S    
H63   O63   S    
C64   N15   S    
C146  C155  A    
H79   O79   S    
C44   C58   A    
C158  C167  A    
C160  C169  A    
C14   C27   A    
C174  C178  S    
C173  O6    A    
Cu12  O40   S    
C177  O14   A    
C87   H27   S    
C62   C82   A    
Cu12  O14   S    
Cu8   O36   S    
C185  O32   A    
C175  O9    A    
C64   C86   A    
C65   N1    S    
C170  C175  S    
Cu11  O39   S    
C179  O27   A    
Cu10  O27   S    
C14   C20   A    
C54   N12   A    
C46   C167  A    
C68   C122  A    
C10   C214  A    
C150  H25   S    
C47   C51   A    
C21   C34   A    
C196  H8    S    
C37   O69   S    
C95   C134  A    
Cu8   O9    S    
C63   C83   A    
C17   C50   A    
C30   O62   S    
C151  O4    A    
C66   C71   A    
C80   C198  A    
Cu11  O28   S    
C71   C189  A    
Cu12  O22   S    
C147  C156  A    
C4    O49   S    
C216  O47   S    
Cu7   O8    S    
C143  C152  A    
C88   C90   A    
C6    O51   S    
Cu8   O18   S    
C10   C23   A    
C161  C206  A    
C102  C110  A    
C215  N9    A    
H86   O86   S    
C59   O60   S    
C109  C119  A    
C13   C164  A    
C130  N7    T    
H77   O77   S    
Cu1   Cu6   S    
C147  H21   S    
C148  H22   S    
C166  C183  S    
Cu11  O13   S    
C1    O88   A    
C183  O31   A    
C108  H48   S    
C2    C163  A    
C81   C199  A    
C13   C117  A    
C7    O52   S    
C79   C135  A    
C142  C150  A    
C68   C134  A    
C25   C127  S    
C188  H88   S    
C15   C28   A    
C156  C165  A    
C195  O78   A    
C202  H15   S    
C12   C19   A    
C69   C75   A    
C71   O81   S    
C98   C107  A    
C177  O16   A    
Cu9   O37   S    
C94   H33   S    
Cu6   O4    S    
C106  C116  A    
C113  C138  A    
C33   O65   S    
C55   O57   S    
C200  H13   S    
C107  C117  A    
C40   C49   A    
C39   C48   A    
C110  H50   S    
C152  C160  A    
C77   O87   S    
C144  H18   S    
C111  C121  A    
Cu5   O56   S    
Cu3   O42   S    
C35   C119  A    
C106  H46   S    
C83   C201  A    
C160  H61   S    
C141  C149  A    
C88   H28   S    
C84   H56   S    
C99   H39   S    
Cu2   O15   S    
H65   O65   S    
C117  O73   S    
Cu4   O17   S    
C77   C196  A    
C175  O11   A    
C91   H30   S    
C9    C22   A    
C10   C17   A    
C159  C168  A    
C170  C199  A    
C144  C153  A    
C5    C16   A    
Cu9   Cu11  S    
C47   C60   A    
Cu7   O6    S    
C35   C166  A    
C7    C14   A    
C191  H4    S    
C56   O58   S    
C78   C197  A    
C58   O59   S    
C186  O33   A    
C143  C162  S    
C136  C145  A    
C114  H52   S    
C75   O85   S    
C67   N10   S    
H83   O83   S    
C39   C52   A    
C24   C113  A    
C5    O50   S    
Cu1   O23   S    
C153  H53   S    
C209  O41   A    
C154  C163  A    
C89   H29   S    
C189  C211  A    
C110  C120  A    
C19   C48   A    
C16   C29   A    
C66   C73   A    
H62   O62   S    
C91   C113  A    
C82   C200  A    
C93   H32   S    
C90   C136  A    
C122  O79   S    
Cu6   O2    S    
C61   C78   A    
C32   C41   A    
C87   C96   A    
C8    C21   A    
C195  O8    A    
C26   C128  S    
C38   C47   A    
C73   C191  A    
C104  C114  A    
C52   O53   S    
C75   C193  A    
C44   C51   A    
Cu2   O24   S    
C135  C144  A    
C63   N14   S    
H75   O75   S    
H76   O76   S    
C27   C129  S    
C139  C173  S    
C97   C106  A    
C112  C135  S    
C13   C101  A    
C86   C204  A    
C95   C104  A    
C92   C100  A    
C84   C202  A    
C118  O74   S    
C38   O70   S    
H74   O74   S    
C74   C192  A    
C185  O24   A    
C204  H17   S    
Cu8   Cu10  S    
C157  C166  A    
C94   C103  A    
C205  O36   A    
C62   N13   S    
C155  C164  A    
C79   C206  A    
C24   C118  A    
C141  C184  S    
C80   H12   S    
C4    C15   A    
C129  N6    T    
Cu5   Cu7   S    
C152  H26   S    
C196  C213  A    
C149  H24   S    
C41   C48   A    
C162  O45   A    
C176  O13   A    
C172  C201  A    
C41   C54   A    
C154  H54   S    
C42   C49   A    
C57   C121  A    
C114  C122  A    
C43   C56   A    
H69   O69   S    
C96   H36   S    
C40   C53   A    
C163  C180  S    
C137  C151  S    
C67   C76   A    
C184  O67   A    
C1    C138  S    
