data_mof_unit_39100.cif
_audit_creation_date              2012-12-11T19:58:07-0500
_audit_creation_method            fapswitch 2.2
_symmetry_space_group_name_H-M    P1
_symmetry_Int_Tables_number       1
_space_group_crystal_system       triclinic
_cell_length_a                    8.639027
_cell_length_b                    16.768672
_cell_length_c                    22.679813
_cell_angle_alpha                 106.984975
_cell_angle_beta                  89.024115
_cell_angle_gamma                 83.888754
_cell_volume                      3120.34059618

loop_
_atom_site_label
_atom_site_type_symbol
_atom_type_description
_atom_site_fract_x
_atom_site_fract_y
_atom_site_fract_z
_atom_type_partial_charge
Ba1   Ba    Ba6+2 0.335320 0.541410 0.478120 1.746538
Ba2   Ba    Ba6+2 0.854470 0.458670 0.521900 1.813230
C1    C     C_3   0.048784 0.837994 0.359759 0.656114
C2    C     C_3   0.086111 0.754035 0.372856 0.521231
C3    C     C_3   0.247888 0.245498 0.303802 0.619951
C4    C     C_3   0.229120 0.184308 0.238708 0.316995
C5    C     C_3   0.708913 0.226304 0.663972 0.640886
C6    C     C_3   0.687626 0.143108 0.682225 0.986167
C7    C     C_3   0.156879 0.257424 0.658369 0.899453
C8    C     C_3   0.165129 0.192809 0.695511 0.329984
C9    C     C_R   0.826113 0.515881 0.331029 -0.419793
C10   C     C_R   0.589383 0.562433 0.948279 -0.044862
C11   C     C_R   0.534867 0.564297 0.890057 0.615707
C12   C     C_3   0.547428 0.757974 0.351885 0.731014
C13   C     C_R   0.483473 0.421249 0.867913 0.558865
C14   C     C_R   0.554581 0.414488 0.922207 -0.033409
C15   C     C_R   0.603675 0.486229 0.963433 -0.049231
C16   C     C_R   0.628245 0.635164 0.992077 -0.055848
C17   C     C_R   0.674726 0.632654 0.050294 -0.074912
C18   C     C_R   0.690741 0.556576 0.065526 -0.023205
C19   C     C_R   0.661385 0.482549 0.021123 -0.046669
C20   C     C_R   0.575265 0.337928 0.936777 -0.074263
C21   C     C_R   0.643817 0.332979 0.991395 -0.082303
C22   C     C_R   0.685014 0.405453 0.034916 -0.061151
C23   C     C_3   0.619786 0.814388 0.318506 0.180155
C24   C     C_R   0.743041 0.403646 0.092875 0.624223
C25   C     C_R   0.728779 0.553841 0.125101 0.559338
C26   C     C_2   0.289197 0.476844 0.770206 0.073653
C27   C     C_3   0.226997 0.493225 0.711794 -0.096989
C28   C     C_1   0.485865 0.530721 0.692202 0.090146
C29   C     C_2   0.534904 0.525251 0.746367 -0.043587
C30   C     C_2   0.432884 0.496184 0.788753 0.236717
C31   C     C_R   0.918807 0.516093 0.229360 0.341041
C32   C     C_R   0.933418 0.538554 0.294155 -0.070692
C33   C     C_R   0.706467 0.468725 0.305513 -0.087312
C34   C     C_3   0.535364 0.734981 0.639806 0.601935
C35   C     C_R   0.678683 0.453366 0.241400 0.264607
C36   C     C_R   0.785948 0.479372 0.202711 0.152551
C37   C     C_2   0.350412 0.508349 0.670477 -0.182169
C38   C     C_2   0.400162 0.238206 0.482246 -0.265270
C39   C     C_R   0.812345 0.745561 0.508292 -0.160097
C40   C     C_2   0.260445 0.126518 0.420091 -0.129510
C41   C     C_2   0.267132 0.208849 0.443982 -0.050071
C42   C     C_2   0.506775 0.186133 0.501170 -0.047534
C43   C     C_3   0.479540 0.092679 0.487136 -0.100824
C44   C     C_3   0.388349 0.063116 0.428731 0.192045
C45   C     C_3   0.397967 0.796907 0.677708 -0.304955
C46   C     C_2   0.616624 0.026571 0.485899 -0.100016
C47   C     C_2   0.596084 0.956898 0.503188 -0.152744
C48   C     C_R   0.862612 0.913481 0.535128 0.082340
C49   C     C_R   0.722825 0.889802 0.508489 -0.038925
C50   C     C_R   0.973121 0.855599 0.549652 -0.180042
C51   C     C_R   0.946125 0.771739 0.537987 0.099099
C52   C     C_R   0.698048 0.804106 0.496509 0.034607
C53   C     C_3   0.741359 0.273551 0.325184 0.209509
C54   C     C_3   0.791421 0.247170 0.256144 -0.377925
C55   C     C_3   0.064920 0.672680 0.683532 0.237831
C56   C     C_3   0.970374 0.702092 0.746682 -0.247101
H1    H     H_    0.195076 0.752427 0.397699 0.066711
H2    H     H_    0.376458 0.851626 0.659488 0.037196
H3    H     H_    0.293826 0.765355 0.670118 0.090708
H4    H     H_    0.827854 0.313083 0.350692 0.016949
H5    H     H_    0.897571 0.203365 0.249228 0.079499
H6    H     H_    0.818574 0.302713 0.242836 0.084765
H7    H     H_    0.190514 0.662385 0.691502 -0.024196
H8    H     H_    0.028148 0.612403 0.655388 0.047668
H9    H     H_    0.848090 0.690853 0.736602 0.069842
H10   H     H_    0.986497 0.747513 0.402220 -0.233597
H11   H     H_    0.932968 0.834795 0.340685 0.027304
H12   H     H_    0.345498 0.217801 0.325603 0.036343
H13   H     H_    0.119501 0.206391 0.221516 -0.044711
H14   H     H_    0.273900 0.264023 0.641172 -0.138070
H15   H     H_    0.256625 0.140730 0.674605 -0.030617
H16   H     H_    0.053715 0.165726 0.691794 0.055699
H17   H     H_    0.658585 0.272819 0.000562 0.128426
H18   H     H_    0.539833 0.281323 0.905592 0.108407
H19   H     H_    0.698459 0.690672 0.083400 0.114634
H20   H     H_    0.618476 0.694845 0.982163 0.140917
H21   H     H_    0.649684 0.541613 0.760264 0.132399
H22   H     H_    0.210212 0.458847 0.800492 0.102325
H23   H     H_    0.842602 0.530681 0.380089 0.094261
H24   H     H_    0.648113 0.715584 0.360921 -0.126179
H25   H     H_    0.307666 0.522735 0.629604 0.067174
H26   H     H_    0.169322 0.104676 0.389358 0.101458
H27   H     H_    0.076152 0.877179 0.572639 0.082215
H28   H     H_    0.789419 0.681066 0.499985 0.048653
H29   H     H_    0.478134 0.949805 0.515986 0.091848
H30   H     H_    0.680332 0.858969 0.354031 0.018902
H31   H     H_    0.490422 0.698110 0.596187 0.077582
N1    N     N_R   0.484633 0.493480 0.849606 -0.445128
N2    N     N_R   0.755611 0.477964 0.138868 -0.408849
O1    O     O_2   0.414630 0.451750 0.353890 -0.381256
O2    O     O_3   0.040526 0.736085 0.654444 -0.640525
O3    O     O_3   0.466562 0.807161 0.407123 -0.674547
O4    O     O_2   0.775060 0.548280 0.646150 -0.446009
O5    O     O_3   0.534950 0.547420 0.574950 -0.483350
O6    O     O_3   0.073530 0.388570 0.588510 -0.438827
O7    O     O_3   0.600562 0.682902 0.673662 -0.651212
O8    O     O_3   0.168220 0.394330 0.455930 -0.446990
O9    O     O_3   0.678190 0.343400 0.553390 -0.379275
O10   O     O_2   0.809921 0.201082 0.489803 -0.427930
O11   O     O_3   0.767381 0.197487 0.600456 -0.583548
O12   O     O_3   0.654720 0.452660 0.425060 -0.456800
O13   O     O_3   0.021450 0.605740 0.544090 -0.493166
O14   O     O_2   0.953100 0.285520 0.441860 -0.427480
O15   O     O_3   0.106705 0.259954 0.339829 -0.695251
O16   O     O_2   0.926337 0.460907 0.696078 -0.443463
O17   O     O_3   0.091432 0.333708 0.699572 -0.556233
O18   O     O_2   0.528607 0.629620 0.876098 -0.524171
O19   O     O_2   0.418894 0.362895 0.837541 -0.560165
O20   O     O_2   0.776485 0.336481 0.103113 -0.547744
O21   O     O_2   0.733670 0.619903 0.165360 -0.626184
O22   O     O_3   0.116150 0.611500 0.411510 -0.491302
O23   O     O_2   0.252629 0.543448 0.301488 -0.504214
O24   O     O_3   0.590088 0.316519 0.336939 -0.552961
O25   O     O_3   0.103368 0.689504 0.316761 -0.609647
O26   O     O_2   0.236590 0.714510 0.558180 -0.491980
O27   O     O_3   0.511480 0.656670 0.446630 -0.492527
O28   O     O_2   0.385764 0.807780 0.519115 -0.506745
P1    P     P_3+3 0.594550 0.425840 0.359090 1.140716
P2    P     P_3+3 0.065650 0.701630 0.573510 0.981902
P3    P     P_3+3 0.514865 0.766404 0.468196 0.922883
P4    P     P_3+3 0.595130 0.574230 0.640920 1.032145
P5    P     P_3+3 0.680352 0.233636 0.541103 1.043800
P6    P     P_3+3 0.098021 0.593514 0.331981 0.959569
P7    P     P_3+3 0.129494 0.286874 0.419982 0.999079
P8    P     P_3+3 0.089862 0.418452 0.669826 1.046600
C57   C     C_2   0.414981 0.825066 0.746985 0.969077
O29   O     O_2   0.429047 0.773029 0.775187 -0.504955
O30   O     O_R   0.408104 0.910033 0.780140 -0.701291
H32   H     H_    0.384763 0.948741 0.753781 0.246676
C58   C     C_2   0.750291 0.197022 0.347356 0.908374
O31   O     O_2   0.634154 0.176679 0.368007 -0.590993
O32   O     O_R   0.894016 0.148218 0.342489 -0.750105
H33   H     H_    0.891158 0.099551 0.359814 0.348315
C59   C     C_2   0.680638 0.201415 0.212099 1.041586
O33   O     O_2   0.625897 0.232930 0.173803 -0.494226
O34   O     O_R   0.651308 0.120029 0.209484 -0.671500
H34   H     H_    0.716762 0.094849 0.237572 0.299870
O35   O     O_3   0.033968 0.906484 0.414236 -0.671319
C60   C     C_3   0.176918 0.921524 0.441696 0.165534
H35   H     H_    0.164519 0.984645 0.475665 0.066883
H36   H     H_    0.271328 0.920250 0.407879 0.114454
H37   H     H_    0.206345 0.877179 0.468144 0.076942
C61   C     C_2   0.968806 0.794739 0.781353 0.924212
O36   O     O_2   0.065713 0.835853 0.768693 -0.548400
O37   O     O_R   0.857101 0.834185 0.829192 -0.703102
H38   H     H_    0.781607 0.795103 0.836099 0.304536
C62   C     C_2   0.025439 0.652850 0.789560 0.771879
O38   O     O_2   0.154060 0.659840 0.810988 -0.569738
O39   O     O_R   0.926197 0.602291 0.807142 -0.741283
H39   H     H_    0.974411 0.573753 0.837261 0.304014
O40   O     O_3   0.287592 0.321265 0.295981 -0.603015
C63   C     C_3   0.154729 0.372807 0.287354 0.411325
H40   H     H_    0.055470 0.339494 0.267503 -0.108975
H41   H     H_    0.185722 0.404629 0.253840 0.064417
H42   H     H_    0.114971 0.418721 0.332412 0.019021
C64   C     C_2   0.223164 0.096005 0.240480 0.799518
O41   O     O_2   0.100154 0.065316 0.233482 -0.643276
O42   O     O_R   0.361324 0.047060 0.244338 -0.676115
H43   H     H_    0.347259 0.985391 0.232863 0.347491
O43   O     O_3   0.353494 0.185594 0.197880 -0.596964
C65   C     C_3   0.306450 0.166947 0.136299 0.301836
H44   H     H_    0.251106 0.107700 0.122313 0.019775
H45   H     H_    0.410598 0.158319 0.104861 0.113824
H46   H     H_    0.225863 0.219943 0.130198 0.017555
O44   O     O_3   0.155064 0.847623 0.314941 -0.639279
C66   C     C_3   0.104525 0.919418 0.296417 0.265291
H47   H     H_    0.173486 0.970815 0.318891 0.104860
H48   H     H_    0.979636 0.943925 0.307483 0.055420
H49   H     H_    0.124951 0.903718 0.245717 0.102376
O45   O     O_3   0.730342 0.763919 0.271658 -0.685891
C67   C     C_3   0.792057 0.809942 0.235102 0.174311
H50   H     H_    0.782983 0.878644 0.258288 0.042365
H51   H     H_    0.730982 0.799018 0.191303 0.096311
H52   H     H_    0.917006 0.786966 0.223259 0.067530
O46   O     O_3   0.832171 0.264768 0.698307 -0.624131
C68   C     C_3   0.791235 0.323531 0.757370 0.207452
H53   H     H_    0.894713 0.327702 0.785856 0.101837
H54   H     H_    0.697744 0.306754 0.783598 0.060407
H55   H     H_    0.756402 0.386686 0.752540 0.080737
C69   C     C_2   0.562485 0.290508 0.676102 0.632596
O47   O     O_2   0.561537 0.351088 0.657225 -0.618370
O48   O     O_R   0.444569 0.292909 0.719008 -0.720524
H56   H     H_    0.463891 0.250319 0.741858 0.349697
O49   O     O_3   0.697158 0.162974 0.748102 -0.724751
C70   C     C_3   0.605667 0.120388 0.778309 0.126857
H57   H     H_    0.623595 0.143480 0.828438 0.080562
H58   H     H_    0.642600 0.052052 0.764327 0.053698
H59   H     H_    0.479741 0.134424 0.772787 0.084804
O50   O     O_3   0.538941 0.120232 0.660900 -0.742501
C71   C     C_3   0.519327 0.034196 0.647520 0.156438
H60   H     H_    0.475231 0.019541 0.688539 -0.001217
H61   H     H_    0.623125 0.990584 0.625990 0.087913
H62   H     H_    0.424715 0.021547 0.615021 0.050056
O51   O     O_3   0.812448 0.081649 0.649370 -0.668670
C72   C     C_3   0.896185 0.036207 0.684606 0.183717
H63   H     H_    0.004268 0.002925 0.657678 0.025221
H64   H     H_    0.828372 0.988507 0.693207 0.018008
H65   H     H_    0.933487 0.076357 0.728735 0.072254
O52   O     O_3   0.061735 0.233890 0.607544 -0.613079
C73   C     C_3   0.123486 0.155790 0.566641 0.139212
H66   H     H_    0.083297 0.103807 0.581635 0.051066
H67   H     H_    0.252060 0.147324 0.563187 -0.070928
H68   H     H_    0.081112 0.151892 0.520514 0.148807
O53   O     O_3   0.436545 0.715173 0.314239 -0.638602
C74   C     C_3   0.498984 0.633209 0.283461 0.199018
H69   H     H_    0.499785 0.595713 0.316223 0.069482
H70   H     H_    0.618352 0.629462 0.263971 0.070035
H71   H     H_    0.424070 0.609114 0.245056 0.094134
O54   O     O_3   0.194485 0.231226 0.758046 -0.601887
C75   C     C_3   0.156582 0.180460 0.794712 0.191365
H72   H     H_    0.202091 0.113167 0.773474 -0.009098
H73   H     H_    0.028362 0.187445 0.803815 0.058521
H74   H     H_    0.210339 0.202402 0.839824 0.089272
O55   O     O_3   0.045840 0.513825 0.190370 -0.672570
C76   C     C_3   0.063734 0.593974 0.184734 0.245844
H75   H     H_    0.984492 0.646136 0.216067 0.118266
H76   H     H_    0.044579 0.593632 0.136424 0.050761
H77   H     H_    0.185376 0.607012 0.194105 0.060865
O56   O     O_3   0.560300 0.404115 0.218679 -0.595325
C77   C     C_3   0.461194 0.434462 0.179027 0.366104
H78   H     H_    0.462438 0.385395 0.133952 0.061375
H79   H     H_    0.485491 0.494141 0.171678 -0.108400
H80   H     H_    0.340609 0.445353 0.197877 0.087868
C78   C     C_2   0.420783 0.326632 0.494460 0.899496
O57   O     O_2   0.476045 0.350200 0.453905 -0.527068
O58   O     O_R   0.379255 0.383757 0.551781 -0.708352
H81   H     H_    0.352971 0.354144 0.582893 0.229792
C79   C     C_2   0.756015 0.025812 0.448506 0.981622
O59   O     O_2   0.750464 0.006100 0.392539 -0.590578
O60   O     O_R   0.893706 0.047387 0.476102 -0.723297
H82   H     H_    0.882520 0.061166 0.522490 0.291544
C80   C     C_2   0.496122 0.863545 0.292415 0.936792
O61   O     O_2   0.468095 0.938798 0.316680 -0.600114
O62   O     O_R   0.422877 0.826023 0.238371 -0.722429
H83   H     H_    0.461408 0.764458 0.219293 0.318454
O63   O     O_3   0.651959 0.778130 0.622429 -0.700736
C81   C     C_3   0.711194 0.834943 0.673561 0.194217
H84   H     H_    0.727050 0.810100 0.713390 0.074675
H85   H     H_    0.633995 0.894860 0.688035 -0.015708
H86   H     H_    0.825784 0.848801 0.659637 0.074090

loop_
_geom_bond_atom_site_label_1
_geom_bond_atom_site_label_2
_ccdc_geom_bond_type
C34   H31   S    
C53   C54   S    
C11   N1    Am   
O52   C73   S    
C47   H29   S    
C17   C18   A    
C7    H14   S    
C20   H18   S    
C55   H8    S    
O6    P8    S    
C57   O29   D    
Ba1   O8    S    
C61   O36   D    
C56   C61   S    
C1    O44   S    
C45   C57   S    
Ba2   P4    S    
C9    H23   S    
C76   H77   S    
C39   H28   S    
C26   C30   D    
C35   C36   A    
C73   H67   S    
O14   P7    D    
C26   C27   S    
C1    H11   S    
C22   C24   A    
Ba1   Ba2   S    
C62   O39   S    
C40   C44   S    
C3    C4    S    
C8    H15   S    
C3    O40   S    
C43   C46   S    
O22   P6    S    
C72   H63   S    
C6    O50   S    
C13   C14   A    
C53   H4    S    
O62   H83   S    
C5    O46   S    
C34   C45   S    
C72   H64   S    
C16   C17   A    
O27   P3    S    
C34   O7    S    
C17   H19   S    
O26   P2    D    
C69   O47   D    
C70   H59   S    
C11   O18   D    
O37   H38   S    
C4    C64   S    
C45   H2    S    
C9    C33   A    
C66   H49   S    
C30   N1    S    
O17   P8    S    
C81   H84   S    
Ba2   O6    S    
C14   C15   A    
C47   C49   S    
C5    O11   S    
C10   C15   A    
C74   H71   S    
C48   C50   A    
C21   C22   A    
C54   H6    S    
C25   N2    Am   
C7    C8    S    
Ba1   O12   S    
C32   P6    S    
C63   H41   S    
O5    P4    S    
C56   C62   S    
C16   H20   S    
C46   C79   S    
C66   H48   S    
C52   P3    S    
Ba2   O9    S    
C75   H72   S    
C55   O2    S    
C64   O42   S    
C13   O19   D    
C33   P1    S    
C4    H13   S    
C80   O62   S    
O11   P5    S    
C41   P7    S    
O58   H81   S    
C54   C59   S    
C31   O55   S    
C48   C49   A    
O8    P7    S    
Ba1   P2    S    
C3    O15   S    
C67   H51   S    
C34   O63   S    
O7    P4    S    
O10   P5    D    
C73   H66   S    
C61   O37   S    
C74   H69   S    
C68   H55   S    
C71   H62   S    
C4    O43   S    
C5    C6    S    
C65   H46   S    
C40   H26   S    
O55   C76   S    
C63   H42   S    
C59   O34   S    
C23   C80   S    
C60   H37   S    
C55   H7    S    
O44   C66   S    
C2    H10   S    
O23   P6    D    
O53   C74   S    
C58   O31   D    
C73   H68   S    
O13   P2    S    
C77   H80   S    
C6    O49   S    
C24   N2    Am   
C43   C44   S    
C36   N2    S    
C42   P5    S    
C23   H30   S    
C15   C19   A    
O50   C71   S    
C57   O30   S    
C7    O17   S    
Ba1   P1    S    
C71   H61   S    
C72   H65   S    
C77   H79   S    
O54   C75   S    
C45   H3    S    
C3    H12   S    
O56   C77   S    
C56   H9    S    
C29   C30   S    
C75   H74   S    
Ba2   O13   S    
O39   H39   S    
C27   C37   S    
O2    P2    S    
C31   C32   A    
C54   H5    S    
C81   H85   S    
Ba1   O26   S    
O35   C60   S    
C79   O60   S    
Ba1   O13   S    
C39   C51   A    
C63   H40   S    
C7    O52   S    
O3    P3    S    
C23   O45   S    
C66   H47   S    
C75   H73   S    
C25   O21   D    
O46   C68   S    
Ba1   O1    S    
C78   O58   S    
O25   P6    S    
C12   O53   S    
C64   O41   D    
C80   O61   D    
C12   H24   S    
C1    C2    S    
C50   C51   A    
O43   C65   S    
O28   P3    D    
O4    P4    D    
O63   C81   S    
C50   H27   S    
C14   C20   A    
C5    C69   S    
C33   C35   A    
C18   C19   A    
C2    O25   S    
C9    C32   A    
C42   C43   S    
C78   O57   D    
C21   H17   S    
O51   C72   S    
Ba2   O4    S    
Ba2   O8    S    
C27   P8    S    
C68   H54   S    
O24   P1    S    
C29   H21   S    
O32   H33   S    
C18   C25   A    
C76   H76   S    
O15   P7    S    
Ba2   O14   S    
C31   C36   A    
C10   C11   A    
C49   C52   A    
C71   H60   S    
C38   C41   S    
C60   H36   S    
O30   H32   S    
C76   H75   S    
C37   H25   S    
C70   H57   S    
C38   C78   S    
C51   P2    S    
C60   H35   S    
O42   H43   S    
C13   N1    Am   
C8    H16   S    
C55   C56   S    
C28   C29   D    
C53   O24   S    
Ba2   O12   S    
Ba1   O5    S    
C46   C47   D    
C24   O20   D    
C2    H1    S    
Ba2   O5    S    
O60   H82   S    
C67   H52   S    
O12   P1    S    
C28   C37   D    
C6    O51   S    
C81   H86   S    
Ba1   O27   S    
Ba1   O22   S    
C12   C23   S    
O1    P1    D    
C79   O59   D    
C26   H22   S    
C69   O48   S    
C39   C52   A    
C70   H58   S    
C65   H44   S    
O34   H34   S    
C35   O56   S    
O45   C67   S    
C8    O54   S    
C38   C42   D    
C28   P4    S    
C58   O32   S    
C53   C58   S    
C40   C41   D    
C19   C22   A    
C10   C16   A    
C74   H70   S    
C20   C21   A    
C59   O33   D    
C65   H45   S    
O48   H56   S    
C1    O35   S    
O16   P8    D    
O9    P5    S    
O49   C70   S    
C62   O38   D    
C67   H50   S    
C77   H78   S    
C12   O3    S    
C68   H53   S    
O40   C63   S    
