data_mof_unit_16186.cif
_audit_creation_date              2012-12-11T17:01:19-0500
_audit_creation_method            fapswitch 2.2
_symmetry_space_group_name_H-M    P1
_symmetry_Int_Tables_number       1
_space_group_crystal_system       triclinic
_cell_length_a                    19.394334
_cell_length_b                    7.108691
_cell_length_c                    17.593568
_cell_angle_alpha                 89.999733
_cell_angle_beta                  108.577445
_cell_angle_gamma                 90.000278
_cell_volume                      2299.20745338

loop_
_atom_site_label
_atom_site_type_symbol
_atom_type_description
_atom_site_fract_x
_atom_site_fract_y
_atom_site_fract_z
_atom_type_partial_charge
O1    O     O_R   0.413720 0.494330 0.415730 -0.534659
O2    O     O_R   0.586280 0.994330 0.584270 -0.534658
O3    O     O_R   0.560210 0.819300 0.430070 -0.543368
O4    O     O_R   0.439790 0.319300 0.569930 -0.543370
C1    C     C_R   0.581491 0.655225 0.414505 0.713056
C2    C     C_R   0.418509 0.155224 0.585495 0.713053
O5    O     O_R   0.412670 0.823730 0.406310 -0.543978
O6    O     O_R   0.587330 0.323730 0.593690 -0.543979
O7    O     O_R   0.437690 0.998790 0.560340 -0.540296
O8    O     O_R   0.562310 0.498790 0.439660 -0.540292
C3    C     C_R   0.385419 0.655214 0.383393 0.691530
C4    C     C_R   0.614581 0.155214 0.616606 0.691535
O9    O     O_3   0.508380 0.662350 0.550560 -0.375127
O10   O     O_3   0.491620 0.162350 0.449440 -0.375125
V1    V     V_3+5 0.498450 0.935370 0.490620 1.388286
V2    V     V_3+5 0.501550 0.435370 0.509380 1.388284
C5    C     C_R   0.699084 0.989427 0.737200 0.108530
C6    C     C_R   0.300917 0.489431 0.262797 0.108528
C7    C     C_R   0.681807 0.147040 0.686846 -0.108783
C8    C     C_R   0.318193 0.647041 0.313154 -0.108785
C9    C     C_R   0.730220 0.300539 0.706896 -0.178750
C10   C     C_R   0.269780 0.800538 0.293105 -0.178758
H1    H     H_    0.719266 0.425572 0.670123 0.139672
H2    H     H_    0.280733 0.925570 0.329878 0.139668
C11   C     C_R   0.795930 0.289012 0.771090 -0.172955
C12   C     C_R   0.204069 0.789011 0.228911 -0.172961
H3    H     H_    0.833154 0.406686 0.782321 0.138369
H4    H     H_    0.166845 0.906683 0.217681 0.138365
C13   C     C_R   0.815506 0.123032 0.816895 -0.105996
C14   C     C_R   0.184494 0.623032 0.183105 -0.105998
C15   C     C_R   0.764102 0.977726 0.800479 0.102919
C16   C     C_R   0.235899 0.477731 0.199519 0.102920
C17   C     C_3   0.772716 0.774098 0.785691 -0.420715
C18   C     C_3   0.227289 0.274097 0.214303 -0.420711
C19   C     C_3   0.701700 0.786828 0.716789 -0.400405
C20   C     C_3   0.298306 0.286828 0.283205 -0.400402
H5    H     H_    0.768762 0.684863 0.836022 0.171951
H6    H     H_    0.231244 0.184871 0.163970 0.171951
H7    H     H_    0.820671 0.746224 0.765702 0.178287
H8    H     H_    0.179335 0.246208 0.234292 0.178280
H9    H     H_    0.656777 0.705065 0.727425 0.174181
H10   H     H_    0.343229 0.205077 0.272565 0.174181
H11   H     H_    0.708517 0.765949 0.656938 0.173747
H12   H     H_    0.291489 0.265937 0.343055 0.173741
C21   C     C_R   0.323545 0.989887 0.629656 -0.214315
C22   C     C_R   0.676468 0.489911 0.370360 -0.214260
C23   C     C_R   0.369255 0.146243 0.634973 -0.068686
C24   C     C_R   0.630741 0.646245 0.365023 -0.068676
C25   C     C_R   0.366934 0.295021 0.686455 -0.224772
C26   C     C_R   0.633039 0.794994 0.313514 -0.224803
C27   C     C_R   0.319875 0.288739 0.732475 0.122503
C28   C     C_R   0.680098 0.788709 0.267494 0.122453
C29   C     C_R   0.273604 0.131813 0.726711 0.077047
C30   C     C_R   0.726381 0.631799 0.273273 0.077009
C31   C     C_R   0.275179 0.979282 0.675079 0.005739
C32   C     C_R   0.724816 0.479284 0.324917 0.005732
C33   C     C_R   0.317972 0.438546 0.783753 -0.190185
C34   C     C_R   0.681990 0.938496 0.216202 -0.190282
C35   C     C_R   0.269931 0.435644 0.828338 -0.186529
C36   C     C_R   0.730041 0.935600 0.171628 -0.186568
C37   C     C_R   0.223407 0.281948 0.823133 0.108927
C38   C     C_R   0.776580 0.781925 0.176852 0.108916
C39   C     C_R   0.225453 0.129026 0.772476 0.067597
C40   C     C_R   0.774536 0.629013 0.227513 0.067585
C41   C     C_R   0.179299 0.973816 0.767678 0.044911
C42   C     C_R   0.820695 0.473812 0.232317 0.044926
C43   C     C_R   0.180463 0.823945 0.716559 -0.157689
C44   C     C_R   0.819529 0.323940 0.283438 -0.157698
C45   C     C_R   0.227443 0.823692 0.669786 -0.030297
C46   C     C_R   0.772548 0.323690 0.330207 -0.030232
C47   C     C_R   0.175234 0.278213 0.868189 -0.216133
C48   C     C_R   0.824762 0.778200 0.131807 -0.216137
C49   C     C_R   0.129910 0.121813 0.864736 -0.077979
C50   C     C_R   0.870088 0.621810 0.135262 -0.077987
C51   C     C_R   0.132440 0.970174 0.814252 -0.200519
C52   C     C_R   0.867553 0.470172 0.185743 -0.200524
H13   H     H_    0.325445 0.880280 0.588079 0.110224
H14   H     H_    0.674603 0.380345 0.411972 0.110214
H15   H     H_    0.402020 0.416096 0.690915 0.119664
H16   H     H_    0.597939 0.916051 0.309038 0.119661
H17   H     H_    0.353084 0.559603 0.788573 0.120059
H18   H     H_    0.646866 0.059537 0.211367 0.120073
H19   H     H_    0.269082 0.554065 0.866826 0.125212
H20   H     H_    0.730886 0.054008 0.133134 0.125227
H21   H     H_    0.174154 0.395491 0.907202 0.123412
H22   H     H_    0.825846 0.895473 0.092797 0.123420
H23   H     H_    0.097384 0.849402 0.810615 0.131563
H24   H     H_    0.902605 0.349401 0.189376 0.131568
H25   H     H_    0.144674 0.705090 0.713748 0.172203
H26   H     H_    0.855309 0.205070 0.286242 0.172172
O11   O     O_R   0.937800 0.775460 0.060470 -0.537027
O12   O     O_R   0.062200 0.275460 0.939530 -0.537026
O13   O     O_R   0.087350 0.441340 0.093710 -0.539082
O14   O     O_R   0.912650 0.941340 0.906290 -0.539082
C53   C     C_R   0.114700 0.610315 0.116438 0.691946
C54   C     C_R   0.885300 0.110315 0.883562 0.691947
O15   O     O_R   0.939820 0.446010 0.069950 -0.543900
O16   O     O_R   0.060180 0.946010 0.930050 -0.543900
O17   O     O_R   0.913690 0.271230 0.915700 -0.539274
O18   O     O_R   0.086310 0.771230 0.084300 -0.539274
C55   C     C_R   0.918882 0.614349 0.085201 0.705136
C56   C     C_R   0.081118 0.114350 0.914799 0.705139
O19   O     O_3   0.991670 0.603050 0.949510 -0.374084
O20   O     O_3   0.008330 0.103050 0.050490 -0.374085
V3    V     V_3+5 0.001550 0.329940 0.009370 1.399541
V4    V     V_3+5 0.998450 0.829940 0.990630 1.399541
C57   C     C_2   0.225275 0.657841 0.617151 0.405328
H27   H     H_    0.268101 0.630148 0.591642 0.030014
O21   O     O_2   0.175079 0.545447 0.602422 -0.515969
C58   C     C_2   0.774684 0.157814 0.382815 0.405323
H28   H     H_    0.731779 0.129941 0.408197 0.030020
O22   O     O_2   0.824934 0.045571 0.397644 -0.515945

loop_
_geom_bond_atom_site_label_1
_geom_bond_atom_site_label_2
_ccdc_geom_bond_type
C42   C44   A    
C39   C41   A    
C49   C51   A    
C20   H10   S    
O1    C3    A    
O2    C4    A    
C2    O7    A    
O20   V4    S    
C45   C57   S    
C23   C25   A    
O5    C3    A    
C17   H7    S    
C50   C52   A    
C18   H8    S    
C7    C9    A    
C35   H19   S    
C34   H18   S    
C36   H20   S    
C33   C35   A    
C34   C36   A    
C54   O17   A    
C43   H25   S    
C36   C38   A    
C21   C23   A    
C37   C39   A    
C58   H28   S    
C38   C40   A    
C46   C58   S    
O13   V3    S    
C47   H21   S    
C41   C43   A    
C26   C28   A    
C57   H27   S    
C15   C17   S    
C27   C33   A    
C19   H11   S    
C52   H24   S    
C18   C20   S    
O12   C56   A    
O15   V3    S    
C37   C47   A    
C24   C26   A    
O6    V2    S    
C57   O21   D    
O11   V4    S    
O11   C55   A    
O20   V3    S    
C28   C30   A    
C22   C24   A    
C29   C31   A    
C11   C13   A    
O17   V3    S    
C1    C24   S    
C30   C32   A    
C3    C8    S    
C35   C37   A    
C2    C23   S    
C48   C50   A    
C22   H14   S    
C53   O18   A    
C25   C27   A    
O16   C56   A    
C17   H5    S    
C25   H15   S    
C43   C45   A    
C40   C42   A    
O4    V2    S    
C14   C53   S    
C44   H26   S    
O6    C4    A    
C42   C52   A    
C38   C48   A    
O19   V3    S    
O1    V2    S    
O14   C54   A    
O2    V1    S    
C31   C45   A    
C28   C34   A    
C50   C55   S    
C51   H23   S    
C49   C56   S    
C8    C10   A    
C12   C14   A    
C32   C46   A    
C9    H1    S    
C5    C15   A    
C10   H2    S    
C20   H12   S    
O4    C2    A    
C6    C16   A    
O3    V1    S    
C47   C49   A    
C9    C11   A    
O14   V4    S    
C18   H6    S    
O18   V4    S    
O3    C1    A    
C26   H16   S    
C13   C54   S    
C48   H22   S    
C11   H3    S    
C12   H4    S    
O16   V4    S    
O7    V1    S    
C1    O8    A    
C13   C15   A    
O8    V2    S    
C14   C16   A    
C29   C39   A    
C17   C19   S    
C30   C40   A    
C4    C7    S    
O5    V1    S    
C5    C7    A    
O19   V4    S    
C6    C8    A    
C19   H9    S    
C33   H17   S    
C58   O22   D    
O12   V3    S    
C21   C31   A    
O13   C53   A    
C10   C12   A    
O9    V2    S    
C22   C32   A    
C44   C46   A    
O10   V1    S    
C21   H13   S    
C5    C19   S    
C27   C29   A    
C6    C20   S    
O15   C55   A    
C41   C51   A    
C16   C18   S    
