data_mof_unit_58950.cif
_audit_creation_date              2012-12-11T17:14:10-0500
_audit_creation_method            fapswitch 2.2
_symmetry_space_group_name_H-M    P1
_symmetry_Int_Tables_number       1
_space_group_crystal_system       triclinic
_cell_length_a                    18.307571
_cell_length_b                    7.13787
_cell_length_c                    13.233707
_cell_angle_alpha                 89.97699
_cell_angle_beta                  70.429779
_cell_angle_gamma                 89.949253
_cell_volume                      1629.44010848

loop_
_atom_site_label
_atom_site_type_symbol
_atom_type_description
_atom_site_fract_x
_atom_site_fract_y
_atom_site_fract_z
_atom_type_partial_charge
O1    O     O_R   0.453880 0.506200 0.150010 -0.536934
O2    O     O_R   0.546120 0.006200 0.849990 -0.539694
O3    O     O_R   0.604080 0.177770 0.007280 -0.541417
O4    O     O_R   0.395920 0.677770 0.992720 -0.546621
C1    C     C_R   0.636250 0.344118 0.000295 0.726706
C2    C     C_R   0.364140 0.844634 0.998037 0.724798
O5    O     O_R   0.458010 0.176640 0.159130 -0.544065
O6    O     O_R   0.541990 0.676640 0.840870 -0.545945
O7    O     O_R   0.399010 0.004010 0.002930 -0.542154
O8    O     O_R   0.600990 0.504010 0.997070 -0.534331
C3    C     C_R   0.442106 0.345024 0.201192 0.701972
C4    C     C_R   0.555619 0.844889 0.798806 0.701837
O9    O     O_3   0.480810 0.338440 0.948570 -0.388566
O10   O     O_3   0.519190 0.838440 0.051430 -0.372604
V1    V     V_3+5 0.503560 0.064490 0.009540 1.367271
V2    V     V_3+5 0.496440 0.564490 0.990460 1.362812
C5    C     C_R   0.577540 0.820587 0.505526 0.084477
C6    C     C_R   0.412954 0.344510 0.496726 0.110117
H1    H     H_    0.482472 0.814895 0.657715 0.093457
H2    H     H_    0.510635 0.360584 0.349651 0.094226
C7    C     C_R   0.590130 0.849215 0.682396 -0.055870
C8    C     C_R   0.404258 0.351405 0.317339 -0.077256
C9    C     C_R   0.951350 0.921599 0.380451 -0.167228
C10   C     C_R   0.042260 0.430911 0.619055 -0.168287
C11   C     C_R   0.917025 0.952348 0.489727 -0.126428
C12   C     C_R   0.076172 0.459339 0.508944 -0.122763
C13   C     C_R   0.837160 0.932954 0.538481 -0.153988
C14   C     C_R   0.155515 0.428938 0.458085 -0.158243
C15   C     C_R   0.789266 0.876364 0.478873 0.087927
C16   C     C_R   0.202561 0.363140 0.516538 0.083644
C17   C     C_R   0.825311 0.842611 0.367650 0.030130
C18   C     C_R   0.165874 0.322835 0.626573 0.042624
C19   C     C_R   0.706922 0.856415 0.525527 0.022491
C20   C     C_R   0.285162 0.346222 0.471399 0.028294
C21   C     C_R   0.660925 0.811129 0.459750 0.037991
C22   C     C_R   0.330385 0.317707 0.540402 0.066432
C23   C     C_R   0.701014 0.749518 0.353345 0.124832
C24   C     C_R   0.289886 0.255901 0.647092 0.071957
C25   C     C_R   0.780570 0.779154 0.307557 -0.238320
C26   C     C_R   0.209531 0.249404 0.684334 -0.236963
C27   C     C_R   0.669504 0.872596 0.636890 -0.220812
C28   C     C_R   0.323756 0.356932 0.359924 -0.220729
C29   C     C_R   0.544488 0.822640 0.618194 -0.212165
C30   C     C_R   0.448275 0.350633 0.384860 -0.201698
C31   C     C_R   0.906324 0.867282 0.318632 -0.064572
C32   C     C_R   0.086599 0.363049 0.679095 -0.071646
H3    H     H_    0.700756 0.892771 0.691982 0.105190
H4    H     H_    0.292396 0.360359 0.303887 0.105303
H5    H     H_    0.952321 0.996629 0.536676 0.127611
H6    H     H_    0.041373 0.512973 0.463385 0.127530
H7    H     H_    0.808424 0.736914 0.225040 0.140802
H8    H     H_    0.181114 0.194931 0.763908 0.149558
C33   C     C_1   0.216452 0.858542 0.999872 -0.197201
C34   C     C_1   0.784125 0.357495 0.997838 -0.196447
C35   C     C_1   0.283708 0.852719 0.998704 -0.189054
C36   C     C_1   0.716959 0.351185 0.998613 -0.210466
O11   O     O_R   0.899030 0.205490 0.002790 -0.532053
O12   O     O_R   0.100970 0.705490 0.997210 -0.533133
O13   O     O_R   0.042000 0.536370 0.840840 -0.536835
O14   O     O_R   0.958000 0.036370 0.159160 -0.537344
C37   C     C_R   0.053584 0.367995 0.797835 0.674095
C38   C     C_R   0.942837 0.868824 0.201486 0.680899
O15   O     O_R   0.895930 0.535070 0.992690 -0.544169
O16   O     O_R   0.104070 0.035070 0.007310 -0.544990
O17   O     O_R   0.953870 0.707520 0.150040 -0.542918
O18   O     O_R   0.046130 0.207520 0.849960 -0.545359
C39   C     C_R   0.864320 0.366499 0.998110 0.717868
C40   C     C_R   0.135883 0.866637 0.001042 0.715387
O19   O     O_3   0.019200 0.374340 0.051340 -0.374629
O20   O     O_3   0.980800 0.874340 0.948660 -0.375006
V3    V     V_3+5 0.996440 0.648350 0.990470 1.416941
V4    V     V_3+5 0.003560 0.148350 0.009530 1.415336
C41   C     C_3   0.668187 0.611156 0.293757 -0.369229
C42   C     C_3   0.664676 0.684367 0.186033 -0.312401
C43   C     C_3   0.639767 0.888218 0.182771 -0.652437
H9    H     H_    0.666941 0.984155 0.225715 0.204078
H10   H     H_    0.575817 0.901328 0.214742 0.216521
H11   H     H_    0.658849 0.933471 0.097829 0.223568
H12   H     H_    0.723031 0.668708 0.124631 0.191271
H13   H     H_    0.623793 0.593977 0.163230 0.195005
H14   H     H_    0.707380 0.487101 0.274677 0.144405
H15   H     H_    0.614232 0.545060 0.344899 0.139234
C44   C     C_3   0.324257 0.188169 0.728792 -0.385328
C45   C     C_3   0.296084 0.314228 0.829097 -0.385977
C46   C     C_3   0.358765 0.342606 0.876912 -0.596408
H16   H     H_    0.397503 0.458218 0.834499 0.208836
H17   H     H_    0.332387 0.376069 0.963496 0.218372
H18   H     H_    0.393334 0.212786 0.866849 0.240936
H19   H     H_    0.277437 0.455020 0.810621 0.202891
H20   H     H_    0.245391 0.247570 0.890016 0.202061
H21   H     H_    0.304053 0.042407 0.752367 0.156191
H22   H     H_    0.386947 0.174079 0.697837 0.176510
C47   C     C_3   0.524940 0.854030 0.436858 -0.379103
C48   C     C_3   0.436286 0.870892 0.495003 -0.358013
C49   C     C_3   0.392118 0.872494 0.415395 -0.708607
H23   H     H_    0.417539 0.975669 0.350767 0.242789
H24   H     H_    0.394821 0.732532 0.378206 0.235054
H25   H     H_    0.330349 0.908528 0.457576 0.219420
H26   H     H_    0.411884 0.755965 0.552062 0.190846
H27   H     H_    0.422880 0.999579 0.542327 0.207030
H28   H     H_    0.544498 0.985198 0.391196 0.176089
H29   H     H_    0.530576 0.742657 0.378121 0.203944
C50   C     C_3   0.463442 0.407747 0.561515 -0.425034
C51   C     C_3   0.529087 0.274716 0.561406 -0.342420
C52   C     C_3   0.580487 0.356375 0.620266 -0.709664
H30   H     H_    0.615333 0.473669 0.573915 0.233275
H31   H     H_    0.544845 0.404373 0.701592 0.245082
H32   H     H_    0.621501 0.247981 0.628554 0.223286
H33   H     H_    0.504366 0.146500 0.603164 0.212248
H34   H     H_    0.566148 0.241917 0.478114 0.198649
H35   H     H_    0.493980 0.531616 0.521619 0.211560
H36   H     H_    0.428731 0.454762 0.643192 0.185122
H37   H     H_    0.013093 0.944746 0.343301 0.106595
H38   H     H_    0.981691 0.465786 0.657990 0.108220
H39   H     H_    0.815046 0.967552 0.622424 0.106220
H40   H     H_    0.178878 0.466051 0.374380 0.107705

loop_
_geom_bond_atom_site_label_1
_geom_bond_atom_site_label_2
_ccdc_geom_bond_type
C25   H7    S    
C10   H38   S    
C47   C48   S    
C9    C31   A    
C24   C44   S    
C13   C15   A    
C41   C42   S    
C1    C36   S    
C49   H23   S    
O1    C3    A    
C2    C35   S    
O2    C4    A    
C2    O7    A    
C49   H25   S    
C46   H16   S    
O5    C3    A    
C44   H22   S    
C52   H31   S    
O16   C40   A    
O14   C38   A    
C21   C23   A    
C10   C12   A    
C12   H6    S    
C51   H33   S    
O12   V3    S    
O14   V4    S    
C15   C19   A    
C31   C38   S    
C50   H35   S    
O19   V3    S    
C33   C40   S    
C14   H40   S    
C7    C29   A    
C37   O18   A    
C8    C30   A    
O18   V4    S    
C20   C28   A    
O20   V3    S    
O5    V1    S    
O6    V2    S    
C24   C26   A    
C42   H13   S    
C45   H20   S    
O11   C39   A    
C41   H14   S    
C51   C52   S    
H2    C30   S    
H1    C29   S    
C34   C36   T    
C46   H17   S    
C52   H32   S    
O15   C39   A    
O13   C37   A    
C42   C43   S    
C16   C20   A    
C32   C37   S    
C45   C46   S    
O4    C2    A    
C47   H28   S    
C34   C39   S    
C26   H8    S    
C4    C7    S    
C50   H36   S    
O4    V2    S    
O19   V4    S    
C43   H9    S    
C5    C29   A    
C6    C30   A    
C9    H37   S    
C44   C45   S    
C48   H27   S    
O6    C4    A    
C27   H3    S    
O1    V2    S    
C28   H4    S    
O2    V1    S    
C43   H10   S    
C7    C27   A    
O12   C40   A    
O15   V3    S    
C42   H12   S    
C5    C47   S    
C45   H19   S    
C33   C35   T    
C41   H15   S    
C18   C26   A    
O3    V1    S    
C51   H34   S    
C46   H18   S    
C23   C41   S    
C38   O17   A    
C18   C32   A    
O3    C1    A    
C47   H29   S    
O20   V4    S    
C49   H24   S    
C11   C13   A    
C44   H21   S    
C52   H30   S    
C3    C8    S    
C12   C14   A    
C19   C27   A    
C22   C24   A    
O7    V1    S    
C10   C32   A    
C1    O8    A    
C23   C25   A    
O17   V3    S    
C16   C18   A    
C8    C28   A    
C48   H26   S    
C14   C16   A    
C19   C21   A    
C17   C25   A    
C20   C22   A    
C6    C50   S    
O16   V4    S    
O11   V4    S    
C48   C49   S    
C43   H11   S    
C11   H5    S    
C9    C11   A    
C15   C17   A    
C17   C31   A    
O9    V2    S    
C50   C51   S    
O10   V1    S    
O8    V2    S    
C5    C21   A    
C6    C22   A    
O13   V3    S    
C13   H39   S    
