data_mof_unit_31693.cif
_audit_creation_date              2012-10-26T19:35:16-0400
_audit_creation_method            fapswitch 2.2
_symmetry_space_group_name_H-M    P1
_symmetry_Int_Tables_number       1
_space_group_crystal_system       triclinic
_cell_length_a                    10.784815
_cell_length_b                    10.820431
_cell_length_c                    9.550438
_cell_angle_alpha                 89.965805
_cell_angle_beta                  90.000077
_cell_angle_gamma                 89.973129
_cell_volume                      1114.50090155

loop_
_atom_site_label
_atom_site_type_symbol
_atom_type_description
_atom_site_fract_x
_atom_site_fract_y
_atom_site_fract_z
_atom_type_partial_charge
C1    C     C_R   0.497579 0.262343 0.499947 0.547439
C2    C     C_R   0.477086 0.935700 0.371846 -0.153408
C3    C     C_R   0.486461 0.870834 0.499044 0.033218
C4    C     C_R   0.262586 0.505753 0.500101 0.615087
C5    C     C_R   0.476729 0.936332 0.624428 0.114886
C6    C     C_3   0.553913 0.929958 0.754020 -0.277247
C7    C     C_3   0.553408 0.070289 0.754112 -0.261678
C8    C     C_R   0.561383 0.590022 0.073634 0.137728
C9    C     C_R   0.429370 0.418915 0.074647 0.024368
C10   C     C_R   0.429074 0.418959 0.925832 0.475931
C11   C     C_R   0.561343 0.590124 0.926360 0.108925
C12   C     C_R   0.064029 0.614206 0.564522 -0.025885
C13   C     C_3   0.696684 0.618196 0.921157 -0.281390
C14   C     C_3   0.696564 0.617860 0.079977 -0.262413
C15   C     C_R   0.498953 0.737728 0.499830 0.582762
C16   C     C_R   0.737388 0.502410 0.499856 0.527769
C17   C     C_R   0.124732 0.717409 0.625894 0.404359
C18   C     C_R   0.056552 0.813835 0.684974 0.443333
C19   C     C_R   0.927893 0.811465 0.682292 -0.158672
C20   C     C_R   0.866140 0.712498 0.620957 -0.209670
C21   C     C_R   0.932627 0.612177 0.563132 -0.038551
C22   C     C_R   0.128731 0.514813 0.500002 0.022972
C23   C     C_R   0.064764 0.420235 0.431793 -0.141802
C24   C     C_R   0.936891 0.418642 0.431514 -0.140648
C25   C     C_R   0.870935 0.511720 0.499301 0.025358
C26   C     C_R   0.476176 0.063500 0.624510 0.080306
C27   C     C_R   0.485092 0.129259 0.499169 0.002358
C28   C     C_R   0.476303 0.064485 0.371909 -0.160532
Cu1   Cu    Cu3+1 0.499990 0.499980 0.640670 1.076842
Cu2   Cu    Cu3+1 0.500010 0.500020 0.359330 0.953416
F1    F     F_    0.358421 0.335298 0.856857 -0.617322
F2    F     F_    0.249423 0.729218 0.626075 -0.608514
F3    F     F_    0.115991 0.911771 0.742820 -0.585366
H1    H     H_    0.114417 0.345512 0.380986 0.133141
H2    H     H_    0.766088 0.716542 0.617367 0.138844
H3    H     H_    0.888954 0.342967 0.380555 0.126434
H4    H     H_    0.475342 0.112568 0.272403 0.143690
H5    H     H_    0.476666 0.887758 0.272312 0.145472
H6    H     H_    0.502409 0.889070 0.843598 0.172855
H7    H     H_    0.752586 0.541811 0.875678 0.165754
H8    H     H_    0.647049 0.889823 0.734612 0.101643
H9    H     H_    0.501485 0.110370 0.843801 0.192435
H10   H     H_    0.646402 0.111384 0.734998 0.133267
H11   H     H_    0.374081 0.351757 0.130711 0.137991
H12   H     H_    0.715426 0.711054 0.876582 0.124107
H13   H     H_    0.752042 0.540889 0.124969 0.163572
H14   H     H_    0.715194 0.710291 0.126139 0.134219
H15   H     H_    0.875727 0.887515 0.726405 0.137369
N1    N     N_R   0.500790 0.500930 0.147930 -0.274262
N2    N     N_R   0.500790 0.500890 0.852020 -0.224478
O1    O     O_R   0.500000 0.319640 0.618810 -0.449619
O2    O     O_R   0.500010 0.319680 0.381230 -0.529378
O3    O     O_R   0.319640 0.499980 0.618820 -0.396218
O4    O     O_R   0.319650 0.500020 0.381230 -0.513081
O5    O     O_R   0.499990 0.680320 0.618770 -0.466402
O6    O     O_R   0.500000 0.680360 0.381190 -0.510469
O7    O     O_R   0.680350 0.499980 0.618770 -0.526587
O8    O     O_R   0.680360 0.500020 0.381180 -0.514263

loop_
_geom_bond_atom_site_label_1
_geom_bond_atom_site_label_2
_ccdc_geom_bond_type
C12   C17   A    
C2    C28   A    
C23   C24   A    
C6    C7    S    
C16   C25   S    
C7    H10   S    
C4    O3    A    
Cu1   Cu2   S    
Cu2   O4    S    
C9    C10   A    
C2    H5    S    
Cu1   O5    S    
C19   C20   A    
C16   O7    A    
C23   H1    S    
C15   O6    A    
Cu2   O8    S    
C2    C3    A    
C3    C5    A    
C3    C15   S    
C14   H13   S    
C11   N2    A    
C16   O8    A    
C13   C14   S    
C24   C25   A    
C13   H12   S    
C1    O1    A    
C26   C27   A    
C24   H3    S    
C7    C26   S    
Cu1   O3    S    
C28   H4    S    
C8    C11   A    
C12   C21   A    
C18   F3    S    
Cu2   N1    S    
Cu1   O7    S    
C17   C18   A    
C4    C22   S    
Cu1   N2    S    
C5    C6    S    
C1    O2    A    
C8    N1    A    
C5    C26   A    
C10   N2    A    
C12   C22   A    
C11   C13   S    
C9    N1    A    
C20   C21   A    
C18   C19   A    
Cu1   O1    S    
C7    H9    S    
C27   C28   A    
C1    C27   S    
C17   F2    S    
C21   C25   A    
C6    H6    S    
C13   H7    S    
C8    C14   S    
C19   H15   S    
C4    O4    A    
C22   C23   A    
C14   H14   S    
Cu2   O6    S    
C10   F1    S    
C20   H2    S    
Cu2   O2    S    
C9    H11   S    
C6    H8    S    
C15   O5    A    
