data_mof_unit_5115.cif
_audit_creation_date              2012-12-10T18:44:29-0500
_audit_creation_method            fapswitch 2.2
_symmetry_space_group_name_H-M    P1
_symmetry_Int_Tables_number       1
_space_group_crystal_system       triclinic
_cell_length_a                    12.877478
_cell_length_b                    10.649211
_cell_length_c                    9.839789
_cell_angle_alpha                 90.497077
_cell_angle_beta                  98.306888
_cell_angle_gamma                 90.565859
_cell_volume                      1335.0874522

loop_
_atom_site_label
_atom_site_type_symbol
_atom_type_description
_atom_site_fract_x
_atom_site_fract_y
_atom_site_fract_z
_atom_type_partial_charge
C1    C     C_R   0.501038 0.260192 0.499436 0.901152
C2    C     C_R   0.702208 0.500827 0.528394 0.930376
C3    C     C_R   0.815202 0.502458 0.548262 -0.150370
C4    C     C_R   0.184923 0.493673 0.452521 -0.150932
C5    C     C_R   0.017793 0.423257 0.330665 0.110090
C6    C     C_R   0.983327 0.564348 0.674097 0.113458
C7    C     C_R   0.127033 0.436292 0.336260 0.410247
C8    C     C_R   0.873875 0.554026 0.667437 0.406840
C9    C     C_R   0.136922 0.538912 0.560294 -0.350407
C10   C     C_R   0.863017 0.455859 0.440821 -0.352446
C11   C     C_R   0.030591 0.522734 0.560431 0.043723
C12   C     C_R   0.498838 0.739796 0.500541 0.901214
C13   C     C_R   0.970207 0.465709 0.443819 0.043415
C14   C     C_R   0.569524 0.062827 0.424632 0.208075
C15   C     C_R   0.430122 0.937121 0.575162 0.208925
C16   C     C_R   0.568339 0.933573 0.428210 -0.290226
C17   C     C_R   0.431392 0.066401 0.571709 -0.289691
C18   C     C_3   0.917440 0.451753 0.105693 -0.778544
C19   C     C_3   0.059341 0.750576 0.793684 -0.810209
C20   C     C_3   0.615481 0.129218 0.207155 -0.732446
C21   C     C_3   0.383186 0.870537 0.792119 -0.733632
C22   C     C_R   0.498874 0.872110 0.502169 -0.072690
C23   C     C_R   0.500889 0.127863 0.497773 -0.072484
C24   C     C_R   0.563542 0.580752 0.084936 -0.310646
C25   C     C_R   0.436576 0.419130 0.915080 -0.309861
C26   C     C_R   0.563887 0.581159 0.940162 0.523988
C27   C     C_R   0.436275 0.418676 0.059856 0.524693
C28   C     C_R   0.297824 0.498801 0.471677 0.930524
H1    H     H_    0.814491 0.414471 0.352690 0.199128
H2    H     H_    0.878629 0.397978 0.014866 0.254557
H3    H     H_    0.982400 0.508635 0.073706 0.258403
H4    H     H_    0.859054 0.515305 0.142011 0.245670
H5    H     H_    0.110830 0.566818 0.831754 0.235700
H6    H     H_    0.101267 0.782567 0.894797 0.244883
H7    H     H_    0.982417 0.798511 0.775160 0.260717
H8    H     H_    0.106747 0.777570 0.712550 0.241606
H9    H     H_    0.719243 0.097248 0.383495 0.214652
H10   H     H_    0.618937 0.033058 0.163296 0.219536
H11   H     H_    0.671509 0.190963 0.162500 0.227685
H12   H     H_    0.184579 0.586389 0.645231 0.199767
H13   H     H_    0.535227 0.166657 0.178416 0.279010
H14   H     H_    0.280113 0.902698 0.615212 0.214302
H15   H     H_    0.379740 0.966682 0.836012 0.219579
H16   H     H_    0.463289 0.832808 0.821380 0.278674
H17   H     H_    0.326765 0.808966 0.836262 0.230729
H18   H     H_    0.668704 0.714547 0.953756 0.307586
H19   H     H_    0.332137 0.284542 0.046366 0.307326
H20   H     H_    0.621901 0.881132 0.374280 0.155306
H21   H     H_    0.377807 0.118854 0.625585 0.155076
H22   H     H_    0.613951 0.644846 0.150975 0.153308
H23   H     H_    0.386259 0.354940 0.849050 0.153800
H24   H     H_    0.872393 0.622204 0.853397 0.354793
H25   H     H_    0.130816 0.346701 0.161526 0.354725
H26   H     H_    0.905212 0.297022 0.232486 0.225207
N1    N     N_R   0.499970 0.499970 0.857200 -0.095694
N2    N     N_R   0.500030 0.500030 0.142800 -0.095508
N3    N     N_2   0.957962 0.365563 0.212813 -0.336115
N4    N     N_2   0.044183 0.615798 0.794813 -0.332583
N5    N     N_2   0.643334 0.127151 0.354923 -0.310543
N6    N     N_2   0.355958 0.872759 0.644271 -0.310184
O1    O     O_R   0.499990 0.316750 0.614620 -0.643898
O2    O     O_3   0.179796 0.390596 0.233506 -0.723452
O3    O     O_3   0.627631 0.662346 0.880674 -0.703973
O4    O     O_3   0.372782 0.337218 0.119374 -0.703728
O5    O     O_R   0.500010 0.683250 0.385380 -0.643407
O6    O     O_R   0.499990 0.316780 0.385290 -0.553308
O7    O     O_R   0.500010 0.683220 0.614710 -0.553923
O8    O     O_R   0.346360 0.499970 0.595710 -0.646513
O9    O     O_R   0.653640 0.500030 0.404290 -0.646391
O10   O     O_R   0.346360 0.499990 0.366380 -0.524370
O11   O     O_R   0.653640 0.500010 0.633620 -0.524186
O12   O     O_3   0.821853 0.595968 0.772598 -0.726590
Zn1   Zn    Zn3+2 0.500000 0.499980 0.653120 1.014858
Zn2   Zn    Zn3+2 0.500000 0.500020 0.346880 1.015650

loop_
_geom_bond_atom_site_label_1
_geom_bond_atom_site_label_2
_ccdc_geom_bond_type
C14   C23   A    
O10   Zn2   S    
C6    C8    A    
C26   O3    S    
C25   H23   S    
C7    O2    S    
H5    N4    S    
H24   O12   S    
C25   C27   A    
C21   H16   S    
C11   C13   A    
H25   O2    S    
C6    N4    S    
C18   N3    S    
C5    C13   A    
C17   C23   A    
C5    N3    S    
H18   O3    S    
N1    Zn1   S    
H14   N6    S    
C26   N1    A    
C16   H20   S    
C2    C3    S    
C4    C9    A    
C5    C7    A    
O9    Zn2   S    
C3    C10   A    
C19   H7    S    
N2    Zn2   S    
C20   N5    S    
C14   N5    S    
C9    C11   A    
C10   H1    S    
H9    N5    S    
O6    Zn2   S    
C4    C7    A    
C20   H13   S    
O7    Zn1   S    
C4    C28   S    
C24   C26   A    
C1    C23   S    
C20   H10   S    
C21   H17   S    
C19   H8    S    
C9    H12   S    
C19   N4    S    
C24   H22   S    
C18   H2    S    
C12   O7    A    
C14   C16   A    
C8    O12   S    
C24   N2    A    
C27   O4    S    
C15   N6    S    
C2    O11   A    
C2    O9    A    
C12   C22   S    
C6    C11   A    
C18   H4    S    
C21   N6    S    
C15   C17   A    
C3    C8    A    
C12   O5    A    
C17   H21   S    
H19   O4    S    
O11   Zn1   S    
C20   H11   S    
C27   N2    A    
C16   C22   A    
C18   H3    S    
C19   H6    S    
O1    Zn1   S    
O8    Zn1   S    
C21   H15   S    
C10   C13   A    
C15   C22   A    
C28   O10   A    
O5    Zn2   S    
C25   N1    A    
C1    O1    A    
C28   O8    A    
H26   N3    S    
C1    O6    A    
