data_mof_unit_26072.cif
_audit_creation_date              2012-12-11T16:18:06-0500
_audit_creation_method            fapswitch 2.2
_symmetry_space_group_name_H-M    P1
_symmetry_Int_Tables_number       1
_space_group_crystal_system       triclinic
_cell_length_a                    14.012422
_cell_length_b                    14.056232
_cell_length_c                    30.116958
_cell_angle_alpha                 97.303655
_cell_angle_beta                  97.029467
_cell_angle_gamma                 61.294265
_cell_volume                      5147.80230434

loop_
_atom_site_label
_atom_site_type_symbol
_atom_type_description
_atom_site_fract_x
_atom_site_fract_y
_atom_site_fract_z
_atom_type_partial_charge
C1    C     C_R   0.385610 0.711757 0.442442 0.566437
C2    C     C_R   0.753069 0.284427 0.372501 -0.160280
C3    C     C_R   0.777796 0.264200 0.327946 -0.144380
C4    C     C_R   0.398952 0.381125 0.426437 0.556770
C5    C     C_R   0.816643 0.324896 0.310405 0.000817
C6    C     C_R   0.840586 0.399738 0.338317 0.276109
C7    C     C_R   0.817075 0.419729 0.383654 0.263574
C8    C     C_R   0.849927 0.394568 0.161772 -0.099510
C9    C     C_R   0.876866 0.385820 0.118048 -0.144136
C10   C     C_R   0.866474 0.216531 0.102986 0.232820
C11   C     C_R   0.839769 0.226193 0.147114 -0.064888
C12   C     C_R   0.403859 0.260880 0.221318 -0.106607
C13   C     C_R   0.835904 0.312603 0.176711 -0.012679
C14   C     C_1   0.827361 0.313166 0.223385 0.035559
C15   C     C_1   0.823180 0.316168 0.263020 0.066270
C16   C     C_R   0.710803 0.405093 0.442507 0.559507
C17   C     C_R   0.891544 0.293992 0.088782 0.018538
C18   C     C_R   0.363728 0.772767 0.402517 -0.044795
C19   C     C_R   0.439289 0.802357 0.389651 0.226691
C20   C     C_R   0.430755 0.830642 0.345587 0.097807
C21   C     C_R   0.344488 0.833986 0.315229 -0.008282
C22   C     C_R   0.261375 0.820333 0.330468 0.219028
C23   C     C_R   0.414542 0.265008 0.267937 0.080705
C24   C     C_R   0.271869 0.788924 0.373494 -0.124982
C25   C     C_R   0.261216 0.828083 0.152444 0.110715
C26   C     C_R   0.243408 0.849494 0.107048 0.217736
C27   C     C_R   0.400268 0.883013 0.114657 0.054037
C28   C     C_R   0.389516 0.711783 0.568254 0.558988
C29   C     C_R   0.414294 0.866860 0.160700 0.078069
C30   C     C_R   0.340473 0.845969 0.179994 -0.038455
C31   C     C_1   0.344829 0.843520 0.227999 0.081907
C32   C     C_1   0.345316 0.841488 0.267954 0.097426
C33   C     C_R   0.305391 0.889086 0.089181 -0.028171
C34   C     C_R   0.330677 0.347354 0.292837 0.009573
C35   C     C_R   0.362230 0.368464 0.593115 -0.007025
C36   C     C_R   0.412854 0.269262 0.613966 0.273354
C37   C     C_R   0.389399 0.268457 0.657997 0.300325
C38   C     C_R   0.315085 0.365579 0.680465 0.024553
C39   C     C_R   0.258025 0.460418 0.658432 -0.129462
C40   C     C_R   0.401669 0.383567 0.552512 0.578350
C41   C     C_R   0.280691 0.461844 0.615097 -0.147675
C42   C     C_R   0.241839 0.436078 0.844141 0.120073
C43   C     C_R   0.240386 0.410184 0.887842 0.079647
C44   C     C_R   0.367934 0.219547 0.867098 0.077842
C45   C     C_R   0.309908 0.337456 0.199045 -0.013610
C46   C     C_R   0.369465 0.247441 0.824900 -0.080259
C47   C     C_R   0.303755 0.352662 0.812711 0.008672
C48   C     C_1   0.299826 0.368629 0.766566 0.088482
C49   C     C_1   0.303224 0.370614 0.727211 0.101804
C50   C     C_R   0.298406 0.299827 0.898697 0.005764
C51   C     C_1   0.761702 0.376918 0.612530 0.072718
C52   C     C_R   0.712947 0.407944 0.568543 0.553073
C53   C     C_R   0.922614 0.293636 0.717108 0.094663
C54   C     C_R   0.943759 0.276660 0.763213 0.099564
C55   C     C_R   0.750212 0.338014 0.769888 0.127434
C56   C     C_1   0.299636 0.323494 0.151017 0.000169
C57   C     C_R   0.729403 0.354012 0.723832 0.251327
C58   C     C_R   0.815236 0.333162 0.697665 0.007996
C59   C     C_R   0.857093 0.300635 0.789590 -0.016164
C60   C     C_1   0.878860 0.290410 0.837315 0.035772
C61   C     C_1   0.790880 0.354965 0.650908 0.069317
C62   C     C_1   0.905786 0.281533 0.876772 0.054707
C63   C     C_1   0.374718 0.759753 0.613414 0.061071
C64   C     C_1   0.366435 0.364347 0.380665 0.051379
C65   C     C_R   0.258651 0.819010 0.717698 0.094374
C66   C     C_R   0.248946 0.835403 0.764018 -0.062644
C67   C     C_1   0.346678 0.355184 0.340887 0.023897
C68   C     C_R   0.420202 0.841185 0.775767 -0.066595
C69   C     C_R   0.430926 0.824757 0.729422 0.108193
C70   C     C_R   0.349731 0.813957 0.700103 0.052516
C71   C     C_R   0.329569 0.846132 0.793087 0.002726
C72   C     C_1   0.313698 0.871916 0.840235 0.002860
C73   C     C_1   0.363287 0.788876 0.652667 0.042076
C74   C     C_1   0.294052 0.901757 0.878887 0.048690
C75   C     C_R   0.949647 0.273474 0.047997 0.558373
C76   C     C_R   0.236012 0.426309 0.270793 0.113733
C77   C     C_R   0.275225 0.270272 0.065428 0.554889
C78   C     C_1   0.290113 0.304106 0.111222 0.039936
C79   C     C_R   0.262662 0.951153 0.048285 0.569874
C80   C     C_R   0.952086 0.269005 0.922113 0.552927
C81   C     C_R   0.276943 0.265405 0.939228 0.569730
C82   C     C_R   0.261752 0.950550 0.922894 0.556751
C83   C     C_R   0.224395 0.419746 0.223446 0.118652
C84   C     C_R   0.766418 0.366345 0.400235 -0.021320
Cl1   Cl    Cl    0.870582 0.104247 0.068004 -0.466813
Cl2   Cl    Cl    0.145385 0.822567 0.072933 -0.422817
Cl3   Cl    Cl    0.144378 0.837001 0.296115 -0.499852
Cl4   Cl    Cl    0.544856 0.804748 0.427917 -0.422035
Cl5   Cl    Cl    0.505876 0.146118 0.586201 -0.406554
Cl6   Cl    Cl    0.456602 0.147004 0.685805 -0.447055
Cl7   Cl    Cl    0.594912 0.401648 0.698786 -0.550201
Cl8   Cl    Cl    0.894390 0.472687 0.315804 -0.454903
Cl9   Cl    Cl    0.850566 0.512345 0.418394 -0.399596
Cr1   Cr    Cr6+3 0.581000 0.584320 0.508140 1.169486
Cr2   Cr    Cr6+3 0.339110 0.576430 0.496080 1.086049
Cr3   Cr    Cr6+3 0.579910 0.339270 0.495810 1.118817
Cr4   Cr    Cr6+3 0.082090 0.079210 0.982490 1.160420
Cr5   Cr    Cr6+3 0.082460 0.324610 0.994920 1.103504
Cr6   Cr    Cr6+3 0.323630 0.087860 0.996130 1.115892
H1    H     H_    0.826368 0.164011 0.158804 0.172607
H2    H     H_    0.893719 0.447576 0.108341 0.178803
H3    H     H_    0.845886 0.462353 0.184618 0.185267
H4    H     H_    0.716192 0.240729 0.384209 0.185083
H5    H     H_    0.761001 0.205203 0.306513 0.179795
H6    H     H_    0.210329 0.771432 0.383228 0.199373
H7    H     H_    0.199641 0.534918 0.675559 0.175944
H8    H     H_    0.238789 0.538964 0.600065 0.181436
H9    H     H_    0.419030 0.184640 0.800385 0.193568
H10   H     H_    0.468662 0.196577 0.202343 0.170344
H11   H     H_    0.177954 0.840659 0.777299 0.167771
H12   H     H_    0.482152 0.850773 0.798172 0.167847
I1    I     I_    0.114084 0.556551 0.309482 -0.066136
I2    I     I_    0.051330 0.261834 0.676398 -0.233213
I3    I     I_    0.106721 0.214903 0.793714 -0.315868
I4    I     I_    0.619944 0.371077 0.809838 -0.210634
I5    I     I_    0.133482 0.801461 0.676102 -0.278444
I6    I     I_    0.571583 0.816006 0.705714 -0.148129
I7    I     I_    0.560766 0.145556 0.298812 -0.274177
I8    I     I_    0.166645 0.769665 0.179273 -0.066140
I9    I     I_    0.545262 0.877219 0.201511 -0.186749
I10   I     I_    0.529350 0.886872 0.084069 -0.171141
I11   I     I_    0.077794 0.529786 0.188263 -0.180360
I12   I     I_    0.551032 0.864358 0.325226 -0.058732
I13   I     I_    0.155749 0.538767 0.937405 -0.149616
I14   I     I_    0.150563 0.598446 0.824061 -0.234145
I15   I     I_    0.469160 0.049904 0.875043 -0.247301
O1    O     O_R   0.688580 0.499770 0.460490 -0.426709
O2    O     O_R   0.346150 0.177650 0.050510 -0.483194
O3    O     O_R   0.314200 0.996600 0.036060 -0.487899
O4    O     O_R   0.480400 0.672610 0.462660 -0.436571
O5    O     O_R   0.168690 0.969990 0.933130 -0.485490
O6    O     O_R   0.991920 0.175870 0.937430 -0.486488
O7    O     O_R   0.974010 0.342590 0.941330 -0.485812
O8    O     O_R   0.182630 0.317940 0.955040 -0.475914
O9    O     O_R   0.347320 0.174720 0.953250 -0.470191
O10   O     O_R   0.315290 0.993890 0.945900 -0.479404
O11   O     O_3   0.162730 0.163890 0.991180 -0.295240
O12   O     O_R   0.348600 0.476260 0.536540 -0.511580
O13   O     O_R   0.315310 0.685650 0.451800 -0.512326
O14   O     O_R   0.346220 0.474990 0.446280 -0.488318
O15   O     O_R   0.492270 0.312460 0.441630 -0.486566
O16   O     O_R   0.669740 0.350480 0.455640 -0.515936
O17   O     O_R   0.691150 0.501150 0.557860 -0.484303
O18   O     O_R   0.482790 0.673890 0.552920 -0.476811
O19   O     O_R   0.317880 0.687030 0.549170 -0.496686
O20   O     O_R   0.494840 0.313840 0.539010 -0.432873
O21   O     O_R   0.672120 0.351750 0.545910 -0.481880
O22   O     O_3   0.500010 0.500010 0.500010 -0.295628
O23   O     O_R   0.167510 0.972920 0.030390 -0.422309
O24   O     O_R   0.990840 0.178580 0.027590 -0.438830
O25   O     O_R   0.972840 0.345510 0.038590 -0.515346
O26   O     O_R   0.181550 0.320660 0.045200 -0.484511

loop_
_geom_bond_atom_site_label_1
_geom_bond_atom_site_label_2
_ccdc_geom_bond_type
C36   Cl5   S    
C3    H5    S    
C39   H7    S    
C10   Cl1   S    
C8    C13   A    
C80   O6    A    
C55   C59   A    
C27   C29   A    
C2    C84   A    
C35   C36   A    
Cr2   O19   S    
C23   I7    S    
C27   I10   S    
C81   O8    A    
C39   C41   A    
C38   C49   S    
Cr5   O26   S    
C77   C78   S    
C27   C33   A    
Cr5   O7    S    
C44   I15   S    
Cr2   O14   S    
Cr1   O4    S    
C37   Cl6   S    
C18   C24   A    
Cr1   O17   S    
C62   C80   S    
C36   C37   A    
C30   C31   S    
C10   C17   A    
C65   C70   A    
C79   O3    A    
C16   C84   S    
C56   C78   T    
C77   O26   A    
C60   C62   T    
C18   C19   A    
C1    C18   S    
C20   I12   S    
C42   I14   S    
Cr3   O15   S    
C68   C69   A    
C79   O23   A    
C66   C71   A    
C45   C56   S    
C75   O25   A    
C8    C9    A    
C46   H9    S    
C47   C48   S    
Cr4   O24   S    
C28   O18   A    
C29   C30   A    
C41   H8    S    
C1    O13   A    
C26   Cl2   S    
C54   C59   A    
C58   C61   S    
C7    C84   A    
C59   C60   S    
C13   C14   S    
C82   O10   A    
C45   C83   A    
C74   C82   S    
Cr3   O22   S    
C25   I8    S    
C76   C83   A    
Cr4   O11   S    
C12   H10   S    
C29   I9    S    
C53   I2    S    
C81   O9    A    
Cr5   O25   S    
Cr1   O22   S    
C38   C39   A    
C7    Cl9   S    
C21   C32   S    
C52   O17   A    
Cr6   O3    S    
Cr5   O11   S    
C51   C52   S    
C64   C67   T    
Cr4   O5    S    
C72   C74   T    
C1    O4    A    
C4    O15   A    
C33   C79   S    
C63   C73   T    
C25   C26   A    
C53   C54   A    
C80   O7    A    
C40   O12   A    
C11   H1    S    
C68   H12   S    
C16   O16   A    
C37   C38   A    
C4    O14   A    
C26   C33   A    
C31   C32   T    
C12   C23   A    
C76   I1    S    
C23   C34   A    
C70   C73   S    
C28   O19   A    
Cr6   O9    S    
C22   Cl3   S    
C66   H11   S    
Cr6   O2    S    
C77   O2    A    
C9    C17   A    
C48   C49   T    
C19   Cl4   S    
C52   O21   A    
C55   C57   A    
C65   I5    S    
C22   C24   A    
C42   C43   A    
C44   C50   A    
C25   C30   A    
Cr3   O21   S    
Cr5   O8    S    
C46   C47   A    
Cr2   O12   S    
C57   Cl7   S    
Cr2   O22   S    
Cr4   O6    S    
C12   C45   A    
C3    C5    A    
C34   C67   S    
C53   C58   A    
C43   C50   A    
C6    C7    A    
Cr3   O20   S    
C4    C64   S    
Cr2   O13   S    
C40   O20   A    
Cr1   O18   S    
C19   C20   A    
C2    C3    A    
C71   C72   S    
C51   C61   T    
C11   C13   A    
C57   C58   A    
C5    C6    A    
C55   I4    S    
C2    H4    S    
C68   C71   A    
C6    Cl8   S    
C54   I3    S    
C69   I6    S    
Cr6   O10   S    
C35   C40   S    
C42   C47   A    
C83   I11   S    
Cr1   O1    S    
C69   C70   A    
C35   C41   A    
C16   O1    A    
C5    C15   S    
C10   C11   A    
Cr3   O16   S    
C28   C63   S    
C20   C21   A    
C9    H2    S    
C65   C66   A    
C17   C75   S    
Cr4   O23   S    
C14   C15   T    
Cr6   O11   S    
C24   H6    S    
C75   O24   A    
C82   O5    A    
C21   C22   A    
C8    H3    S    
C43   I13   S    
C44   C46   A    
C50   C81   S    
C34   C76   A    
