data_mof_unit_47916.cif
_audit_creation_date              2012-12-10T18:58:13-0500
_audit_creation_method            fapswitch 2.2
_symmetry_space_group_name_H-M    P1
_symmetry_Int_Tables_number       1
_space_group_crystal_system       triclinic
_cell_length_a                    11.077403
_cell_length_b                    10.852119
_cell_length_c                    9.579142
_cell_angle_alpha                 89.698055
_cell_angle_beta                  102.240471
_cell_angle_gamma                 90.656209
_cell_volume                      1125.28298644

loop_
_atom_site_label
_atom_site_type_symbol
_atom_type_description
_atom_site_fract_x
_atom_site_fract_y
_atom_site_fract_z
_atom_type_partial_charge
C1    C     C_R   0.498291 0.262743 0.499820 0.850571
C2    C     C_R   0.499522 0.129834 0.499158 -0.106329
C3    C     C_R   0.470480 0.065589 0.369278 -0.197649
C4    C     C_R   0.466926 0.937216 0.368616 0.631402
C5    C     C_R   0.498730 0.870981 0.498135 -0.114006
C6    C     C_R   0.538560 0.936562 0.625111 -0.069676
C7    C     C_3   0.505317 0.927076 0.768697 0.406178
C8    C     C_3   0.499047 0.068234 0.768672 -0.207159
C9    C     C_R   0.606389 0.521005 0.098809 0.057911
C10   C     C_R   0.400333 0.458590 0.049851 0.619367
C11   C     C_R   0.400237 0.458833 0.901747 0.599724
C12   C     C_R   0.263149 0.505508 0.443125 0.877319
C13   C     C_R   0.607749 0.516323 0.952758 0.141211
C14   C     C_3   0.701594 0.618377 0.964778 -0.418795
C15   C     C_3   0.695317 0.627733 0.122875 0.441837
C16   C     C_R   0.497510 0.737486 0.499114 0.888630
C17   C     C_R   0.736007 0.502852 0.557219 0.737999
C18   C     C_2   0.128075 0.504788 0.417694 -0.215412
C19   C     C_2   0.069969 0.527879 0.526008 0.026146
C20   C     C_2   0.865591 0.534736 0.584985 0.410257
C21   C     C_2   0.945840 0.473304 0.523224 -0.151030
C22   C     C_R   0.534700 0.063121 0.625722 -0.072267
Cu1   Cu    Cu3+1 0.499990 0.499980 0.640670 1.085791
Cu2   Cu    Cu3+1 0.500010 0.500020 0.359330 1.088299
H1    H     H_    0.665999 0.698564 0.896846 0.106143
H2    H     H_    0.077800 0.465260 0.317965 0.212759
H3    H     H_    0.443798 0.114242 0.268571 0.208733
H4    H     H_    0.580562 0.888020 0.851712 0.040779
N1    N     N_R   0.500780 0.500930 0.148120 -0.309417
N2    N     N_R   0.500790 0.500890 0.852210 -0.271101
O1    O     O_R   0.500000 0.319640 0.618810 -0.546297
O2    O     O_R   0.500010 0.319680 0.381230 -0.574112
O3    O     O_R   0.320680 0.500000 0.575130 -0.517796
O4    O     O_R   0.320690 0.500040 0.337550 -0.511768
O5    O     O_R   0.499990 0.680320 0.618770 -0.557631
O6    O     O_R   0.500000 0.680360 0.381190 -0.546549
O7    O     O_R   0.679310 0.499960 0.662450 -0.564625
O8    O     O_R   0.679320 0.500000 0.424870 -0.565235
C23   C     C_2   0.913198 0.348065 0.460114 0.437268
H5    H     H_    0.819457 0.312269 0.443335 0.063093
O9    O     O_2   0.992144 0.280923 0.431331 -0.468232
C24   C     C_2   0.599884 0.127116 0.880367 0.319911
H6    H     H_    0.695470 0.101600 0.887151 0.119432
O10   O     O_2   0.576154 0.203066 0.964015 -0.541867
F1    F     F_    0.299790 0.412775 0.092365 -0.600579
F2    F     F_    0.300433 0.411483 0.810795 -0.631348
C25   C     C_2   0.826766 0.577836 0.944810 0.658435
H7    H     H_    0.898560 0.646704 0.945125 0.097680
O11   O     O_2   0.849740 0.469221 0.931319 -0.502409
F3    F     F_    0.804482 0.598207 0.217463 -0.613779
C26   C     C_2   0.641354 0.747079 0.157348 0.427195
H8    H     H_    0.554265 0.777968 0.092884 0.088965
O12   O     O_2   0.695945 0.810927 0.255740 -0.460356
C27   C     C_2   0.128910 0.604980 0.651502 0.642933
H9    H     H_    0.111950 0.583836 0.756616 0.115488
O13   O     O_2   0.192232 0.695070 0.636868 -0.467763
F4    F     F_    0.895236 0.645173 0.650672 -0.679963
F5    F     F_    0.423760 0.879190 0.242564 -0.651750
F6    F     F_    0.392308 0.868318 0.761186 -0.598623
C28   C     C_2   0.370332 0.115034 0.768927 0.709539
H10   H     H_    0.338245 0.115245 0.868399 0.102405
O14   O     O_2   0.300987 0.150288 0.659806 -0.479876

loop_
_geom_bond_atom_site_label_1
_geom_bond_atom_site_label_2
_ccdc_geom_bond_type
C2    C22   A    
C8    C22   S    
Cu1   Cu2   S    
Cu2   O2    S    
C14   C25   S    
C15   C26   S    
Cu2   O8    S    
C25   H7    S    
C18   H2    S    
C9    N1    A    
Cu2   O4    S    
C11   F2    S    
C10   F1    S    
C3    H3    S    
C2    C3    A    
C9    C15   S    
C7    C8    S    
C25   O11   D    
C17   O7    A    
C13   C14   S    
C8    C28   S    
Cu2   N1    S    
C10   N1    A    
Cu2   O6    S    
C24   O10   D    
C19   C27   S    
C7    F6    S    
C16   O5    A    
C19   C21   S    
C8    C24   S    
C1    C2    S    
C6    C7    S    
Cu1   O5    S    
C17   O8    A    
C14   H1    S    
C5    C6    A    
C27   O13   D    
C10   C11   A    
C26   O12   D    
C12   O4    A    
C3    C4    A    
C6    C22   A    
Cu1   N2    S    
C13   N2    A    
C1    O1    A    
C17   C20   S    
C26   H8    S    
C20   C21   D    
C23   O9    D    
C28   O14   D    
C18   C19   D    
C24   H6    S    
C15   F3    S    
C12   C18   S    
C23   H5    S    
C20   F4    S    
C9    C13   A    
C27   H9    S    
C28   H10   S    
C5    C16   S    
C4    F5    S    
C12   O3    A    
Cu1   O7    S    
C1    O2    A    
C16   O6    A    
C7    H4    S    
C14   C15   S    
C11   N2    A    
Cu1   O1    S    
C4    C5    A    
Cu1   O3    S    
C21   C23   S    
