data_mof_unit_68461.cif
_audit_creation_date              2012-10-26T18:34:23-0400
_audit_creation_method            fapswitch 2.2
_symmetry_space_group_name_H-M    P1
_symmetry_Int_Tables_number       1
_space_group_crystal_system       triclinic
_cell_length_a                    10.749635
_cell_length_b                    9.749204
_cell_length_c                    9.028771
_cell_angle_alpha                 88.991829
_cell_angle_beta                  94.540652
_cell_angle_gamma                 92.382056
_cell_volume                      942.336617372

loop_
_atom_site_label
_atom_site_type_symbol
_atom_type_description
_atom_site_fract_x
_atom_site_fract_y
_atom_site_fract_z
_atom_type_partial_charge
C1    C     C_R   0.263050 0.497602 0.497171 0.574900
C2    C     C_R   0.056866 0.540314 0.368425 -0.007956
C3    C     C_R   0.871676 0.506381 0.503765 -0.028161
C4    C     C_R   0.128263 0.492181 0.495310 -0.031689
C5    C     C_R   0.413818 0.071633 0.409332 0.107378
C6    C     C_R   0.592683 0.931303 0.578244 0.115967
C7    C     C_R   0.579892 0.075397 0.596156 0.112768
C8    C     C_R   0.418159 0.923827 0.403695 0.113613
C9    C     C_2   0.152527 0.395557 0.754051 0.229176
C10   C     C_2   0.847045 0.591881 0.239137 0.180836
C11   C     C_2   0.883869 0.414737 0.769239 0.228962
C12   C     C_R   0.736941 0.502211 0.502194 0.588403
C13   C     C_2   0.117026 0.581447 0.230550 0.237660
C14   C     C_3   0.303092 0.139434 0.325196 -0.214492
C15   C     C_3   0.183269 0.115811 0.407475 -0.301649
C16   C     C_3   0.067979 0.160965 0.312425 -0.430769
C17   C     C_3   0.727142 0.886545 0.597448 -0.218132
C18   C     C_3   0.761971 0.815235 0.747351 -0.258419
C19   C     C_3   0.902979 0.800208 0.772500 -0.430634
C20   C     C_3   0.649660 0.142479 0.731545 -0.217562
C21   C     C_3   0.578911 0.115584 0.871223 -0.311715
C22   C     C_3   0.653162 0.172496 0.009608 -0.436684
C23   C     C_R   0.499995 0.500711 0.221381 0.587725
C24   C     C_3   0.344240 0.852082 0.273524 -0.216882
C25   C     C_3   0.407616 0.876436 0.127295 -0.310432
C26   C     C_3   0.327117 0.817540 0.994602 -0.444280
C27   C     C_R   0.500409 0.499328 0.778653 0.575040
C28   C     C_1   0.500313 0.501029 0.065807 -0.027882
C29   C     C_1   0.500397 0.499138 0.934267 -0.038794
C30   C     C_R   0.072350 0.444672 0.623453 -0.060213
C31   C     C_R   0.927102 0.547897 0.372852 -0.059823
C32   C     C_R   0.942785 0.453527 0.629239 -0.018492
Cu1   Cu    Cu3+1 0.500000 0.640660 0.500000 0.908676
Cu2   Cu    Cu3+1 0.500000 0.359340 0.500000 0.937480
H1    H     H_    0.232481 0.458418 0.796856 0.119504
H2    H     H_    0.320205 0.248204 0.301915 0.232666
H3    H     H_    0.286033 0.101494 0.210598 0.119789
H4    H     H_    0.938582 0.745882 0.678544 0.159918
H5    H     H_    0.951306 0.902952 0.782860 0.143936
H6    H     H_    0.925030 0.740772 0.876624 0.199146
H7    H     H_    0.731518 0.875038 0.840235 0.139899
H8    H     H_    0.714939 0.712938 0.752454 0.255028
H9    H     H_    0.752043 0.831568 0.499530 0.162804
H10   H     H_    0.792479 0.976671 0.585582 0.095097
H11   H     H_    0.741316 0.117460 0.031529 0.147658
H12   H     H_    0.767956 0.655169 0.250755 0.122723
H13   H     H_    0.676084 0.283643 0.994828 0.212919
H14   H     H_    0.597434 0.158494 0.107517 0.154091
H15   H     H_    0.486318 0.162599 0.858327 0.203205
H16   H     H_    0.561964 0.003508 0.887703 0.144443
H17   H     H_    0.745233 0.105994 0.754739 0.103661
H18   H     H_    0.667872 0.251867 0.714752 0.234006
H19   H     H_    0.309239 0.705570 0.010125 0.188072
H20   H     H_    0.236492 0.868883 0.981023 0.154141
H21   H     H_    0.376049 0.834673 0.891665 0.158710
H22   H     H_    0.425409 0.987382 0.105949 0.146116
H23   H     H_    0.920996 0.334859 0.842575 0.176531
H24   H     H_    0.500088 0.829251 0.134396 0.185426
H25   H     H_    0.330118 0.742790 0.290840 0.235877
H26   H     H_    0.246554 0.884449 0.260025 0.092875
H27   H     H_    0.084564 0.668934 0.164631 0.121429
H28   H     H_    0.081004 0.268879 0.274283 0.216047
H29   H     H_    0.050569 0.094324 0.213792 0.152048
H30   H     H_    0.985102 0.152595 0.378588 0.145612
H31   H     H_    0.168610 0.005779 0.437637 0.142916
H32   H     H_    0.191230 0.172159 0.513533 0.220494
N1    N     N_R   0.500000 0.852070 0.500000 -0.240766
N2    N     N_R   0.500000 0.147930 0.500000 -0.243791
O1    O     O_R   0.319640 0.618740 0.499990 -0.522419
O2    O     O_2   0.865949 0.553548 0.115261 -0.500800
O3    O     O_2   0.794007 0.474037 0.806621 -0.531316
O4    O     O_2   0.200389 0.515115 0.186775 -0.549773
O5    O     O_R   0.680360 0.381260 0.500010 -0.503765
O6    O     O_R   0.680360 0.618740 0.500010 -0.531656
O7    O     O_R   0.319640 0.381260 0.499990 -0.507964
O8    O     O_R   0.500000 0.618760 0.288390 -0.522735
O9    O     O_R   0.500000 0.381240 0.711610 -0.504395
O10   O     O_R   0.500000 0.618760 0.711610 -0.506374
O11   O     O_R   0.500000 0.381240 0.288390 -0.511571
O12   O     O_2   0.133763 0.282141 0.809255 -0.543389

loop_
_geom_bond_atom_site_label_1
_geom_bond_atom_site_label_2
_ccdc_geom_bond_type
C22   H14   S    
C12   O6    A    
C27   C29   S    
C25   H22   S    
C23   O8    A    
C27   O10   A    
C26   H21   S    
C21   H15   S    
C21   C22   S    
C28   C29   T    
C20   H17   S    
C18   H8    S    
Cu2   O9    S    
C14   H2    S    
C11   O3    D    
Cu1   O10   S    
C15   C16   S    
C15   H31   S    
C18   C19   S    
C2    C13   S    
C3    C12   S    
C7    N2    A    
C10   C31   S    
C10   H12   S    
C16   H29   S    
Cu1   O1    S    
Cu2   O7    S    
C22   H13   S    
C12   O5    A    
C16   H28   S    
C5    N2    A    
C26   H20   S    
C21   H16   S    
C17   C18   S    
C1    O7    A    
C24   C25   S    
C18   H7    S    
Cu2   N2    S    
C25   C26   S    
C15   H32   S    
C1    O1    A    
C2    C31   A    
C9    O12   D    
C2    C4    A    
C17   H9    S    
C19   H4    S    
Cu2   O11   S    
Cu1   O8    S    
C24   H26   S    
Cu1   Cu2   S    
C23   C28   S    
C3    C31   A    
C5    C14   S    
C19   H5    S    
C9    C30   S    
C10   O2    D    
C6    N1    A    
C11   C32   S    
C25   H24   S    
C26   H19   S    
Cu1   N1    S    
C6    C17   S    
C27   O9    A    
C5    C8    A    
C6    C7    A    
C13   O4    D    
C1    C4    S    
C17   H10   S    
C20   H18   S    
C14   H3    S    
C30   C32   A    
C24   H25   S    
C8    C24   S    
C3    C32   A    
C19   H6    S    
Cu2   O5    S    
Cu1   O6    S    
C22   H11   S    
C13   H27   S    
C20   C21   S    
C8    N1    A    
C7    C20   S    
C9    H1    S    
C14   C15   S    
C16   H30   S    
C23   O11   A    
C11   H23   S    
C4    C30   A    
