data_mof_unit_58201.cif
_audit_creation_date              2012-12-10T20:35:47-0500
_audit_creation_method            fapswitch 2.2
_symmetry_space_group_name_H-M    P1
_symmetry_Int_Tables_number       1
_space_group_crystal_system       triclinic
_cell_length_a                    15.759246
_cell_length_b                    10.736512
_cell_length_c                    9.899588
_cell_angle_alpha                 88.631046
_cell_angle_beta                  89.596269
_cell_angle_gamma                 91.464121
_cell_volume                      1673.92978985

loop_
_atom_site_label
_atom_site_type_symbol
_atom_type_description
_atom_site_fract_x
_atom_site_fract_y
_atom_site_fract_z
_atom_type_partial_charge
C1    C     C_R   0.504684 0.260723 0.501232 0.896906
C2    C     C_3   0.943923 0.377276 0.595325 0.663224
C3    C     C_3   0.916136 0.491505 0.500302 -0.229040
C4    C     C_3   0.951890 0.613240 0.570179 0.290067
C5    C     C_3   0.050096 0.619252 0.560638 0.009723
C6    C     C_1   0.824980 0.496614 0.497923 0.141879
C7    C     C_1   0.173997 0.494608 0.503305 0.140512
C8    C     C_1   0.249341 0.496833 0.502100 -0.177897
C9    C     C_R   0.469205 0.060366 0.605848 -0.138118
C10   C     C_R   0.509564 0.128796 0.501730 -0.247603
C11   C     C_R   0.539440 0.068042 0.385664 0.333207
C12   C     C_R   0.338318 0.499362 0.500582 0.867075
C13   C     C_R   0.526322 0.939994 0.376446 0.456649
C14   C     C_R   0.497524 0.871754 0.492186 -0.299477
C15   C     C_R   0.465251 0.933213 0.602132 -0.102746
C16   C     C_3   0.478384 0.914375 0.751227 0.205531
C17   C     C_3   0.482009 0.056991 0.756732 0.362579
C18   C     C_R   0.426358 0.477002 0.072093 -0.065652
C19   C     C_R   0.570078 0.539987 0.071052 0.523347
C20   C     C_R   0.568998 0.543217 0.926452 0.347744
C21   C     C_R   0.427817 0.472108 0.930225 0.013386
C22   C     C_3   0.378208 0.352878 0.928976 0.308312
C23   C     C_R   0.500276 0.739747 0.498036 0.931370
C24   C     C_3   0.368430 0.363821 0.081969 0.781319
C25   C     C_R   0.661475 0.501235 0.499354 0.852071
C26   C     C_3   0.045390 0.371735 0.585835 0.782719
C27   C     C_3   0.050784 0.492742 0.351598 0.247893
C28   C     C_3   0.952019 0.471082 0.349231 0.741546
C29   C     C_1   0.749971 0.499980 0.497874 -0.149249
C30   C     C_3   0.082221 0.493157 0.503086 -0.217404
H1    H     H_    0.536982 0.864155 0.776387 0.128971
H2    H     H_    0.425912 0.092318 0.809791 0.064216
H3    H     H_    0.420066 0.276360 0.898819 0.065466
H4    H     H_    0.065593 0.585158 0.305026 0.195602
H5    H     H_    0.074556 0.638081 0.662439 0.103183
H6    H     H_    0.935125 0.604050 0.679577 0.137061
N1    N     N_R   0.499430 0.499140 0.142800 -0.163398
N2    N     N_R   0.499430 0.499180 0.857150 -0.172724
O1    O     O_R   0.500010 0.316790 0.614690 -0.596179
O2    O     O_R   0.500000 0.316760 0.385350 -0.552290
O3    O     O_R   0.377150 0.500020 0.614720 -0.571455
O4    O     O_R   0.377140 0.499990 0.385380 -0.621417
O5    O     O_R   0.500000 0.683240 0.614650 -0.630054
O6    O     O_R   0.499990 0.683210 0.385310 -0.575480
O7    O     O_R   0.622860 0.500010 0.614620 -0.591411
O8    O     O_R   0.622850 0.499980 0.385280 -0.557990
Zn1   Zn    Zn3+2 0.500010 0.500020 0.653130 1.008087
Zn2   Zn    Zn3+2 0.499990 0.499980 0.346870 1.041525
O9    O     O_3   0.907333 0.262730 0.546995 -0.572333
C31   C     C_3   0.833181 0.217344 0.615331 -0.290647
H7    H     H_    0.789971 0.291787 0.645737 0.204856
H8    H     H_    0.850846 0.160166 0.705234 0.153291
H9    H     H_    0.797295 0.155574 0.546596 0.169301
O10   O     O_3   0.083797 0.348545 0.715776 -0.667311
C32   C     C_3   0.095677 0.448125 0.804271 -0.292569
H10   H     H_    0.038222 0.503237 0.818767 0.171131
H11   H     H_    0.152443 0.505734 0.774575 0.198866
H12   H     H_    0.110167 0.407768 0.905427 0.266596
O11   O     O_3   0.917881 0.396304 0.730473 -0.826623
H13   H     H_    0.935429 0.323621 0.786465 0.366468
O12   O     O_3   0.915063 0.723695 0.518229 -0.576496
C33   C     C_3   0.912004 0.816834 0.616557 -0.263363
H14   H     H_    0.975251 0.834963 0.662340 0.172939
H15   H     H_    0.864367 0.790775 0.696359 0.148507
H16   H     H_    0.891844 0.904902 0.567015 0.187241
O13   O     O_3   0.585185 0.128890 0.283282 -0.695500
H17   H     H_    0.619448 0.197103 0.323401 0.337493
O14   O     O_3   0.553554 0.880438 0.262068 -0.594449
C34   C     C_3   0.491596 0.894381 0.160750 -0.184990
H18   H     H_    0.426115 0.872725 0.199389 0.130729
H19   H     H_    0.503545 0.827617 0.079659 0.171213
H20   H     H_    0.495804 0.989501 0.114157 0.217213
O15   O     O_3   0.406748 0.859981 0.817716 -0.773721
H21   H     H_    0.354761 0.898913 0.781693 0.327883
O16   O     O_3   0.557807 0.118440 0.801378 -0.568358
C35   C     C_3   0.633957 0.060087 0.766178 -0.288423
H22   H     H_    0.634068 0.024653 0.661711 0.133371
H23   H     H_    0.647731 0.984488 0.840687 0.156791
H24   H     H_    0.686589 0.130058 0.772180 0.191807
O17   O     O_3   0.644427 0.564383 0.140591 -0.560084
C36   C     C_3   0.678799 0.684910 0.110930 -0.119188
H25   H     H_    0.635145 0.748459 0.057013 0.128515
H26   H     H_    0.737647 0.676924 0.049834 0.187118
H27   H     H_    0.696577 0.728986 0.207274 0.178648
O18   O     O_3   0.065903 0.268603 0.503674 -0.604079
C37   C     C_3   0.068736 0.151875 0.573648 -0.083663
H28   H     H_    0.054788 0.077001 0.501143 0.173366
H29   H     H_    0.021607 0.141493 0.657567 0.167779
H30   H     H_    0.133468 0.137491 0.613369 0.132079
O19   O     O_3   0.639174 0.589815 0.858004 -0.746482
H31   H     H_    0.617579 0.646727 0.786841 0.346664
O20   O     O_3   0.301289 0.366920 0.858289 -0.548020
C38   C     C_3   0.287835 0.264182 0.774421 -0.269134
H32   H     H_    0.341498 0.253706 0.702473 0.150796
H33   H     H_    0.231404 0.280614 0.712041 0.235673
H34   H     H_    0.276307 0.177180 0.835713 0.136132
O21   O     O_3   0.285911 0.395371 0.122108 -0.719392
H35   H     H_    0.284757 0.394026 0.222109 0.364711
O22   O     O_3   0.403500 0.265210 0.159281 -0.606822
C39   C     C_3   0.352160 0.155907 0.151328 -0.301634
H36   H     H_    0.359054 0.113196 0.050917 0.141895
H37   H     H_    0.284139 0.172002 0.173640 0.196739
H38   H     H_    0.373644 0.088083 0.229080 0.178268
O23   O     O_3   0.097062 0.414085 0.266851 -0.710237
H39   H     H_    0.079300 0.325952 0.280335 0.422192
O24   O     O_3   0.936487 0.345653 0.316573 -0.696178
H40   H     H_    0.874544 0.333869 0.301395 0.373972
O25   O     O_3   0.913597 0.539326 0.240166 -0.604923
C40   C     C_3   0.908428 0.669270 0.249828 -0.224510
H41   H     H_    0.965945 0.715133 0.290391 0.223996
H42   H     H_    0.849693 0.692806 0.304783 0.210360
H43   H     H_    0.901339 0.708672 0.146067 0.159727
O26   O     O_3   0.077473 0.722725 0.479623 -0.743695
H44   H     H_    0.138068 0.740330 0.500602 0.336905

loop_
_geom_bond_atom_site_label_1
_geom_bond_atom_site_label_2
_ccdc_geom_bond_type
C32   H10   S    
C4    H6    S    
C38   H32   S    
C24   O22   S    
O15   H21   S    
C19   C20   A    
C35   H24   S    
C3    C6    S    
O21   H35   S    
C7    C8    T    
O18   C37   S    
C16   H1    S    
C12   O3    A    
C18   C24   S    
C3    C28   S    
C18   N1    A    
C35   H23   S    
O26   H44   S    
C40   H42   S    
O17   C36   S    
C37   H29   S    
O24   H40   S    
C15   C16   S    
C18   C21   A    
C27   O23   S    
C23   O5    A    
O25   C40   S    
C34   H19   S    
O20   C38   S    
C12   O4    A    
C19   N1    A    
C1    O2    A    
C21   N2    A    
C28   O24   S    
C16   C17   S    
C31   H8    S    
C19   O17   S    
C9    C10   A    
C33   H15   S    
C11   O13   S    
O13   H17   S    
O11   H13   S    
C38   H33   S    
C7    C30   S    
C21   C22   S    
C27   C30   S    
C34   H18   S    
C26   O10   S    
O23   H39   S    
C36   H26   S    
C36   H25   S    
O7    Zn1   S    
C27   H4    S    
C25   C29   S    
O8    Zn2   S    
C31   H9    S    
C24   O21   S    
C35   H22   S    
C40   H43   S    
C37   H28   S    
O14   C34   S    
C20   O19   S    
C4    O12   S    
C39   H38   S    
C23   O6    A    
C16   O15   S    
C14   C23   S    
C34   H20   S    
O16   C35   S    
C33   H14   S    
C2    O9    S    
C20   N2    A    
O22   C39   S    
C8    C12   S    
C39   H37   S    
C31   H7    S    
O3    Zn1   S    
C2    C26   S    
O4    Zn2   S    
N1    Zn2   S    
N2    Zn1   S    
C9    C17   S    
C26   C30   S    
C38   H34   S    
C32   H11   S    
C22   C24   S    
C3    C4    S    
C25   O7    A    
C36   H27   S    
O1    Zn1   S    
C5    C30   S    
O2    Zn2   S    
C22   H3    S    
O10   C32   S    
C33   H16   S    
C5    O26   S    
C2    O11   S    
C1    C10   S    
C4    C5    S    
C37   H30   S    
C2    C3    S    
C9    C15   A    
C40   H41   S    
C11   C13   A    
O19   H31   S    
C28   O25   S    
C26   O18   S    
C5    H5    S    
C39   H36   S    
O12   C33   S    
C10   C11   A    
C1    O1    A    
C6    C29   T    
O9    C31   S    
C32   H12   S    
C27   C28   S    
C17   O16   S    
C17   H2    S    
C22   O20   S    
C14   C15   A    
C13   C14   A    
O5    Zn1   S    
C25   O8    A    
O6    Zn2   S    
C13   O14   S    
