data_mof_unit_60236.cif
_audit_creation_date              2012-12-10T18:08:42-0500
_audit_creation_method            fapswitch 2.2
_symmetry_space_group_name_H-M    P1
_symmetry_Int_Tables_number       1
_space_group_crystal_system       triclinic
_cell_length_a                    36.935612
_cell_length_b                    18.376231
_cell_length_c                    18.378378
_cell_angle_alpha                 89.999795
_cell_angle_beta                  119.76034
_cell_angle_gamma                 89.998965
_cell_volume                      10828.8740916

loop_
_atom_site_label
_atom_site_type_symbol
_atom_type_description
_atom_site_fract_x
_atom_site_fract_y
_atom_site_fract_z
_atom_type_partial_charge
C1    C     C_R   0.499990 0.000000 0.360130 0.835156
C2    C     C_R   0.500010 1.000000 0.639870 0.836004
C3    C     C_R   0.999990 0.500000 0.360130 0.835726
C4    C     C_R   0.000010 0.500000 0.639870 0.835558
C5    C     C_1   0.837614 0.999333 0.839199 0.198375
C6    C     C_1   0.162385 0.000427 0.160772 0.151182
C7    C     C_1   0.337615 0.500503 0.839219 0.151169
C8    C     C_1   0.662386 0.500640 0.160804 0.150307
C9    C     C_1   0.662449 0.999781 0.663602 0.024670
C10   C     C_1   0.337552 0.000160 0.336397 0.017706
C11   C     C_1   0.162448 0.500185 0.663597 0.017659
C12   C     C_1   0.837551 0.500238 0.336429 0.015644
C13   C     C_1   0.624810 0.999950 0.625266 -0.132646
C14   C     C_1   0.375190 0.000032 0.374741 -0.135356
C15   C     C_1   0.124810 0.500034 0.625257 -0.135776
C16   C     C_1   0.875190 0.500052 0.374759 -0.138306
C17   C     C_1   0.499950 0.000000 0.282628 -0.145427
C18   C     C_1   0.500049 1.000000 0.717372 -0.144233
C19   C     C_1   0.999950 0.500000 0.282628 -0.147490
C20   C     C_1   0.000050 0.500000 0.717372 -0.147328
C21   C     C_1   0.499935 0.000000 0.217370 -0.141286
C22   C     C_1   0.500065 1.000000 0.782630 -0.140204
C23   C     C_1   0.999935 0.500000 0.217370 -0.143973
C24   C     C_1   0.000065 0.500000 0.782630 -0.143800
C25   C     C_R   0.000001 0.139689 0.000001 0.844494
C26   C     C_R   0.999997 0.860311 0.999997 0.844126
C27   C     C_R   0.500000 0.639689 0.000000 0.847132
C28   C     C_R   0.500000 0.360311 1.000000 0.843263
C29   C     C_R   0.920008 0.999981 0.920048 0.805956
C30   C     C_R   0.079992 0.999999 0.079949 0.812202
C31   C     C_R   0.420008 0.500003 0.920051 0.811801
C32   C     C_R   0.579993 0.500022 0.079950 0.812024
C33   C     C_R   0.500000 0.859958 0.000000 0.833223
C34   C     C_R   0.500000 0.140042 1.000000 0.831400
C35   C     C_R   0.000000 0.359958 0.000000 0.833232
C36   C     C_R   1.000000 0.640042 0.000000 0.832766
C37   C     C_R   0.499976 0.000000 0.139947 0.833350
C38   C     C_R   0.500024 0.000000 0.860053 0.833620
C39   C     C_R   0.999976 0.500000 0.139947 0.833964
C40   C     C_R   0.000024 0.500000 0.860053 0.834398
C41   C     C_1   0.000001 0.217187 0.000001 -0.121713
C42   C     C_1   0.999997 0.782813 0.999998 -0.125992
C43   C     C_1   0.500001 0.717187 0.000001 -0.115302
C44   C     C_1   0.499999 0.282812 0.999999 -0.125595
C45   C     C_R   0.580009 0.999996 0.579995 0.811793
C46   C     C_R   0.419991 0.000002 0.420010 0.811464
C47   C     C_R   0.080009 0.500001 0.579990 0.812558
C48   C     C_R   0.919991 0.500004 0.420013 0.811198
C49   C     C_1   0.500001 0.782455 0.000001 -0.123648
C50   C     C_1   0.499999 0.217545 0.999999 -0.135677
C51   C     C_1   0.000001 0.282455 0.000001 -0.131813
C52   C     C_1   0.999998 0.717545 0.999999 -0.135617
C53   C     C_3   0.725591 0.074827 0.703261 -0.411769
C54   C     C_3   0.274433 0.924787 0.296010 -0.423837
C55   C     C_3   0.274472 0.062788 0.321287 -0.395650
C56   C     C_3   0.725477 0.936686 0.679120 -0.419418
C57   C     C_3   0.225523 0.561452 0.676960 -0.395734
C58   C     C_3   0.774417 0.423867 0.292212 -0.425768
C59   C     C_3   0.774484 0.560431 0.324421 -0.396414
C60   C     C_3   0.225574 0.424217 0.706123 -0.424118
C61   C     C_3   0.773811 0.940582 0.721088 0.199716
C62   C     C_3   0.226141 0.058722 0.279279 0.151030
C63   C     C_3   0.226161 0.926771 0.255640 0.211274
C64   C     C_3   0.773870 0.072751 0.743805 0.215405
C65   C     C_3   0.273845 0.425992 0.746436 0.211427
C66   C     C_3   0.726151 0.556099 0.282186 0.149698
C67   C     C_3   0.726147 0.425491 0.251942 0.212590
C68   C     C_3   0.273855 0.557226 0.719091 0.151057
C69   C     C_1   0.875251 0.999706 0.875649 0.014949
C70   C     C_1   0.124750 0.000168 0.124329 -0.014499
C71   C     C_1   0.375250 0.500204 0.875670 -0.014291
C72   C     C_1   0.624751 0.500285 0.124338 -0.014470
C73   C     C_3   0.708502 0.999422 0.710956 0.025601
C74   C     C_3   0.291500 0.000459 0.289009 0.036695
C75   C     C_3   0.208500 0.500532 0.710977 0.036832
C76   C     C_3   0.791499 0.500643 0.289059 0.039410
C77   C     C_3   0.791561 0.998962 0.794956 -0.183577
C78   C     C_3   0.208444 0.000767 0.205025 -0.162394
C79   C     C_3   0.291556 0.500888 0.794955 -0.162393
C80   C     C_3   0.708445 0.501060 0.205086 -0.161328
C81   C     C_3   0.772852 0.985042 0.857277 0.641681
C82   C     C_3   0.227181 0.015309 0.142831 0.620353
C83   C     C_3   0.272816 0.517691 0.856705 0.620141
C84   C     C_3   0.727186 0.519627 0.143722 0.619066
C85   C     C_3   0.723973 0.985792 0.804660 -0.434296
C86   C     C_3   0.276052 0.014770 0.195454 -0.443638
C87   C     C_3   0.223945 0.517041 0.804096 -0.443471
C88   C     C_3   0.776057 0.518877 0.196325 -0.444504
Cu1   Cu    Cu3+1 0.500000 0.072550 0.500000 1.028018
Cu2   Cu    Cu3+1 0.500000 0.927450 0.500000 1.027764
Cu3   Cu    Cu3+1 0.000000 0.572550 0.500000 1.026732
Cu4   Cu    Cu3+1 0.000000 0.427450 0.500000 1.022017
Cu5   Cu    Cu3+1 0.000010 0.000000 0.927480 1.070871
Cu6   Cu    Cu3+1 0.999990 0.000000 0.072520 1.057219
Cu7   Cu    Cu3+1 0.500010 0.500000 0.927480 1.064525
Cu8   Cu    Cu3+1 0.499990 0.500000 0.072520 1.063529
Cu9   Cu    Cu3+1 0.541320 0.000000 0.041310 1.055200
Cu10  Cu    Cu3+1 0.458680 0.000000 0.958690 1.053056
Cu11  Cu    Cu3+1 0.041320 0.500000 0.041310 1.053939
Cu12  Cu    Cu3+1 0.958680 0.500000 0.958690 1.040266
H1    H     H_    0.779065 0.071002 0.689284 0.130043
H2    H     H_    0.221029 0.928058 0.310251 0.131381
H3    H     H_    0.220703 0.037013 0.329425 0.107983
H4    H     H_    0.779320 0.961855 0.670859 0.133735
H5    H     H_    0.279299 0.533968 0.669583 0.108061
H6    H     H_    0.721022 0.423793 0.306551 0.129136
H7    H     H_    0.720702 0.531639 0.331163 0.106980
H8    H     H_    0.278975 0.425604 0.691810 0.131381
H9    H     H_    0.711347 0.090351 0.636013 0.179373
H10   H     H_    0.288729 0.908713 0.363102 0.186558
H11   H     H_    0.288609 0.058840 0.390592 0.180274
H12   H     H_    0.711344 0.940225 0.609788 0.184654
H13   H     H_    0.211389 0.555947 0.607789 0.180299
H14   H     H_    0.788713 0.405145 0.358426 0.182760
H15   H     H_    0.788617 0.553703 0.393456 0.178946
H16   H     H_    0.211279 0.406658 0.639507 0.186436
H17   H     H_    0.715623 0.883754 0.692864 0.250806
H18   H     H_    0.284274 0.115946 0.307936 0.245475
H19   H     H_    0.283968 0.883261 0.264881 0.239595
H20   H     H_    0.716001 0.116770 0.733863 0.257408
H21   H     H_    0.216044 0.383850 0.738412 0.239439
H22   H     H_    0.784301 0.614680 0.313793 0.245164
H23   H     H_    0.783938 0.384427 0.259034 0.239858
H24   H     H_    0.215713 0.615238 0.688797 0.245387
H25   H     H_    0.710484 0.028092 0.827585 0.218301
H26   H     H_    0.289680 0.973085 0.172220 0.181220
H27   H     H_    0.289535 0.067078 0.189480 0.221782
H28   H     H_    0.710422 0.933754 0.811134 0.211358
H29   H     H_    0.210459 0.569875 0.808583 0.221889
H30   H     H_    0.789681 0.479098 0.171036 0.180779
H31   H     H_    0.789545 0.572094 0.193018 0.220653
H32   H     H_    0.210318 0.476411 0.828490 0.181230
O1    O     O_R   0.500010 0.061270 0.394200 -0.575227
O2    O     O_R   0.499990 0.938730 0.605800 -0.574464
O3    O     O_R   0.499990 0.061270 0.605800 -0.574973
O4    O     O_R   0.500010 0.938730 0.394200 -0.574977
O5    O     O_R   0.000010 0.561270 0.394200 -0.575844
O6    O     O_R   0.999990 0.438730 0.605800 -0.576457
O7    O     O_R   0.999990 0.561270 0.605800 -0.574061
O8    O     O_R   0.000010 0.438730 0.394200 -0.575033
O9    O     O_R   0.560280 0.061270 0.560280 -0.572865
O10   O     O_R   0.439720 0.938730 0.439720 -0.573877
O11   O     O_R   0.439720 0.061270 0.439720 -0.571582
O12   O     O_R   0.560280 0.938730 0.560280 -0.571443
O13   O     O_R   0.060280 0.561270 0.560280 -0.571316
O14   O     O_R   0.939720 0.438730 0.439720 -0.574416
O15   O     O_R   0.939720 0.561270 0.439720 -0.572017
O16   O     O_R   0.060280 0.438730 0.560280 -0.573740
O17   O     O_R   0.000000 0.105620 0.938740 -0.574128
O18   O     O_R   0.000000 0.894380 0.061260 -0.577032
O19   O     O_R   0.000000 0.105620 0.061260 -0.573782
O20   O     O_R   0.000000 0.894380 0.938740 -0.570851
O21   O     O_R   0.500000 0.605620 0.938740 -0.573410
O22   O     O_R   0.500000 0.394380 0.061260 -0.573522
O23   O     O_R   0.500000 0.605620 0.061260 -0.573554
O24   O     O_R   0.500000 0.394380 0.938740 -0.573162
O25   O     O_R   0.939730 0.000000 0.878470 -0.582498
O26   O     O_R   0.060270 0.000000 0.121530 -0.591800
O27   O     O_R   0.439730 0.500000 0.878470 -0.591937
O28   O     O_R   0.560270 0.500000 0.121530 -0.592251
O29   O     O_R   0.939720 0.000000 0.000940 -0.547135
O30   O     O_R   0.060280 0.000000 0.999060 -0.543262
O31   O     O_R   0.439720 0.500000 0.000940 -0.543135
O32   O     O_R   0.560280 0.500000 0.999060 -0.542853
O33   O     O_R   0.534900 0.894160 0.034870 -0.567722
O34   O     O_R   0.465100 0.105840 0.965130 -0.574190
O35   O     O_R   0.465100 0.894160 0.965130 -0.569043
O36   O     O_R   0.534900 0.105840 0.034870 -0.574703
O37   O     O_R   0.034900 0.394160 0.034870 -0.566345
O38   O     O_R   0.965100 0.605840 0.965130 -0.572479
O39   O     O_R   0.965100 0.394160 0.965130 -0.577125
O40   O     O_R   0.034900 0.605840 0.034870 -0.573575
O41   O     O_R   0.534890 1.000000 0.140680 -0.577367
O42   O     O_R   0.465110 0.000000 0.859320 -0.577736
O43   O     O_R   0.034890 0.500000 0.140680 -0.576428
O44   O     O_R   0.965110 0.500000 0.859320 -0.579973
O45   O     O_R   0.465110 0.000000 0.070890 -0.572153
O46   O     O_R   0.534890 0.000000 0.929110 -0.570892
O47   O     O_R   0.965110 0.500000 0.070890 -0.574244
O48   O     O_R   0.034890 0.500000 0.929110 -0.570878
S1    S     S_3+6 0.799517 0.853353 0.733618 0.061939
O49   O     O_2   0.835951 0.842818 0.820146 -0.240287
O50   O     O_2   0.769284 0.791536 0.712997 -0.210601
O51   O     O_3   0.817479 0.850724 0.665554 -0.518204
H33   H     H_    0.830554 0.802152 0.673489 0.385340
S2    S     S_3+6 0.200241 0.145724 0.267148 0.080871
O52   O     O_2   0.230451 0.207705 0.288898 -0.174014
O53   O     O_2   0.164094 0.157345 0.180486 -0.220738
O54   O     O_3   0.181867 0.148067 0.334535 -0.487976
H34   H     H_    0.158806 0.112191 0.312377 0.339625
S3    S     S_3+6 0.200002 0.840554 0.213188 0.063215
O55   O     O_2   0.164965 0.846744 0.124460 -0.206312
O56   O     O_2   0.230481 0.783859 0.218051 -0.214155
O57   O     O_3   0.179687 0.812258 0.272457 -0.530831
H35   H     H_    0.166406 0.764863 0.248142 0.383802
S4    S     S_3+6 0.799993 0.159125 0.785656 0.047887
O58   O     O_2   0.769506 0.215950 0.780462 -0.222756
O59   O     O_2   0.835059 0.153362 0.874391 -0.234913
O60   O     O_3   0.820253 0.186945 0.726123 -0.529985
H36   H     H_    0.833517 0.234429 0.750094 0.382297
S5    S     S_3+6 0.300014 0.340275 0.791308 0.062773
O61   O     O_2   0.335045 0.347975 0.879846 -0.205995
O62   O     O_2   0.269539 0.284307 0.788016 -0.214989
O63   O     O_3   0.320341 0.309774 0.732878 -0.531310
H37   H     H_    0.333644 0.262728 0.758547 0.383734
S6    S     S_3+6 0.700273 0.642332 0.274407 0.083025
O64   O     O_2   0.730491 0.704641 0.299243 -0.171536
O65   O     O_2   0.664118 0.656473 0.188399 -0.220089
O66   O     O_3   0.681918 0.640421 0.341835 -0.484538
H38   H     H_    0.658850 0.604562 0.317907 0.339593
S7    S     S_3+6 0.699966 0.340211 0.205184 0.060865
O67   O     O_2   0.664949 0.349094 0.116814 -0.205017
O68   O     O_2   0.730435 0.284824 0.207284 -0.214659
O69   O     O_3   0.679617 0.308018 0.262896 -0.536620
H39   H     H_    0.666291 0.261277 0.236178 0.383284
S8    S     S_3+6 0.299746 0.643815 0.728780 0.081076
O70   O     O_2   0.269531 0.706001 0.705294 -0.174208
O71   O     O_2   0.335894 0.656853 0.815094 -0.220869
O72   O     O_3   0.318115 0.643764 0.661354 -0.487212
H40   H     H_    0.341180 0.607884 0.684516 0.339890
S9    S     S_3+6 0.788803 0.053541 0.939682 0.089790
O73   O     O_2   0.774789 0.031698 0.000625 -0.209476
O74   O     O_2   0.835478 0.060914 0.987187 -0.222874
O75   O     O_3   0.766510 0.134412 0.900615 -0.494022
H41   H     H_    0.778199 0.167770 0.949373 0.403358
S10   S     S_3+6 0.211140 0.947386 0.059774 0.107758
O76   O     O_2   0.164453 0.940544 0.011975 -0.189296
O77   O     O_2   0.224928 0.969801 0.998623 -0.214782
O78   O     O_3   0.232607 0.865536 0.097230 -0.456796
H42   H     H_    0.258504 0.863930 0.093748 0.351137
S11   S     S_3+6 0.211245 0.102406 0.087902 0.090050
O79   O     O_2   0.164519 0.108935 0.041351 -0.233270
O80   O     O_2   0.230204 0.165058 0.147266 -0.233801
O81   O     O_3   0.228003 0.109452 0.018170 -0.459020
H43   H     H_    0.216391 0.156080 0.988668 0.389893
S12   S     S_3+6 0.788867 0.898238 0.912957 0.090066
O82   O     O_2   0.774130 0.893035 0.975719 -0.212343
O83   O     O_2   0.769903 0.835278 0.854104 -0.235730
O84   O     O_3   0.841158 0.891149 0.965050 -0.485004
H44   H     H_    0.847068 0.843212 0.993313 0.390004
S13   S     S_3+6 0.288748 0.605850 0.909173 0.089996
O85   O     O_2   0.335474 0.612379 0.955537 -0.233662
O86   O     O_2   0.269784 0.667341 0.848065 -0.233846
O87   O     O_3   0.271991 0.615313 0.978676 -0.458753
H45   H     H_    0.283597 0.662431 0.006854 0.389550
S14   S     S_3+6 0.711142 0.455145 0.057344 0.107122
O88   O     O_2   0.664455 0.448408 0.009178 -0.188698
O89   O     O_2   0.724948 0.481258 0.997431 -0.216721
O90   O     O_3   0.732585 0.372579 0.090681 -0.456013
H46   H     H_    0.758511 0.372441 0.087260 0.351331
S15   S     S_3+6 0.711261 0.608579 0.093203 0.092782
O91   O     O_2   0.664537 0.615118 0.046988 -0.231591
O92   O     O_2   0.730231 0.669123 0.155653 -0.231839
O93   O     O_3   0.728014 0.619930 0.023921 -0.458506
H47   H     H_    0.716431 0.667419 0.996810 0.395040
S16   S     S_3+6 0.288860 0.451678 0.941642 0.108102
O94   O     O_2   0.335547 0.444884 0.989642 -0.189033
O95   O     O_2   0.275064 0.476179 0.002125 -0.214305
O96   O     O_3   0.267402 0.369406 0.906491 -0.456775
H48   H     H_    0.241494 0.368628 0.909967 0.351463

loop_
_geom_bond_atom_site_label_1
_geom_bond_atom_site_label_2
_ccdc_geom_bond_type
C27   O21   A    
C83   C87   S    
C82   S11   S    
S16   O96   S    
S14   O89   D    
Cu5   Cu6   S    
C65   C79   S    
C55   H18   S    
C2    C18   S    
C35   O39   A    
C64   C77   S    
Cu5   O17   S    
Cu7   Cu8   S    
S8    O72   S    
C15   C47   S    
C66   H7    S    
C80   C84   S    
Cu4   O6    S    
O75   H41   S    
C16   C48   S    
Cu3   O15   S    
Cu9   Cu10  S    
S5    O62   D    
C53   H20   S    
C58   C76   S    
S15   O91   D    
C14   C46   S    
S1    O49   D    
S12   O82   D    
C82   S10   S    
C58   H23   S    
O78   H42   S    
C31   O27   A    
C56   H17   S    
Cu7   O27   S    
C25   O17   A    
O84   H44   S    
S8    O71   D    
Cu7   O24   S    
S9    O75   S    
C38   O46   A    
C63   H2    S    
C59   C66   S    
C7    C71   T    
Cu10  O42   S    
C53   C64   S    
C63   S3    S    
C38   O42   A    
Cu8   O23   S    
C86   H26   S    
C54   C63   S    
C53   H9    S    
C22   C38   S    
C48   O15   A    
C32   O32   A    
O87   H45   S    
C54   H10   S    
C59   H22   S    
C84   S14   S    
S13   O85   D    
S5    O61   D    
C9    C13   T    
C5    C69   T    
C24   C40   S    
C40   O48   A    
C55   C74   S    
C11   C15   T    
Cu1   O9    S    
Cu8   O22   S    
C12   C16   T    
C61   C77   S    
C79   C83   S    
C48   O14   A    
Cu12  O44   S    
C45   O12   A    
O63   H37   S    
C3    C19   S    
C3    O5    A    
C88   H30   S    
C1    O4    A    
C76   C88   S    
C65   H8    S    
Cu10  O35   S    
C36   C52   S    
C62   S2    S    
C55   H11   S    
C68   C79   S    
C31   C71   S    
O57   H35   S    
C86   H27   S    
O51   H33   S    
O60   H36   S    
Cu6   O26   S    
C54   C74   S    
C54   H19   S    
C84   S15   S    
C45   O9    A    
C68   S8    S    
Cu9   O33   S    
S14   O90   S    
C33   O35   A    
C9    C73   S    
S4    O60   S    
C1    O1    A    
C47   O13   A    
C30   C70   S    
C29   C69   S    
C1    C17   S    
S1    O50   D    
C27   O23   A    
C64   H1    S    
Cu5   O25   S    
C31   O31   A    
C36   O40   A    
Cu1   O1    S    
Cu12  O38   S    
S3    O55   D    
C29   O29   A    
C26   O18   A    
C61   H4    S    
Cu9   O41   S    
S8    O70   D    
C32   C72   S    
C10   C14   T    
C25   C41   S    
Cu3   Cu4   S    
C40   O44   A    
S6    O64   D    
C43   C49   T    
S15   O93   S    
C29   O25   A    
Cu11  O40   S    
Cu6   O19   S    
C82   C86   S    
Cu4   O14   S    
C28   C44   S    
C17   C21   T    
S16   O95   D    
S13   O86   D    
C87   H32   S    
C19   C23   T    
S3    O56   D    
S7    O67   D    
O93   H47   S    
S9    O73   D    
Cu2   O4    S    
C78   C82   S    
C39   O47   A    
Cu11  Cu12  S    
C77   C81   S    
C28   O24   A    
S16   O94   D    
O66   H38   S    
O90   H46   S    
C81   S12   S    
C21   C37   S    
S11   O80   D    
Cu2   O10   S    
C74   C86   S    
Cu10  O45   S    
C67   S7    S    
Cu6   O29   S    
C73   C85   S    
Cu10  O34   S    
Cu1   O3    S    
Cu3   O7    S    
C39   O43   A    
Cu8   O28   S    
S15   O92   D    
C60   C65   S    
S10   O77   D    
C12   C76   S    
C35   C51   S    
O72   H40   S    
C35   O37   A    
S5    O63   S    
C53   C73   S    
C60   H16   S    
C56   H12   S    
C68   H5    S    
C30   O30   A    
C57   C68   S    
C5    C77   S    
O96   H48   S    
S10   O78   S    
Cu3   O13   S    
C81   S9    S    
C26   C42   S    
C7    C79   S    
C62   H3    S    
S1    O51   S    
C44   C50   T    
O54   H34   S    
C6    C70   T    
Cu3   O5    S    
C47   O16   A    
C56   C73   S    
C32   O28   A    
C65   S5    S    
S7    O68   D    
C85   H25   S    
O69   H39   S    
C8    C72   T    
C61   S1    S    
C62   C78   S    
C33   O33   A    
C67   C80   S    
C84   C88   S    
C30   O26   A    
S4    O58   D    
C85   H28   S    
C37   O41   A    
C34   C50   S    
C57   H13   S    
C2    O2    A    
C67   H6    S    
C46   O11   A    
Cu11  O37   S    
C41   C51   T    
Cu6   O18   S    
Cu9   O36   S    
C66   C80   S    
C83   S13   S    
C60   C75   S    
C36   O38   A    
C2    O3    A    
Cu8   O31   S    
C83   S16   S    
C25   O19   A    
S13   O87   S    
C57   C75   S    
S14   O88   D    
C18   C22   T    
Cu1   Cu2   S    
S3    O57   S    
Cu11  O48   S    
S9    O74   D    
Cu1   O11   S    
Cu7   O32   S    
C57   H24   S    
C13   C45   S    
Cu4   O16   S    
C10   C74   S    
S6    O66   S    
C87   H29   S    
Cu9   O46   S    
Cu5   O30   S    
S2    O54   S    
Cu2   O2    S    
C64   S4    S    
C26   O20   A    
C46   O10   A    
S12   O83   D    
S11   O81   S    
S6    O65   D    
C66   S6    S    
C34   O36   A    
C60   H21   S    
C20   C24   T    
S2    O53   D    
C81   C85   S    
S4    O59   D    
C6    C78   S    
C58   H14   S    
C4    O6    A    
C4    C20   S    
C28   O22   A    
C27   C43   S    
C58   C67   S    
S7    O69   S    
Cu11  O43   S    
C55   C62   S    
C59   H15   S    
S10   O76   D    
O81   H43   S    
C37   O45   A    
S11   O79   D    
C8    C80   S    
Cu12  O39   S    
C56   C61   S    
Cu5   O20   S    
C11   C75   S    
C3    O8    A    
C88   H31   S    
Cu7   O21   S    
S2    O52   D    
C34   O34   A    
Cu12  O47   S    
C33   C49   S    
C59   C76   S    
C23   C39   S    
S12   O84   S    
Cu2   O12   S    
C75   C87   S    
C42   C52   T    
C4    O7    A    
C63   C78   S    
Cu4   O8    S    
