data_mof_unit_52862.cif
_audit_creation_date              2012-12-11T14:39:26-0500
_audit_creation_method            fapswitch 2.2
_symmetry_space_group_name_H-M    P1
_symmetry_Int_Tables_number       1
_space_group_crystal_system       triclinic
_cell_length_a                    7.234512
_cell_length_b                    14.427171
_cell_length_c                    16.152126
_cell_angle_alpha                 89.99918
_cell_angle_beta                  96.878403
_cell_angle_gamma                 90.000113
_cell_volume                      1673.72075217

loop_
_atom_site_label
_atom_site_type_symbol
_atom_type_description
_atom_site_fract_x
_atom_site_fract_y
_atom_site_fract_z
_atom_type_partial_charge
O1    O     O_R   0.525340 0.338340 0.164530 -0.504054
O2    O     O_R   0.474660 0.661660 0.835470 -0.508293
O3    O     O_R   0.974660 0.838340 0.835470 -0.504085
O4    O     O_R   0.025340 0.161660 0.164530 -0.508339
O5    O     O_R   0.253520 0.352000 0.336710 -0.534461
O6    O     O_R   0.746480 0.648000 0.663290 -0.560311
O7    O     O_R   0.246480 0.852000 0.663290 -0.534424
O8    O     O_R   0.753520 0.148000 0.336710 -0.560281
O9    O     O_R   0.083330 0.168380 0.337300 -0.518111
O10   O     O_R   0.916670 0.831620 0.662700 -0.546408
O11   O     O_R   0.416670 0.668380 0.662700 -0.518063
O12   O     O_R   0.583330 0.331620 0.337300 -0.546350
C1    C     C_R   0.431775 0.364610 0.366897 0.813654
C2    C     C_R   0.568058 0.635269 0.633180 0.802269
C3    C     C_R   0.068228 0.864623 0.633112 0.813709
C4    C     C_R   0.931938 0.135242 0.366799 0.802462
O13   O     O_R   0.195840 0.349670 0.165140 -0.547787
O14   O     O_R   0.804160 0.650330 0.834860 -0.545000
O15   O     O_R   0.304160 0.849670 0.834860 -0.547787
O16   O     O_R   0.695840 0.150330 0.165140 -0.544959
C5    C     C_R   0.357830 0.369561 0.136062 0.750002
C6    C     C_R   0.640707 0.626386 0.860361 0.739068
C7    C     C_R   0.142171 0.869560 0.863938 0.749918
C8    C     C_R   0.859295 0.126382 0.139642 0.738994
O17   O     O_3   0.387830 0.193120 0.250910 -0.392093
O18   O     O_3   0.612170 0.806880 0.749090 -0.385427
O19   O     O_3   0.112170 0.693120 0.749090 -0.392024
O20   O     O_3   0.887830 0.306880 0.250910 -0.385395
V1    V     V_3+5 0.113010 0.264540 0.250910 1.486643
V2    V     V_3+5 0.886990 0.735460 0.749090 1.444100
V3    V     V_3+5 0.386990 0.764540 0.749090 1.486695
V4    V     V_3+5 0.613010 0.235460 0.250910 1.444236
H1    H     H_    0.849337 0.832243 0.246196 0.129513
H2    H     H_    0.132340 0.167257 0.755381 0.133152
H3    H     H_    0.650691 0.332277 0.753819 0.129466
H4    H     H_    0.367606 0.667211 0.244590 0.133165
C9    C     C_R   0.038342 0.193295 0.544084 0.447059
C10   C     C_R   0.992715 0.806897 0.454543 0.424521
C11   C     C_R   0.461404 0.693279 0.455887 0.447028
C12   C     C_R   0.507290 0.306908 0.545478 0.424410
C13   C     C_R   0.082567 0.215743 0.629770 -0.216907
C14   C     C_R   0.939268 0.784064 0.369485 -0.219651
C15   C     C_R   0.417161 0.715707 0.370199 -0.216886
C16   C     C_R   0.560742 0.284085 0.630537 -0.219479
C17   C     C_R   0.100604 0.148063 0.690398 -0.193044
C18   C     C_R   0.890390 0.851588 0.310566 -0.209149
C19   C     C_R   0.399333 0.648027 0.309576 -0.193115
C20   C     C_R   0.609639 0.351615 0.689446 -0.209200
C21   C     C_R   0.082051 0.055921 0.668420 -0.153207
C22   C     C_R   0.899154 0.943839 0.332830 -0.168925
C23   C     C_R   0.418019 0.555895 0.331566 -0.153151
C24   C     C_R   0.600871 0.443864 0.667172 -0.168929
C25   C     C_R   0.044369 0.028158 0.584081 -0.034769
C26   C     C_R   0.952447 0.971831 0.416227 -0.024086
C27   C     C_R   0.455640 0.528146 0.415912 -0.034736
C28   C     C_R   0.547571 0.471847 0.583771 -0.024026
C29   C     C_R   0.017070 0.097194 0.520477 -0.021073
C30   C     C_R   0.994299 0.902900 0.479062 -0.015833
C31   C     C_R   0.482843 0.597190 0.479510 -0.021182
C32   C     C_R   0.505724 0.402906 0.520946 -0.015921
C33   C     C_R   0.035161 0.932344 0.563837 -0.158190
C34   C     C_R   0.966770 0.067683 0.436117 -0.164099
C35   C     C_R   0.464858 0.432337 0.436166 -0.158162
C36   C     C_R   0.533205 0.567697 0.563872 -0.164068
H5    H     H_    0.105752 0.285864 0.651781 0.109223
H6    H     H_    0.935883 0.713864 0.346322 0.115275
H7    H     H_    0.393769 0.785814 0.348190 0.109297
H8    H     H_    0.564096 0.213887 0.653707 0.115253
H9    H     H_    0.099368 0.006716 0.719225 0.107659
H10   H     H_    0.864063 0.992797 0.282804 0.109881
H11   H     H_    0.400831 0.506685 0.280765 0.107658
H12   H     H_    0.635951 0.492827 0.717193 0.109959
C37   C     C_2   0.146366 0.934029 0.936116 -0.408300
C38   C     C_2   0.857303 0.055245 0.073221 -0.403367
C39   C     C_2   0.353641 0.434034 0.063885 -0.408288
C40   C     C_2   0.642697 0.555249 0.926783 -0.403439
C41   C     C_2   0.999868 0.945796 0.981166 0.340976
C42   C     C_2   0.013329 0.011550 0.053299 0.344658
C43   C     C_2   0.500126 0.445786 0.018825 0.340975
C44   C     C_2   0.486668 0.511551 0.946697 0.344610
H13   H     H_    0.723277 0.039389 0.038247 0.142405
H14   H     H_    0.275420 0.971116 0.954615 0.138288
H15   H     H_    0.776722 0.539390 0.961758 0.142362
H16   H     H_    0.224599 0.471137 0.045396 0.138222
O21   O     O_3   0.027598 0.261284 0.481904 -0.550188
C45   C     C_3   0.997721 0.352083 0.510541 0.080155
H17   H     H_    0.126125 0.378800 0.547248 0.127399
H18   H     H_    0.880856 0.353395 0.549209 0.118221
C46   C     C_3   0.950504 0.416790 0.436667 -0.648356
H19   H     H_    0.898731 0.377322 0.380993 0.272271
H20   H     H_    0.841091 0.466768 0.448713 0.163188
H21   H     H_    0.074846 0.456096 0.423346 0.192598
O22   O     O_3   0.057145 0.739668 0.513482 -0.553705
C47   C     C_3   0.998809 0.648435 0.491356 0.095176
H22   H     H_    0.073210 0.622356 0.439762 0.125071
H23   H     H_    0.846084 0.646209 0.472849 0.112146
C48   C     C_3   0.046422 0.583506 0.565024 -0.658639
H24   H     H_    0.928372 0.537189 0.573708 0.172995
H25   H     H_    0.168567 0.540389 0.556309 0.179670
H26   H     H_    0.079439 0.623091 0.622278 0.274818
O23   O     O_3   0.471800 0.761281 0.518034 -0.550074
C49   C     C_3   0.502312 0.852014 0.489436 0.079872
H27   H     H_    0.374222 0.878885 0.452619 0.127417
H28   H     H_    0.619367 0.853150 0.450893 0.118242
C50   C     C_3   0.549509 0.916704 0.563316 -0.648406
H29   H     H_    0.601273 0.877213 0.618977 0.272242
H30   H     H_    0.658916 0.966689 0.551276 0.163169
H31   H     H_    0.425161 0.956008 0.576633 0.192739
O24   O     O_3   0.442777 0.239677 0.486556 -0.553800
C51   C     C_3   0.501138 0.148445 0.508680 0.095074
H32   H     H_    0.426739 0.122355 0.560272 0.125080
H33   H     H_    0.653860 0.146223 0.527189 0.112271
C52   C     C_3   0.453562 0.083525 0.435006 -0.658742
H34   H     H_    0.571609 0.037203 0.426335 0.173020
H35   H     H_    0.331397 0.040415 0.443704 0.179712
H36   H     H_    0.420602 0.123119 0.377751 0.274802
O25   O     O_3   0.184994 0.026062 0.100038 -0.538851
C53   C     C_3   0.232884 0.945520 0.147856 0.077511
H37   H     H_    0.246046 0.884121 0.107248 0.092835
H38   H     H_    0.126490 0.930726 0.190473 0.113408
C54   C     C_3   0.419307 0.959523 0.200748 -0.660703
H39   H     H_    0.407798 0.014703 0.247573 0.227498
H40   H     H_    0.462205 0.894301 0.234116 0.154968
H41   H     H_    0.527480 0.978766 0.160628 0.214581
O26   O     O_3   0.832945 0.899375 0.959868 -0.538339
C55   C     C_3   0.815507 0.828148 0.018711 0.105412
H42   H     H_    0.871407 0.847428 0.083781 0.070142
H43   H     H_    0.889925 0.765219 0.000654 0.126270
C56   C     C_3   0.610786 0.805028 0.019314 -0.713429
H44   H     H_    0.548775 0.783656 0.956263 0.240795
H45   H     H_    0.595271 0.747644 0.063792 0.167293
H46   H     H_    0.535410 0.866857 0.038531 0.211936
O27   O     O_3   0.315008 0.526076 0.899960 -0.538842
C57   C     C_3   0.267054 0.445519 0.852166 0.077517
H47   H     H_    0.253880 0.384141 0.892800 0.092835
H48   H     H_    0.373424 0.430692 0.809542 0.113401
C58   C     C_3   0.080606 0.459519 0.799287 -0.660795
H49   H     H_    0.092191 0.514580 0.752374 0.227395
H50   H     H_    0.037471 0.394260 0.766031 0.154969
H51   H     H_    0.972544 0.478899 0.839403 0.214723
O28   O     O_3   0.667034 0.399348 0.040121 -0.538314
C59   C     C_3   0.684593 0.328219 0.981199 0.105239
H52   H     H_    0.628971 0.347631 0.916125 0.070220
H53   H     H_    0.609989 0.265277 0.999101 0.126171
C60   C     C_3   0.889328 0.305047 0.980722 -0.713160
H54   H     H_    0.951090 0.283579 0.043788 0.240789
H55   H     H_    0.904924 0.247720 0.936197 0.167245
H56   H     H_    0.964880 0.366884 0.961636 0.211907

loop_
_geom_bond_atom_site_label_1
_geom_bond_atom_site_label_2
_ccdc_geom_bond_type
O1    C5    A    
O22   C47   S    
C12   C32   A    
C27   C31   A    
O13   V1    S    
C50   H29   S    
O3    C7    A    
C6    C40   S    
O15   V3    S    
C48   H26   S    
C57   C58   S    
C60   H54   S    
C29   C34   A    
C43   O28   S    
C41   C42   S    
C50   H30   S    
C31   C36   A    
C55   H42   S    
C4    C34   S    
H4    C19   S    
C32   C35   A    
C9    O21   S    
O20   V1    S    
O9    C4    A    
C10   C14   A    
O10   C3    A    
O16   V4    S    
O4    C8    A    
O11   C2    A    
C45   H18   S    
C39   H16   S    
C48   H24   S    
C49   C50   S    
C14   C18   A    
C37   C41   D    
C51   H32   S    
C54   H41   S    
C48   H25   S    
C53   H37   S    
C25   C33   A    
O16   C8    A    
C27   C35   A    
O2    C6    A    
C28   C36   A    
O14   V2    S    
C46   H20   S    
C12   C16   A    
O5    C1    A    
O4    V1    S    
O9    V1    S    
C47   H23   S    
C56   H46   S    
O17   V4    S    
O7    C3    A    
O11   V3    S    
O18   V3    S    
O8    C4    A    
C21   H9    S    
O12   V4    S    
O19   V2    S    
C9    C13   A    
H1    C18   S    
C59   C60   S    
C49   H27   S    
C23   H11   S    
C7    C37   S    
H3    C20   S    
C40   H15   S    
C60   H55   S    
C11   O23   S    
O5    V1    S    
C50   H31   S    
O7    V3    S    
O8    V4    S    
O23   C49   S    
C42   O25   S    
C25   C29   A    
C45   H17   S    
C11   C15   A    
C26   C34   A    
C55   C56   S    
O21   C45   S    
O1    V4    S    
O13   C5    A    
C44   O27   S    
C28   C32   A    
O2    V3    S    
C53   C54   S    
O3    V2    S    
O15   C7    A    
C57   H48   S    
C24   H12   S    
O6    C2    A    
C58   H50   S    
O10   V2    S    
C1    C35   S    
C17   C21   A    
C11   C31   A    
C3    C33   S    
H2    C17   S    
C10   C30   A    
C46   H21   S    
C49   H28   S    
C51   C52   S    
C54   H39   S    
C57   H47   S    
C2    C36   S    
C53   H38   S    
O6    V2    S    
O28   C59   S    
O27   C57   S    
C59   H53   S    
C16   H8    S    
C38   H13   S    
C37   H14   S    
C60   H56   S    
C41   O26   S    
C52   H34   S    
C26   C30   A    
C5    C39   S    
C55   H43   S    
O14   C6    A    
C40   C44   D    
C45   C46   S    
C19   C23   A    
C12   O24   S    
C58   H49   S    
C18   C22   A    
C47   C48   S    
C52   H36   S    
C56   H44   S    
C22   C26   A    
O25   C53   S    
C8    C38   S    
O26   C55   S    
C15   C19   A    
C30   C33   A    
C21   C25   A    
C58   H51   S    
C10   O22   S    
C23   C27   A    
C13   H5    S    
C47   H22   S    
C51   H33   S    
C22   H10   S    
C54   H40   S    
C43   C44   S    
C16   C20   A    
C20   C24   A    
O12   C1    A    
C15   H7    S    
C38   C42   D    
C14   H6    S    
C13   C17   A    
C59   H52   S    
C52   H35   S    
C46   H19   S    
O24   C51   S    
C39   C43   D    
C9    C29   A    
C24   C28   A    
C56   H45   S    
