data_mof_unit_58165.cif
_audit_creation_date              2012-10-26T19:40:08-0400
_audit_creation_method            fapswitch 2.2
_symmetry_space_group_name_H-M    P1
_symmetry_Int_Tables_number       1
_space_group_crystal_system       triclinic
_cell_length_a                    15.01371
_cell_length_b                    8.662405
_cell_length_c                    7.49987
_cell_angle_alpha                 103.30384
_cell_angle_beta                  94.80601
_cell_angle_gamma                 93.268564
_cell_volume                      942.94873423

loop_
_atom_site_label
_atom_site_type_symbol
_atom_type_description
_atom_site_fract_x
_atom_site_fract_y
_atom_site_fract_z
_atom_type_partial_charge
C1    C     C_R   0.497061 0.199686 0.452948 0.527211
C2    C     C_R   0.180431 0.351451 0.435839 0.048806
C3    C     C_R   0.766690 0.501657 0.495915 0.005008
C4    C     C_R   0.233250 0.495522 0.503946 0.049215
C5    C     C_R   0.804553 0.358190 0.429160 0.064151
C6    C     C_R   0.195798 0.638046 0.572824 0.068151
C7    C     C_R   0.897731 0.357274 0.430585 0.019043
C8    C     C_R   0.102382 0.639173 0.572272 -0.000590
C9    C     C_R   0.953028 0.499814 0.500365 -0.033744
C10   C     C_R   0.047218 0.496033 0.501796 -0.019081
C11   C     C_R   0.914216 0.645652 0.568724 0.094813
C12   C     C_R   0.502913 0.800316 0.547050 0.554372
C13   C     C_R   0.085973 0.349672 0.433016 0.061948
C14   C     C_R   0.936120 0.214775 0.363755 -0.067498
C15   C     C_R   0.063474 0.781280 0.640558 -0.131082
C16   C     C_R   0.028116 0.208338 0.363783 0.090010
C17   C     C_R   0.971126 0.786412 0.640109 0.128862
C18   C     C_2   0.495516 0.031278 0.426967 -0.157630
C19   C     C_2   0.504484 0.968732 0.573023 -0.148355
C20   C     C_R   0.329446 0.497923 0.501156 0.586222
C21   C     C_R   0.670540 0.500978 0.498679 0.532196
C22   C     C_R   0.819929 0.645272 0.564124 0.080955
Cu1   Cu    Cu3+1 0.510010 0.517380 0.684380 0.996816
Cu2   Cu    Cu3+1 0.489990 0.482620 0.315620 0.987480
H1    H     H_    0.894470 0.104754 0.309925 0.188429
H2    H     H_    0.711099 0.192805 0.468051 0.241083
H3    H     H_    0.237757 0.863444 0.562825 0.226464
H4    H     H_    0.246199 0.827834 0.778320 0.230790
H5    H     H_    0.098750 0.020077 0.393618 0.261750
H6    H     H_    0.093136 0.057801 0.176388 0.261206
H7    H     H_    0.963886 0.976568 0.852108 0.233961
H8    H     H_    0.958464 0.018132 0.642010 0.237959
H9    H     H_    0.422003 0.237441 0.943090 0.211015
H10   H     H_    0.348712 0.378201 0.966969 0.221369
H11   H     H_    0.578047 0.762526 0.056916 0.212779
H12   H     H_    0.104247 0.891731 0.696152 0.103614
H13   H     H_    0.651301 0.621697 0.033018 0.224635
H14   H     H_    0.486920 0.958575 0.286753 0.133756
H15   H     H_    0.513095 0.041442 0.713235 0.131025
H16   H     H_    0.741570 0.780892 0.736173 0.240708
H17   H     H_    0.733346 0.807371 0.517614 0.232067
H18   H     H_    0.268687 0.191154 0.479818 0.230725
H19   H     H_    0.259246 0.219144 0.261787 0.241246
H20   H     H_    0.704886 0.222861 0.251299 0.251780
N1    N     N_2   0.474890 0.456420 0.038520 -0.020580
N2    N     N_3   0.588944 0.649786 0.078056 -0.447729
N3    N     N_2   0.525110 0.543580 0.961480 -0.021094
N4    N     N_3   0.777681 0.790427 0.625429 -0.573809
N5    N     N_3   0.223763 0.207989 0.372857 -0.671187
N6    N     N_3   0.748708 0.212069 0.362859 -0.647239
N7    N     N_3   0.254364 0.780838 0.639763 -0.628113
N8    N     N_3   0.058695 0.054739 0.291133 -0.638438
N9    N     N_3   0.936657 0.936227 0.715037 -0.572620
N10   N     N_3   0.411077 0.350167 0.921940 -0.451468
O1    O     O_R   0.506510 0.286130 0.619770 -0.482544
O2    O     O_R   0.493490 0.713870 0.380230 -0.477037
O3    O     O_R   0.489600 0.256770 0.308360 -0.521342
O4    O     O_R   0.510400 0.743230 0.691640 -0.510634
O5    O     O_R   0.378710 0.514640 0.655720 -0.464824
O6    O     O_R   0.621290 0.485360 0.344280 -0.484921
O7    O     O_R   0.361800 0.485290 0.344300 -0.519283
O8    O     O_R   0.638200 0.514710 0.655700 -0.520779

loop_
_geom_bond_atom_site_label_1
_geom_bond_atom_site_label_2
_ccdc_geom_bond_type
Cu1   O4    S    
C22   N4    S    
Cu1   Cu2   S    
Cu1   O1    S    
Cu2   O7    S    
C2    N5    S    
C1    O3    A    
C6    N7    S    
Cu2   O2    S    
C9    C10   A    
C15   H12   S    
C11   C22   A    
C2    C4    A    
Cu2   O6    S    
C12   O4    A    
N1    N3    D    
C1    O1    A    
H7    N9    S    
C20   O5    A    
Cu1   O5    S    
C9    C11   A    
C1    C18   S    
C12   O2    A    
C19   H15   S    
Cu2   N1    S    
C12   C19   S    
C4    C6    A    
H17   N4    S    
H3    N7    S    
N1    N10   S    
H10   N10   S    
C8    C15   A    
C7    C9    A    
H2    N6    S    
C14   H1    S    
C18   H14   S    
H4    N7    S    
C14   C16   A    
C5    N6    S    
C3    C21   S    
Cu1   N3    S    
H18   N5    S    
C4    C20   S    
C17   N9    S    
H8    N9    S    
H9    N10   S    
C21   O6    A    
C8    C10   A    
C18   C19   D    
N2    N3    S    
C13   C16   A    
H20   N6    S    
C20   O7    A    
C5    C7    A    
C2    C13   A    
H6    N8    S    
H16   N4    S    
H19   N5    S    
C3    C22   A    
C6    C8    A    
Cu1   O8    S    
C21   O8    A    
H13   N2    S    
C15   C17   A    
H11   N2    S    
C10   C13   A    
C7    C14   A    
C11   C17   A    
C16   N8    S    
Cu2   O3    S    
C3    C5    A    
H5    N8    S    
