data_mof_unit_61004.cif
_audit_creation_date              2012-12-10T16:43:27-0500
_audit_creation_method            fapswitch 2.2
_symmetry_space_group_name_H-M    P1
_symmetry_Int_Tables_number       1
_space_group_crystal_system       triclinic
_cell_length_a                    18.398923
_cell_length_b                    18.423487
_cell_length_c                    18.557514
_cell_angle_alpha                 119.699469
_cell_angle_beta                  90.491773
_cell_angle_gamma                 119.7484
_cell_volume                      4465.9253087

loop_
_atom_site_label
_atom_site_type_symbol
_atom_type_description
_atom_site_fract_x
_atom_site_fract_y
_atom_site_fract_z
_atom_type_partial_charge
C1    C     C_R   0.361095 0.998235 0.138113 0.862161
C2    C     C_2   0.811865 0.004117 0.700615 -0.437659
C3    C     C_2   0.734292 0.955567 0.792666 -0.204698
C4    C     C_R   0.638502 0.000135 0.861511 0.905762
C5    C     C_2   0.689658 0.997145 0.802374 -0.355497
C6    C     C_2   0.281351 0.443967 0.720808 -0.139654
C7    C     C_2   0.192422 0.387790 0.697006 -0.289564
C8    C     C_2   0.337483 0.556305 0.779632 -0.138459
C9    C     C_2   0.304491 0.612188 0.802996 -0.287999
C10   C     C_2   0.275705 0.042207 0.330671 -0.333245
C11   C     C_2   0.193495 0.019486 0.308995 0.308943
C12   C     C_R   0.103137 0.012656 0.798586 -0.195901
C13   C     C_2   0.334836 0.054571 0.278822 -0.102856
C14   C     C_2   0.303823 0.988829 0.191115 -0.195911
C15   C     C_2   0.803855 0.968814 0.222501 -0.192250
C16   C     C_R   0.640058 0.276820 0.138408 0.863323
C17   C     C_2   0.816180 0.013754 0.308527 -0.374726
C18   C     C_2   0.759289 0.982827 0.169905 0.483437
C19   C     C_2   0.696152 0.998572 0.192259 -0.435414
C20   C     C_2   0.790840 0.556223 0.225956 -0.327547
C21   C     C_2   0.789281 0.614126 0.306465 0.327916
C22   C     C_2   0.726697 0.445198 0.165348 -0.098218
C23   C     C_R   0.174721 0.007750 0.776308 0.087569
C24   C     C_2   0.703467 0.387006 0.195244 -0.197437
C25   C     C_R   0.138494 0.277136 0.638935 0.866341
C26   C     C_R   0.859655 0.723089 0.361621 0.754283
C27   C     C_R   0.861426 0.999630 0.639038 0.889100
C28   C     C_R   0.361332 0.722860 0.861089 0.847705
C29   C     C_R   0.138778 0.001676 0.362060 0.762835
C30   C     C_R   0.861789 0.001939 0.360881 0.918685
C31   C     C_R   0.140194 0.001842 0.641649 0.763074
C32   C     C_R   0.641629 0.001421 0.139019 0.919157
C33   C     C_R   0.359573 0.001880 0.861973 0.792990
C34   C     C_R   0.227438 0.004877 0.829703 0.040651
C35   C     C_R   0.203791 0.002168 0.900955 -0.281022
C36   C     C_R   0.127414 0.996342 0.915730 0.418928
C37   C     C_R   0.078631 0.004427 0.866174 -0.156707
C38   C     C_R   0.303010 0.006972 0.811150 -0.043391
C39   C     C_R   0.326179 0.014882 0.742543 -0.195017
C40   C     C_R   0.273327 0.015063 0.689129 -0.198313
C41   C     C_R   0.196615 0.008657 0.703734 -0.046081
C42   C     C_2   0.779662 0.940506 0.727265 0.418426
H1    H     H_    0.384210 0.017706 0.728406 0.162836
H2    H     H_    0.798231 0.066678 0.343563 0.166592
H3    H     H_    0.679019 0.003534 0.249524 0.126591
H4    H     H_    0.843454 0.591686 0.203683 0.162453
H5    H     H_    0.703354 0.411232 0.095410 0.183783
H6    H     H_    0.021617 0.004578 0.879993 0.193179
H7    H     H_    0.065515 0.023628 0.764984 0.183987
H8    H     H_    0.291217 0.017525 0.634497 0.161752
H9    H     H_    0.805725 0.067449 0.728869 0.140639
H10   H     H_    0.234347 0.578145 0.778752 0.156708
H11   H     H_    0.056675 0.060769 0.214453 0.424368
H12   H     H_    0.687046 0.026053 0.764511 0.157267
H13   H     H_    0.829528 0.923435 0.190271 0.231001
H14   H     H_    0.911598 0.005056 0.044955 0.409348
H15   H     H_    0.630923 0.639217 0.414816 0.401807
H16   H     H_    0.732638 0.421476 0.264329 0.193996
H17   H     H_    0.110803 0.857993 0.961505 0.355641
H18   H     H_    0.773035 0.801913 0.786287 0.377306
H19   H     H_    0.733441 0.926146 0.831150 0.224249
H20   H     H_    0.315217 0.406752 0.697467 0.188651
H21   H     H_    0.156299 0.421610 0.720841 0.154283
H22   H     H_    0.408749 0.593788 0.803366 0.194293
H23   H     H_    0.300765 0.049926 0.389083 0.158028
H24   H     H_    0.405533 0.113744 0.313985 0.190737
H25   H     H_    0.234073 0.925401 0.156894 0.198114
H26   H     H_    0.243726 0.004856 0.946219 0.205064
O1    O     O_3   0.500000 0.000000 0.000000 -0.515235
O2    O     O_R   0.054120 0.939900 0.325040 -0.588980
O3    O     O_R   0.884120 0.060070 0.444330 -0.643563
O4    O     O_R   0.325020 0.939940 0.054210 -0.627214
O5    O     O_R   0.175860 0.060090 0.615830 -0.646282
O6    O     O_R   0.884120 0.939900 0.324160 -0.617052
O7    O     O_R   0.055710 0.939940 0.615850 -0.627385
O8    O     O_R   0.885720 0.939940 0.614980 -0.551548
O9    O     O_R   0.174930 0.060060 0.445830 -0.656810
O10   O     O_R   0.054120 0.229160 0.614300 -0.642387
O11   O     O_R   0.885050 0.770830 0.325070 -0.660251
O12   O     O_R   0.614240 0.229150 0.054160 -0.645354
O13   O     O_R   0.614240 0.060060 0.885070 -0.650942
O14   O     O_R   0.614900 0.229170 0.174980 -0.619139
O15   O     O_R   0.445840 0.770840 0.885740 -0.635105
O16   O     O_R   0.615830 0.060100 0.175880 -0.649837
O17   O     O_R   0.324090 0.939910 0.884220 -0.646630
O18   O     O_R   0.615830 0.939930 0.055710 -0.576183
O19   O     O_R   0.444240 0.060060 0.884190 -0.635318
O20   O     O_2   0.222767 0.091360 0.207504 -0.205171
O21   O     O_2   0.087715 0.919172 0.147336 -0.240853
O22   O     O_3   0.092519 0.076580 0.266792 -0.538028
O23   O     O_R   0.325020 0.770840 0.885120 -0.644660
O24   O     O_2   0.727187 0.874580 0.995622 -0.264048
O25   O     O_2   0.798185 0.058781 0.072639 -0.327698
O26   O     O_3   0.893687 0.999149 0.093004 -0.518853
O27   O     O_2   0.611813 0.483424 0.265713 -0.288803
O28   O     O_2   0.712296 0.541254 0.399243 -0.252383
O29   O     O_3   0.686884 0.669134 0.402528 -0.525857
O30   O     O_2   0.121806 0.077614 0.078130 -0.217911
O31   O     O_2   0.992819 0.904852 0.963656 -0.276623
O32   O     O_3   0.138803 0.927236 0.016369 -0.476107
O33   O     O_2   0.749095 0.765409 0.589856 -0.179475
O34   O     O_R   0.445840 0.060100 0.175010 -0.642690
O35   O     O_2   0.883229 0.873860 0.717029 -0.309952
O36   O     O_3   0.730576 0.768181 0.728792 -0.507147
O37   O     O_R   0.614900 0.939900 0.885710 -0.603076
O38   O     O_3   0.999960 0.000000 0.500040 -0.518335
O39   O     O_R   0.174930 0.229160 0.614920 -0.635458
O40   O     O_R   0.885720 0.770850 0.445880 -0.567481
O41   O     O_R   0.885050 0.060100 0.614330 -0.653969
S1    S     S_3+6 0.150225 0.026175 0.228521 0.106302
S2    S     S_3+6 0.793072 0.978324 0.079198 0.048870
S3    S     S_3+6 0.696722 0.571965 0.342471 0.067155
S4    S     S_3+6 0.092437 0.976837 0.995689 0.077807
S5    S     S_3+6 0.787533 0.835611 0.688654 0.084059
Zn1   Zn    Zn3+2 0.542440 0.085830 0.956610 0.991836
Zn2   Zn    Zn3+2 0.543390 0.085850 0.129220 1.010379
Zn3   Zn    Zn3+2 0.543390 0.914160 0.957530 1.050508
Zn4   Zn    Zn3+2 0.370780 0.914160 0.956640 0.986078
Zn5   Zn    Zn3+2 0.957510 0.914170 0.543430 1.081226
Zn6   Zn    Zn3+2 0.956570 0.085840 0.542520 0.996738
Zn7   Zn    Zn3+2 0.956570 0.914150 0.370820 1.040853
Zn8   Zn    Zn3+2 0.129180 0.085840 0.543400 0.981586

loop_
_geom_bond_atom_site_label_1
_geom_bond_atom_site_label_2
_ccdc_geom_bond_type
C15   C18   S    
C21   C26   S    
O1    Zn2   S    
H17   O32   S    
O38   Zn5   S    
O1    Zn4   S    
C35   C36   A    
O37   Zn3   S    
C12   H7    S    
C3    C42   S    
H14   O26   S    
O11   Zn7   S    
C12   C23   A    
C17   C30   S    
O3    Zn6   S    
C36   C37   A    
C34   C35   A    
O27   S3    D    
C38   C39   A    
C30   O6    A    
C31   O5    A    
C36   S4    S    
O26   S2    S    
C18   C19   D    
C12   C37   A    
C33   O17   A    
O9    Zn8   S    
C42   S5    S    
C4    O13   A    
C8    C9    D    
C14   H25   S    
C2    C27   S    
O18   Zn3   S    
O19   Zn1   S    
O20   S1    D    
C22   H5    S    
O41   Zn6   S    
H15   O29   S    
C16   C24   S    
C13   C14   D    
C28   O15   A    
O33   S5    D    
O40   Zn5   S    
O13   Zn1   S    
C9    H10   S    
C19   C32   S    
C30   O3    A    
C13   H24   S    
C3    H19   S    
C32   O16   A    
C1    O4    A    
C25   O10   A    
O8    Zn5   S    
C5    H12   S    
O35   S5    D    
O7    Zn5   S    
C18   S2    S    
C2    H9    S    
C26   O40   A    
C39   C40   A    
O29   S3    S    
O30   S4    D    
C6    C8    S    
O21   S1    D    
C16   O12   A    
C15   H13   S    
O10   Zn6   S    
O28   S3    D    
C31   O7    A    
O12   Zn1   S    
C23   C34   A    
C32   O18   A    
O38   Zn8   S    
C16   O14   A    
O23   Zn4   S    
C37   H6    S    
C7    H21   S    
C8    H22   S    
O36   S5    S    
C24   H16   S    
C40   C41   A    
O25   S2    D    
C22   C24   D    
O22   S1    S    
C27   O8    A    
C21   S3    S    
C25   O39   A    
C29   O2    A    
C10   H23   S    
C15   C17   D    
O1    Zn1   S    
C31   C41   S    
O38   Zn6   S    
C34   C38   A    
O32   S4    S    
C33   C38   S    
C20   C22   S    
C4    C5    S    
C3    C5    D    
C10   C13   S    
C7    C25   S    
O31   S4    D    
C39   H1    S    
C19   H3    S    
O24   S2    D    
C6    C7    D    
C4    O37   A    
C26   O11   A    
C23   C41   A    
O15   Zn3   S    
C33   O19   A    
C17   H2    S    
O14   Zn2   S    
C11   C29   S    
O2    Zn7   S    
C6    H20   S    
C35   H26   S    
C2    C42   D    
C40   H8    S    
O38   Zn7   S    
O1    Zn3   S    
C28   O23   A    
O17   Zn4   S    
O34   Zn2   S    
C10   C11   D    
O6    Zn7   S    
C29   O9    A    
C20   C21   D    
C27   O41   A    
O16   Zn2   S    
O5    Zn8   S    
O4    Zn4   S    
H11   O22   S    
C1    C14   S    
O39   Zn8   S    
H18   O36   S    
C1    O34   A    
C20   H4    S    
C9    C28   S    
C11   S1    S    
