data_mof_unit_9906.cif
_audit_creation_date              2012-12-10T17:11:53-0500
_audit_creation_method            fapswitch 2.2
_symmetry_space_group_name_H-M    P1
_symmetry_Int_Tables_number       1
_space_group_crystal_system       triclinic
_cell_length_a                    19.184073
_cell_length_b                    10.826046
_cell_length_c                    10.002738
_cell_angle_alpha                 88.860149
_cell_angle_beta                  90.853211
_cell_angle_gamma                 89.912074
_cell_volume                      2076.80035538

loop_
_atom_site_label
_atom_site_type_symbol
_atom_type_description
_atom_site_fract_x
_atom_site_fract_y
_atom_site_fract_z
_atom_type_partial_charge
C1    C     C_R   0.501869 0.263173 0.501063 0.903105
C2    C     C_R   0.852453 0.528399 0.482842 -0.273022
C3    C     C_2   0.511622 0.939923 0.399053 0.133484
C4    C     C_R   0.365070 0.501142 0.498665 1.077503
C5    C     C_2   0.483085 0.866085 0.494051 0.133679
C6    C     C_2   0.495385 0.068297 0.397100 0.480853
C7    C     C_2   0.514476 0.134172 0.502309 0.397271
C8    C     C_2   0.532723 0.581246 0.925034 0.604170
C9    C     C_2   0.542596 0.565228 0.073839 0.603369
C10   C     C_R   0.498897 0.737276 0.498679 0.938102
C11   C     C_R   0.634656 0.490205 0.501380 1.005479
C12   C     C_R   0.288269 0.502280 0.493352 -0.427769
C13   C     C_R   0.249626 0.440633 0.595048 0.274920
C14   C     C_R   0.177198 0.449220 0.591190 0.572104
C15   C     C_R   0.142785 0.499197 0.478926 -0.325970
C16   C     C_R   0.179902 0.543031 0.367893 0.277597
C17   C     C_R   0.252364 0.560519 0.382285 0.308738
C18   C     C_R   0.927795 0.523462 0.481535 0.454630
C19   C     C_R   0.067413 0.507996 0.481163 0.473696
C20   C     C_R   0.820179 0.538197 0.607725 0.295644
C21   C     C_R   0.751043 0.497423 0.620453 0.301960
C22   C     C_R   0.711349 0.476034 0.503285 -0.406888
C23   C     C_R   0.746000 0.448222 0.384318 0.255157
C24   C     C_R   0.815778 0.485243 0.370046 0.298364
F1    F     F_    0.461215 0.117666 0.288176 -0.611291
F2    F     F_    0.551603 0.083105 0.606788 -0.600080
F3    F     F_    0.562583 0.680777 0.864404 -0.514598
F4    F     F_    0.596885 0.624101 0.132855 -0.522637
F5    F     F_    0.139293 0.407942 0.696778 -0.557868
H1    H     H_    0.483686 0.421899 0.899268 0.126383
H2    H     H_    0.936767 0.588745 0.110792 0.419891
H3    H     H_    0.590150 0.063432 0.164328 0.408151
H4    H     H_    0.457379 0.464943 0.101690 0.142303
H5    H     H_    0.375478 0.222056 0.744501 0.408350
H6    H     H_    0.329464 0.823867 0.704076 0.407385
H7    H     H_    0.162427 0.555285 0.000651 0.415705
H8    H     H_    0.375907 0.803955 0.287491 0.396616
H9    H     H_    0.843133 0.695267 0.928915 0.412505
H10   H     H_    0.689246 0.525978 0.956064 0.427382
H11   H     H_    0.681882 0.205298 0.437359 0.382114
N1    N     N_R   0.028842 0.406817 0.510420 -0.039670
N2    N     N_R   0.959893 0.414544 0.510490 -0.096684
N3    N     N_R   0.966207 0.625144 0.453482 -0.025382
N4    N     N_R   0.035276 0.617368 0.453300 -0.078400
N5    N     N_2   0.500750 0.501330 0.852150 -0.238144
N6    N     N_2   0.500770 0.501360 0.147810 -0.234038
O1    O     O_R   0.499990 0.319060 0.613040 -0.584156
O2    O     O_2   0.236598 0.264851 0.790653 -0.131321
O3    O     O_3   0.353202 0.262618 0.665127 -0.533419
O4    O     O_2   0.445810 0.967048 0.727264 -0.183189
O5    O     O_2   0.368680 0.008438 0.533473 -0.248546
O6    O     O_3   0.365982 0.790708 0.645649 -0.506706
O7    O     O_2   0.077617 0.469729 0.198667 -0.242288
O8    O     O_2   0.105723 0.690003 0.198075 -0.200355
O9    O     O_3   0.190688 0.539180 0.082861 -0.418696
O10   O     O_2   0.329095 0.596662 0.161277 -0.232903
O11   O     O_2   0.244762 0.758931 0.210939 -0.168212
O12   O     O_R   0.500010 0.319100 0.386900 -0.577829
O13   O     O_3   0.356342 0.745773 0.354746 -0.538876
O14   O     O_2   0.912350 0.505611 0.810593 -0.207723
O15   O     O_2   0.912241 0.707383 0.696246 -0.245877
O16   O     O_3   0.812424 0.660413 0.858740 -0.420154
O17   O     O_2   0.670751 0.333917 0.756860 -0.243896
O18   O     O_2   0.783323 0.384750 0.855701 -0.148550
O19   O     O_3   0.684909 0.550843 0.860792 -0.429028
O20   O     O_2   0.669949 0.394695 0.164027 -0.214630
O21   O     O_2   0.764308 0.251313 0.224223 -0.146732
O22   O     O_3   0.653043 0.246034 0.366286 -0.543114
O23   O     O_R   0.398130 0.499970 0.613110 -0.557145
O24   O     O_2   0.899014 0.365202 0.202517 -0.183484
O25   O     O_2   0.804167 0.488752 0.100807 -0.176534
O26   O     O_3   0.911115 0.603965 0.194133 -0.508238
O27   O     O_2   0.623821 0.800275 0.339707 -0.205738
O28   O     O_2   0.536727 0.842731 0.161922 -0.197948
O29   O     O_3   0.620788 0.018565 0.229486 -0.416041
O30   O     O_R   0.398150 0.500010 0.386970 -0.578057
O31   O     O_R   0.499990 0.680900 0.613100 -0.523266
O32   O     O_R   0.500010 0.680940 0.386960 -0.583310
O33   O     O_R   0.601850 0.499990 0.613030 -0.554235
O34   O     O_R   0.601870 0.500030 0.386890 -0.523430
O35   O     O_2   0.318302 0.433789 0.830870 -0.246761
S1    S     S_3+6 0.288919 0.349613 0.726473 0.144104
S2    S     S_3+6 0.414831 0.913688 0.602273 0.103204
S3    S     S_3+6 0.135865 0.561928 0.209735 0.146842
S4    S     S_3+6 0.295236 0.666605 0.271321 0.142626
S5    S     S_3+6 0.866916 0.603392 0.745320 0.137464
S6    S     S_3+6 0.722417 0.436494 0.776724 0.160610
S7    S     S_3+6 0.708961 0.333992 0.278619 0.154719
S8    S     S_3+6 0.857395 0.482370 0.211939 0.152437
S9    S     S_3+6 0.574376 0.895152 0.280644 0.160620
Zn1   Zn    Zn3+2 0.499990 0.499970 0.650990 1.166136
Zn2   Zn    Zn3+2 0.500010 0.500030 0.349010 1.167452

loop_
_geom_bond_atom_site_label_1
_geom_bond_atom_site_label_2
_ccdc_geom_bond_type
C8    C9    S    
C21   S6    S    
C2    C18   S    
N1    N2    A    
H1    N5    S    
C3    C6    S    
C24   S8    S    
H3    O29   S    
O8    S3    D    
O35   S1    D    
C10   O32   A    
C15   C19   S    
O16   S5    S    
O21   S7    D    
C7    F2    S    
C3    S9    S    
C17   S4    S    
O27   S9    D    
C18   N2    A    
O20   S7    D    
C5    S2    S    
C6    F1    S    
N6    Zn2   S    
C15   C16   A    
C16   S3    S    
C8    N5    D    
O29   S9    S    
O2    S1    D    
C16   C17   A    
C20   S5    S    
C12   C17   A    
C23   C24   A    
C4    C12   S    
O18   S6    D    
O33   Zn1   S    
C9    N6    D    
C13   C14   A    
H4    N6    S    
H10   O19   S    
C4    O23   A    
C10   O31   A    
O4    S2    D    
O19   S6    S    
C22   C23   A    
C2    C20   A    
C11   O34   A    
O14   S5    D    
C1    O1    A    
O32   Zn2   S    
C13   S1    S    
O3    S1    S    
O34   Zn2   S    
O6    S2    S    
N3    N4    A    
O13   S4    S    
O25   S8    D    
C12   C13   A    
H8    O13   S    
C11   O33   A    
O30   Zn2   S    
H2    O26   S    
C23   S7    S    
O7    S3    D    
C2    C24   A    
O22   S7    S    
O24   S8    D    
C14   F5    S    
O5    S2    D    
C19   N4    A    
O31   Zn1   S    
H5    O3    S    
O17   S6    D    
C1    C7    S    
O1    Zn1   S    
C3    C5    D    
C6    C7    D    
C11   C22   S    
O28   S9    D    
C5    C10   S    
H7    O9    S    
O23   Zn1   S    
C1    O12   A    
O26   S8    S    
O10   S4    D    
O11   S4    D    
N5    Zn1   S    
C4    O30   A    
O15   S5    D    
C20   C21   A    
H11   O22   S    
C18   N3    A    
H6    O6    S    
C8    F3    S    
C14   C15   A    
O9    S3    S    
C21   C22   A    
O12   Zn2   S    
C19   N1    A    
C9    F4    S    
H9    O16   S    
