data_mof_unit_10110.cif
_audit_creation_date              2012-12-11T17:04:51-0500
_audit_creation_method            fapswitch 2.2
_symmetry_space_group_name_H-M    P1
_symmetry_Int_Tables_number       1
_space_group_crystal_system       triclinic
_cell_length_a                    17.384902
_cell_length_b                    24.31802
_cell_length_c                    14.926892
_cell_angle_alpha                 89.98894
_cell_angle_beta                  125.54259
_cell_angle_gamma                 90.127005
_cell_volume                      5134.8051756

loop_
_atom_site_label
_atom_site_type_symbol
_atom_type_description
_atom_site_fract_x
_atom_site_fract_y
_atom_site_fract_z
_atom_type_partial_charge
C1    C     C_R   0.808142 0.622979 0.906394 -0.146228
C2    C     C_R   0.010021 0.502740 0.683844 0.073366
C3    C     C_R   0.769570 0.046791 0.251800 -0.130812
C4    C     C_R   0.812075 0.374675 0.910741 -0.114546
C5    C     C_R   0.185751 0.371881 0.089323 -0.122428
C6    C     C_R   0.348390 0.849759 0.909679 -0.122040
C7    C     C_R   0.650123 0.849368 0.089532 -0.126346
C8    C     C_R   0.900876 0.625890 0.090481 -0.122897
C9    C     C_R   0.098420 0.629692 0.911869 -0.121464
C10   C     C_R   0.441436 0.153279 0.088707 -0.146286
C11   C     C_R   0.560739 0.152226 0.910005 -0.120187
C12   C     C_R   0.810862 0.638273 0.997121 0.066076
C13   C     C_R   0.452840 0.001626 0.277928 0.077846
C14   C     C_R   0.189172 0.639701 0.004980 0.063717
C15   C     C_R   0.379768 0.184110 0.995566 0.073212
C16   C     C_R   0.622612 0.183948 0.002427 0.067931
C17   C     C_2   0.882123 0.332421 0.307686 0.589545
C18   C     C_2   0.083779 0.307897 0.687376 0.536386
C19   C     C_2   0.311995 0.814706 0.167824 0.537494
C20   C     C_2   0.667854 0.812891 0.817501 0.588955
C21   C     C_R   0.438151 0.001600 0.633609 0.066413
C22   C     C_R   0.690972 0.499926 0.640442 0.035389
C23   C     C_R   0.308067 0.499989 0.360637 0.034389
C24   C     C_R   0.179330 0.000346 0.661182 0.043281
C25   C     C_R   0.825056 0.000630 0.279113 0.032795
C26   C     C_3   0.530775 0.454437 0.479818 -0.170906
C27   C     C_3   0.469754 0.499907 0.395782 -0.126845
C28   C     C_3   0.015363 0.954673 0.520547 -0.165418
C29   C     C_R   0.192274 0.622760 0.094664 -0.145601
C30   C     C_3   0.996155 0.955331 0.405654 -0.159703
C31   C     C_3   0.467621 0.454464 0.521536 -0.172414
C32   C     C_3   0.531295 0.545290 0.480182 -0.169304
C33   C     C_3   0.941045 0.999726 0.485203 -0.129203
C34   C     C_3   0.071667 0.000951 0.443794 -0.137083
C35   C     C_3   0.408396 0.499932 0.439089 0.191898
C36   C     C_3   0.590547 0.499816 0.562630 0.190747
C37   C     C_3   0.922899 0.000482 0.371494 0.178627
C38   C     C_3   0.088586 0.000186 0.556616 0.177593
C39   C     C_3   0.468180 0.545320 0.521923 -0.170289
C40   C     C_R   0.351337 0.152004 0.905668 -0.138501
C41   C     C_3   0.529238 0.499853 0.605996 -0.128553
C42   C     C_3   0.996115 0.046092 0.407442 -0.161335
C43   C     C_3   0.015274 0.045239 0.522270 -0.159880
C44   C     C_R   0.762443 0.313329 0.107098 0.012339
C45   C     C_R   0.222199 0.303924 0.887456 0.003635
C46   C     C_R   0.377165 0.741598 0.107007 0.028712
C47   C     C_R   0.618043 0.738529 0.893273 0.033179
C48   C     C_R   0.742865 0.334224 0.008076 0.057073
C49   C     C_R   0.248033 0.327383 0.987583 0.062489
C50   C     C_R   0.355508 0.762310 0.007546 0.037899
C51   C     C_R   0.649924 0.152366 0.093182 -0.150248
C52   C     C_R   0.642578 0.761331 0.992641 0.029451
C53   C     C_R   0.656808 0.318583 0.909485 -0.182931
C54   C     C_R   0.339313 0.317192 0.082933 -0.183294
C55   C     C_R   0.303652 0.728977 0.913064 -0.178671
C56   C     C_R   0.697898 0.729555 0.088954 -0.174099
C57   C     C_R   0.904458 0.377206 0.094710 -0.155477
C58   C     C_R   0.090183 0.370489 0.905662 -0.146786
C59   C     C_R   0.443572 0.849662 0.093049 -0.169521
C60   C     C_R   0.556143 0.849729 0.906313 -0.082127
C61   C     C_R   0.257701 0.682104 0.914727 -0.202603
C62   C     C_R   0.815791 0.362026 0.004364 0.056981
C63   C     C_R   0.744633 0.682846 0.088472 -0.206369
C64   C     C_R   0.608149 0.272264 0.908109 -0.204677
C65   C     C_R   0.392092 0.273724 0.083646 -0.207274
C66   C     C_R   0.265081 0.668839 0.011230 0.056590
C67   C     C_R   0.735392 0.667967 0.991554 0.048057
C68   C     C_R   0.645076 0.242215 0.005603 0.060589
C69   C     C_R   0.352908 0.241106 0.988902 0.061920
C70   C     C_R   0.336628 0.693912 0.110235 0.121288
C71   C     C_R   0.661616 0.691696 0.892065 0.163058
C72   C     C_R   0.714219 0.267631 0.105296 0.150164
C73   C     C_R   0.178324 0.355602 0.995069 0.053536
C74   C     C_R   0.273972 0.260630 0.889334 0.145808
C75   C     C_3   0.338339 0.714194 0.206570 -0.520630
C76   C     C_3   0.655177 0.710813 0.792035 -0.627537
C77   C     C_3   0.799218 0.244853 0.209282 -0.602213
C78   C     C_3   0.188263 0.230114 0.799507 -0.599205
C79   C     C_3   0.852492 0.294916 0.212425 -0.239873
C80   C     C_3   0.130854 0.277633 0.794918 -0.223693
C81   C     C_3   0.379736 0.767564 0.200226 -0.222556
C82   C     C_3   0.608210 0.762514 0.794263 -0.234501
C83   C     C_R   0.074788 0.555323 0.600075 0.156232
C84   C     C_R   0.378416 0.818886 0.002340 0.048317
C85   C     C_R   0.096610 0.556167 0.525224 0.157201
C86   C     C_R   0.397024 0.052913 0.467567 0.155986
C87   C     C_R   0.400449 0.053158 0.377560 0.169351
C88   C     C_R   0.059848 0.505111 0.633160 0.031187
C89   C     C_R   0.104289 0.506399 0.483446 0.011057
C90   C     C_R   0.401073 0.003190 0.517345 0.008377
C91   C     C_R   0.407229 0.003552 0.334721 0.008104
C92   C     C_R   0.095658 0.457258 0.617446 -0.169186
C93   C     C_R   0.118845 0.457896 0.542461 -0.177416
C94   C     C_R   0.382380 0.954349 0.457286 -0.169205
C95   C     C_R   0.620523 0.818505 0.996785 0.032104
C96   C     C_R   0.385512 0.954613 0.365816 -0.160297
C97   C     C_3   0.036140 0.606160 0.469416 -0.514702
C98   C     C_3   0.013762 0.605213 0.552683 -0.524132
C99   C     C_3   0.460977 0.103888 0.417280 -0.518697
C100  C     C_3   0.456523 0.103678 0.515042 -0.509982
C101  C     C_R   0.054207 0.547496 0.304423 -0.163437
C102  C     C_R   0.990430 0.547548 0.722939 -0.139508
C103  C     C_R   0.480064 0.047076 0.246977 -0.143311
C104  C     C_R   0.452194 0.046917 0.697243 -0.146153
C105  C     C_R   0.740616 0.454492 0.699999 -0.140176
C106  C     C_R   0.071201 0.503061 0.369554 0.092656
C107  C     C_R   0.258786 0.454540 0.300285 -0.147618
C108  C     C_R   0.233706 0.954242 0.711701 -0.143475
C109  C     C_R   0.768812 0.954585 0.251233 -0.129509
C110  C     C_R   0.053549 0.456328 0.307325 -0.122426
C111  C     C_R   0.989959 0.456128 0.719974 -0.147427
C112  C     C_R   0.483704 0.955063 0.252836 -0.120533
C113  C     C_R   0.452939 0.955327 0.696086 -0.057416
C114  C     C_R   0.740647 0.545925 0.697804 -0.151490
C115  C     C_R   0.258899 0.545935 0.302972 -0.150352
C116  C     C_R   0.233138 0.046780 0.711107 -0.140966
H1    H     H_    0.748385 0.624016 0.821848 0.116186
H2    H     H_    0.557138 0.499828 0.694437 0.116870
H3    H     H_    0.985793 0.083148 0.358165 0.116208
H4    H     H_    0.024953 0.081710 0.572645 0.119719
H5    H     H_    0.633492 0.336944 0.831551 0.119499
H6    H     H_    0.365131 0.337862 0.159782 0.120680
H7    H     H_    0.289940 0.741866 0.835659 0.119727
H8    H     H_    0.713731 0.743572 0.166762 0.121568
H9    H     H_    0.208271 0.660732 0.838104 0.123929
H10   H     H_    0.795898 0.662951 0.166045 0.126040
H11   H     H_    0.549395 0.256838 0.829332 0.120807
H12   H     H_    0.252352 0.623092 0.179178 0.111526
H13   H     H_    0.456653 0.261883 0.160987 0.123328
H14   H     H_    0.388957 0.690512 0.282710 0.179349
H15   H     H_    0.606538 0.684606 0.718932 0.198420
H16   H     H_    0.825271 0.206134 0.195989 0.203965
H17   H     H_    0.174564 0.191654 0.828522 0.209197
H18   H     H_    0.266925 0.718759 0.188554 0.209700
H19   H     H_    0.725210 0.718319 0.807657 0.193442
H20   H     H_    0.789515 0.242977 0.276640 0.189538
H21   H     H_    0.187570 0.224996 0.724927 0.180680
H22   H     H_    0.910043 0.283882 0.203894 0.166575
H23   H     H_    0.317995 0.165487 0.821888 0.099745
H24   H     H_    0.082615 0.265628 0.817913 0.170487
H25   H     H_    0.452549 0.775588 0.274404 0.136200
H26   H     H_    0.533293 0.766216 0.721685 0.158726
H27   H     H_    0.096170 0.418627 0.653150 0.131660
H28   H     H_    0.133648 0.419188 0.519746 0.151914
H29   H     H_    0.377500 0.915112 0.487737 0.143447
H30   H     H_    0.383956 0.915689 0.330247 0.177581
H31   H     H_    0.971977 0.598347 0.384808 0.199433
H32   H     H_    0.044283 0.640853 0.610097 0.185535
H33   H     H_    0.424027 0.139648 0.361946 0.190717
H34   H     H_    0.683247 0.166627 0.176487 0.105291
H35   H     H_    0.526674 0.096264 0.593900 0.207880
H36   H     H_    0.930967 0.376035 0.179942 0.130070
H37   H     H_    0.059404 0.361833 0.821584 0.119285
H38   H     H_    0.492045 0.835169 0.176526 0.093720
H39   H     H_    0.507618 0.835639 0.822459 0.094536
H40   H     H_    0.078470 0.642705 0.477890 0.188624
H41   H     H_    0.937867 0.596517 0.515001 0.200227
H42   H     H_    0.533874 0.096505 0.441511 0.202731
H43   H     H_    0.416440 0.139104 0.515508 0.185733
H44   H     H_    0.077287 0.589330 0.330957 0.105052
H45   H     H_    0.559202 0.417823 0.463887 0.112003
H46   H     H_    0.985940 0.589729 0.700096 0.097087
H47   H     H_    0.464406 0.089595 0.249276 0.111546
H48   H     H_    0.431569 0.088804 0.669707 0.100461
H49   H     H_    0.723314 0.412014 0.674430 0.095463
H50   H     H_    0.275795 0.412037 0.325381 0.091431
H51   H     H_    0.216177 0.912019 0.684051 0.094087
H52   H     H_    0.791416 0.912222 0.269968 0.098838
H53   H     H_    0.072541 0.414609 0.337186 0.126252
H54   H     H_    0.983457 0.415023 0.689913 0.140360
H55   H     H_    0.474248 0.912536 0.265181 0.094852
H56   H     H_    0.441917 0.499953 0.307358 0.117125
H57   H     H_    0.435970 0.913209 0.667917 0.096527
H58   H     H_    0.723634 0.588046 0.669717 0.093175
H59   H     H_    0.275777 0.588048 0.331473 0.092894
H60   H     H_    0.215303 0.088916 0.683230 0.095830
H61   H     H_    0.792614 0.089173 0.270535 0.102072
H62   H     H_    0.753525 0.368219 0.826155 0.090327
H63   H     H_    0.244831 0.365740 0.173816 0.091149
H64   H     H_    0.306978 0.835782 0.825184 0.083178
H65   H     H_    0.689787 0.834989 0.173589 0.086028
H66   H     H_    0.927584 0.631972 0.175633 0.093604
H67   H     H_    0.025136 0.917588 0.569518 0.113726
H68   H     H_    0.070747 0.643259 0.829956 0.086527
H69   H     H_    0.486924 0.168301 0.172338 0.087454
H70   H     H_    0.515806 0.166144 0.825651 0.082662
H71   H     H_    0.438714 0.417885 0.537150 0.109204
H72   H     H_    0.560040 0.581907 0.464442 0.110680
H73   H     H_    0.885361 0.999248 0.499976 0.120462
H74   H     H_    0.128481 0.001428 0.430939 0.118199
H75   H     H_    0.829743 0.349318 0.317653 0.022871
H76   H     H_    0.125582 0.323639 0.660277 0.026943
H77   H     H_    0.279298 0.835322 0.089303 0.024787
H78   H     H_    0.985855 0.918925 0.354877 0.116813
H79   H     H_    0.740497 0.814675 0.890065 0.013828
H80   H     H_    0.439828 0.581953 0.537917 0.110638
N1    N     N_R   0.892620 0.603790 0.941770 -0.042706
N2    N     N_R   0.973690 0.529110 0.793240 -0.037282
N3    N     N_R   0.526310 0.029110 0.206760 -0.043396
N4    N     N_R   0.473690 0.029110 0.793240 -0.041480
N5    N     N_R   0.818570 0.472310 0.793020 -0.037568
N6    N     N_R   0.181430 0.472310 0.206980 -0.035843
N7    N     N_R   0.318570 0.972310 0.793020 -0.040234
N8    N     N_R   0.681430 0.972310 0.206980 -0.041727
N9    N     N_R   0.026930 0.472300 0.207330 -0.044022
N10   N     N_R   0.973070 0.472300 0.792670 -0.037718
N11   N     N_R   0.526930 0.972300 0.207330 -0.042961
N12   N     N_R   0.107380 0.603790 0.058230 -0.041103
N13   N     N_R   0.473070 0.972300 0.792670 -0.045949
N14   N     N_R   0.817960 0.529130 0.792460 -0.037888
N15   N     N_R   0.182040 0.529130 0.207540 -0.035709
N16   N     N_R   0.317960 0.029130 0.792460 -0.038141
N17   N     N_R   0.682040 0.029130 0.207540 -0.041717
N18   N     N_R   0.894850 0.397640 0.943830 -0.041123
N19   N     N_R   0.105150 0.397640 0.056170 -0.041120
N20   N     N_R   0.394850 0.897640 0.943830 -0.038400
N21   N     N_R   0.605150 0.897640 0.056170 -0.038085
N22   N     N_R   0.950040 0.603780 0.055950 -0.041348
N23   N     N_R   0.392620 0.103790 0.941770 -0.038038
N24   N     N_R   0.049960 0.603780 0.944050 -0.041296
N25   N     N_R   0.450040 0.103780 0.055950 -0.037798
N26   N     N_R   0.549960 0.103780 0.944050 -0.037293
N27   N     N_R   0.607380 0.103790 0.058230 -0.037024
N28   N     N_R   0.952270 0.397640 0.058010 -0.041721
N29   N     N_R   0.047730 0.397640 0.941990 -0.039003
N30   N     N_R   0.452270 0.897640 0.058010 -0.035443
N31   N     N_R   0.547730 0.897640 0.941990 -0.040714
N32   N     N_R   0.026310 0.529110 0.206760 -0.037992
Ni1   Ni    Ni4+2 0.934160 0.565860 0.869070 0.212283
Ni2   Ni    Ni4+2 0.065840 0.565860 0.130930 0.210580
Ni3   Ni    Ni4+2 0.434160 0.065860 0.869070 0.204862
Ni4   Ni    Ni4+2 0.565840 0.065860 0.130930 0.208488
Ni5   Ni    Ni4+2 0.067260 0.435560 0.132230 0.213059
Ni6   Ni    Ni4+2 0.932740 0.435560 0.867770 0.227257
Ni7   Ni    Ni4+2 0.567260 0.935560 0.132230 0.210772
Ni8   Ni    Ni4+2 0.432740 0.935560 0.867770 0.210324
O1    O     O_2   0.965425 0.343679 0.375069 -0.612813
O2    O     O_2   0.998102 0.313592 0.628545 -0.596323
O3    O     O_2   0.292107 0.829638 0.230056 -0.602354
O4    O     O_2   0.634818 0.851994 0.754683 -0.597962

loop_
_geom_bond_atom_site_label_1
_geom_bond_atom_site_label_2
_ccdc_geom_bond_type
N12   N24   A    
C44   C48   A    
C34   H74   S    
C57   H36   S    
C45   C80   S    
N15   Ni2   S    
C87   C91   A    
N2    N10   A    
C11   H70   S    
C104  N4    A    
C34   C42   S    
C16   C51   A    
N6    N15   A    
N28   Ni5   S    
N21   Ni7   S    
N32   Ni2   S    
C97   C98   S    
C75   H18   S    
N11   Ni7   S    
C57   C62   A    
C39   C41   S    
C54   C65   A    
C30   H78   S    
C17   H75   S    
N31   Ni8   S    
C99   H33   S    
C18   H76   S    
C26   C27   S    
C29   N12   A    
N24   Ni1   S    
N9    N32   A    
C101  N32   A    
N7    Ni8   S    
N29   Ni6   S    
C56   H8    S    
C109  H52   S    
C28   H67   S    
N8    Ni7   S    
C20   C82   S    
C10   C15   A    
C102  N2    A    
C71   C76   S    
C76   H15   S    
C78   C80   S    
C42   H3    S    
C97   H40   S    
C112  H55   S    
C60   H39   S    
C2    C102  A    
C49   C54   A    
C5    N19   A    
C40   H23   S    
C4    C62   A    
C17   C79   S    
C10   H69   S    
C52   C95   S    
C33   H73   S    
C32   C39   S    
C37   C42   S    
C92   H27   S    
C59   N30   A    
N22   Ni2   S    
C115  H59   S    
C10   N25   A    
C25   C37   S    
C91   C96   A    
C21   C104  A    
C105  N5    A    
C61   C66   A    
C76   H19   S    
C5    H63   S    
C88   C92   A    
C101  H44   S    
C51   N27   A    
C28   C30   S    
C83   C98   S    
N19   Ni5   S    
C89   C106  S    
C24   C38   S    
C2    C88   S    
C16   C68   S    
N4    Ni3   S    
C45   C49   A    
C41   H2    S    
C13   C103  A    
C86   C100  S    
C20   H79   S    
C67   C71   A    
C4    H62   S    
C75   H14   S    
C8    C12   A    
C43   H4    S    
C94   H29   S    
C81   H25   S    
C83   C88   A    
C54   H6    S    
C107  H50   S    
C26   C31   S    
C13   C91   S    
C5    C73   A    
C77   H20   S    
C97   H31   S    
C36   C41   S    
N18   Ni6   S    
C1    C12   A    
C11   N26   A    
C59   H38   S    
C90   C94   A    
C114  H58   S    
C87   C99   S    
C21   C90   S    
C77   C79   S    
C100  H35   S    
C48   C53   A    
C15   C69   S    
C12   C67   S    
C63   C67   A    
C2    C111  A    
N2    Ni1   S    
C4    N18   A    
C30   C34   S    
C50   C84   S    
C33   C43   S    
C3    C25   A    
C7    H65   S    
C6    C84   A    
C59   C84   A    
C51   H34   S    
C107  N6    A    
C21   C113  A    
C86   C90   A    
C76   C82   S    
N16   Ni3   S    
C32   H72   S    
C86   C87   A    
C75   C81   S    
C103  N3    A    
C27   C35   S    
C80   H24   S    
N8    N17   A    
C8    N22   A    
C33   C37   S    
N30   Ni7   S    
C30   C37   S    
C45   C74   A    
N19   N29   A    
C77   H16   S    
C35   C39   S    
C9    C14   A    
C110  H53   S    
C104  H48   S    
C72   C77   S    
C58   H37   S    
C19   O3    D    
N23   N25   A    
C46   C81   S    
C11   C16   A    
C48   C62   S    
C99   C100  S    
C98   H41   S    
C28   C38   S    
C68   C72   A    
C64   H11   S    
C23   C107  A    
N3    N11   A    
C14   C66   S    
C56   C63   A    
C69   C74   A    
C1    H1    S    
C13   C112  A    
C94   C96   A    
N1    Ni1   S    
C58   N29   A    
C111  N10   A    
C47   C71   A    
N17   Ni4   S    
N18   N28   A    
N21   N31   A    
C24   C108  A    
C9    N24   A    
C26   C36   S    
C83   C85   A    
C108  H51   S    
N26   Ni3   S    
C19   H77   S    
C23   C35   S    
C40   N23   A    
N20   Ni8   S    
C49   C73   S    
N7    N16   A    
C99   H42   S    
C3    N17   A    
C42   C43   S    
C14   C29   A    
N1    N22   A    
C78   H21   S    
C64   C68   A    
N5    N14   A    
C70   C75   S    
C7    C95   A    
C102  H46   S    
C113  H57   S    
C106  C110  A    
C8    H66   S    
C101  C106  A    
C61   H9    S    
C85   C89   A    
C31   C41   S    
C6    H64   S    
C27   C32   S    
C34   C38   S    
C47   C82   S    
C44   C79   S    
C1    N1    A    
N4    N13   A    
C112  N11   A    
N23   Ni3   S    
C55   H7    S    
N3    Ni4   S    
C28   C33   S    
C65   H13   S    
C32   C36   S    
C24   C116  A    
C47   C52   A    
C25   C109  A    
C108  N7    A    
C22   C105  A    
C22   C36   S    
C39   H80   S    
C46   C50   A    
C26   H45   S    
C103  H47   S    
C50   C55   A    
C115  N15   A    
N10   Ni6   S    
C111  H54   S    
C114  N14   A    
N9    Ni5   S    
C3    H61   S    
N13   Ni8   S    
C113  N13   A    
C38   C43   S    
C116  N16   A    
C9    H68   S    
C20   O4    D    
N6    Ni5   S    
C100  H43   S    
N5    Ni6   S    
C66   C70   A    
C98   H32   S    
C65   C69   A    
C55   C61   A    
N25   Ni4   S    
C93   H28   S    
C92   C93   A    
C53   C64   A    
N14   Ni1   S    
C105  H49   S    
C44   C72   A    
C110  N9    A    
C31   C35   S    
C60   N31   A    
C89   C93   A    
N26   N27   A    
C78   H17   S    
N20   N30   A    
C15   C40   A    
C46   C70   A    
C63   H10   S    
C85   C97   S    
C23   C115  A    
C82   H26   S    
C7    N21   A    
C60   C95   A    
C52   C56   A    
N27   Ni4   S    
C22   C114  A    
C79   H22   S    
C6    N20   A    
C18   C80   S    
C74   C78   S    
C29   H12   S    
C31   H71   S    
C96   H30   S    
C116  H60   S    
C53   H5    S    
C19   C81   S    
C27   H56   S    
C109  N8    A    
C18   O2    D    
C58   C73   A    
N12   Ni2   S    
C57   N28   A    
C17   O1    D    
