data_mof_unit_25593.cif
_audit_creation_date              2012-12-11T14:40:18-0500
_audit_creation_method            fapswitch 2.2
_symmetry_space_group_name_H-M    P1
_symmetry_Int_Tables_number       1
_space_group_crystal_system       triclinic
_cell_length_a                    19.48528
_cell_length_b                    11.124583
_cell_length_c                    19.366175
_cell_angle_alpha                 89.774802
_cell_angle_beta                  97.63131
_cell_angle_gamma                 89.944151
_cell_volume                      4160.70345987

loop_
_atom_site_label
_atom_site_type_symbol
_atom_type_description
_atom_site_fract_x
_atom_site_fract_y
_atom_site_fract_z
_atom_type_partial_charge
C1    C     C_R   0.728886 0.943303 0.355879 0.543704
C2    C     C_3   0.271804 0.333253 0.557648 0.018567
C3    C     C_3   0.887627 0.086231 0.455377 -0.283310
C4    C     C_3   0.919299 0.429680 0.504930 -0.328490
C5    C     C_3   0.090581 0.464439 0.524741 -0.319857
C6    C     C_3   0.408794 0.721450 0.536289 -0.302826
C7    C     C_3   0.583841 0.750261 0.468848 -0.295661
C8    C     C_3   0.817682 0.166398 0.653898 -0.289552
C9    C     C_3   0.162841 0.173016 0.353045 -0.272883
C10   C     C_3   0.191951 0.677785 0.644772 -0.286488
C11   C     C_3   0.793590 0.634987 0.360242 -0.266823
C12   C     C_3   0.231119 0.833077 0.441628 -0.004384
C13   C     C_3   0.771309 0.822784 0.556002 -0.007383
C14   C     C_3   0.690215 0.436596 0.474748 -0.096621
C15   C     C_3   0.308095 0.439427 0.525526 -0.128294
C16   C     C_3   0.240256 0.964723 0.464458 -0.100402
C17   C     C_3   0.774222 0.952156 0.528953 -0.141718
C18   C     C_3   0.760476 0.476122 0.515557 -0.098905
C19   C     C_3   0.236449 0.478132 0.486819 -0.122901
C20   C     C_3   0.301914 0.926615 0.518454 -0.130411
C21   C     C_R   0.273265 0.950249 0.640625 0.535658
C22   C     C_3   0.707403 0.928279 0.478616 -0.136695
C23   C     C_3   0.797674 0.371362 0.485970 0.167629
C24   C     C_3   0.202032 0.371157 0.517937 0.181201
C25   C     C_3   0.292199 0.796143 0.495987 0.156616
C26   C     C_3   0.705839 0.798822 0.503810 0.162911
C27   C     C_3   0.784483 0.290301 0.546453 0.132088
C28   C     C_3   0.213574 0.290556 0.457642 0.149081
C29   C     C_3   0.242244 0.774237 0.549274 0.107675
C30   C     C_3   0.750056 0.759128 0.448466 0.114909
C31   C     C_3   0.747769 0.394205 0.576664 0.039314
C32   C     C_R   0.227709 0.445771 0.357274 0.553467
C33   C     C_3   0.248194 0.396203 0.425572 0.050333
C34   C     C_3   0.251165 0.904567 0.572052 0.041674
C35   C     C_3   0.752603 0.888370 0.422901 0.064325
C36   C     C_3   0.529482 0.268787 0.976314 -0.111861
C37   C     C_3   0.471154 0.269788 0.022948 -0.111151
C38   C     C_3   0.029483 0.768778 0.976315 -0.112114
C39   C     C_3   0.971154 0.769785 0.022948 -0.111716
C40   C     C_3   0.567846 0.169079 0.021564 -0.109412
C41   C     C_3   0.432264 0.170374 0.978485 -0.108520
C42   C     C_3   0.067843 0.669067 0.021565 -0.108729
C43   C     C_R   0.771097 0.444244 0.644170 0.533703
C44   C     C_3   0.932262 0.670374 0.978485 -0.108209
C45   C     C_3   0.509134 0.170727 0.067506 0.054623
C46   C     C_3   0.490964 0.170009 0.932520 0.054537
C47   C     C_3   0.009131 0.670723 0.067507 0.055100
C48   C     C_3   0.990962 0.670003 0.932520 0.054970
C49   C     C_R   0.536820 0.179819 0.338600 0.535047
C50   C     C_R   0.464443 0.180047 0.662296 0.526287
C51   C     C_R   0.034666 0.680898 0.337174 0.535146
C52   C     C_R   0.964701 0.681314 0.662349 0.531148
C53   C     C_3   0.470831 0.071025 0.024202 -0.117391
C54   C     C_3   0.715226 0.247457 0.505064 -0.150214
C55   C     C_3   0.528752 0.070031 0.976618 -0.117602
C56   C     C_3   0.970825 0.571023 0.024203 -0.117905
C57   C     C_3   0.028746 0.570022 0.976618 -0.117784
C58   C     C_1   0.756605 0.408973 0.899091 -0.006343
C59   C     C_1   0.243366 0.409957 0.100813 -0.004761
C60   C     C_1   0.256588 0.908938 0.899078 -0.007578
C61   C     C_1   0.743380 0.909935 0.100821 -0.006355
C62   C     C_1   0.733042 0.358982 0.025222 -0.050425
C63   C     C_1   0.266516 0.359912 0.974656 -0.049947
C64   C     C_1   0.233021 0.858934 0.025209 -0.049974
C65   C     C_3   0.284149 0.248845 0.496733 -0.139979
C66   C     C_1   0.766533 0.859876 0.974664 -0.050084
C67   C     C_1   0.743685 0.383009 0.956206 -0.043768
C68   C     C_1   0.256090 0.384138 0.043675 -0.043132
C69   C     C_1   0.243663 0.882963 0.956190 -0.043623
C70   C     C_1   0.756109 0.884105 0.043685 -0.043434
C71   C     C_1   0.726835 0.338967 0.085065 -0.013612
C72   C     C_1   0.272702 0.339585 0.914888 -0.013286
C73   C     C_1   0.226820 0.838927 0.085056 -0.013274
C74   C     C_1   0.772714 0.839557 0.914894 -0.013220
C75   C     C_R   0.723801 0.307446 0.367933 0.566546
C76   C     C_3   0.179511 0.809108 0.494663 -0.146215
C77   C     C_R   0.276612 0.307082 0.632730 0.583167
C78   C     C_R   0.223911 0.806706 0.367213 0.560886
C79   C     C_R   0.776547 0.805226 0.632758 0.570692
C80   C     C_R   0.722926 0.951203 0.164764 0.535220
C81   C     C_R   0.277057 0.950814 0.835173 0.534714
C82   C     C_R   0.222922 0.451208 0.164764 0.538786
C83   C     C_R   0.777065 0.450831 0.835182 0.534366
C84   C     C_R   0.530083 0.178964 0.141298 0.539320
C85   C     C_R   0.469968 0.178620 0.858700 0.537426
C86   C     C_R   0.030082 0.678963 0.141299 0.538140
C87   C     C_3   0.816873 0.778475 0.500814 -0.144220
C88   C     C_R   0.969968 0.678619 0.858699 0.537560
C89   C     C_R   0.721753 0.310714 0.156159 0.560323
C90   C     C_R   0.278081 0.310977 0.843957 0.559808
C91   C     C_R   0.221748 0.810697 0.156158 0.561434
C92   C     C_R   0.778085 0.810965 0.843957 0.561788
C93   C     C_1   0.486999 0.170274 0.595781 -0.014768
C94   C     C_1   0.518106 0.169247 0.406765 -0.024411
C95   C     C_1   0.985807 0.680008 0.594843 -0.042235
C96   C     C_1   0.011456 0.678290 0.403718 -0.027109
C97   C     C_1   0.508714 0.163131 0.466568 -0.044022
C98   C     C_3   0.728850 0.332412 0.443805 0.005321
C99   C     C_1   0.498603 0.163799 0.536722 -0.026548
C100  C     C_1   0.001162 0.682952 0.463343 -0.103634
C101  C     C_1   0.994683 0.683998 0.534732 -0.112165
C102  C     C_3   0.679177 0.354496 0.536500 0.103890
C103  C     C_3   0.318039 0.357319 0.463569 0.096575
C104  C     C_3   0.190246 0.941191 0.518058 0.144992
C105  C     C_3   0.818047 0.908740 0.473782 0.137426
C106  C     C_3   0.581119 0.449685 0.582188 -0.310956
C107  C     C_3   0.432688 0.430103 0.441984 -0.292137
C108  C     C_3   0.071045 0.009173 0.486905 -0.301486
Cr1   Cr    Cr6+3 0.765830 0.160660 0.268180 1.002965
Cr2   Cr    Cr6+3 0.384070 0.324050 0.751550 1.008273
Cr3   Cr    Cr6+3 0.115930 0.824050 0.248450 0.997959
Cr4   Cr    Cr6+3 0.884070 0.824050 0.751550 1.001008
Cr5   Cr    Cr6+3 0.234170 0.160660 0.731820 1.006574
Cr6   Cr    Cr6+3 0.265830 0.660660 0.268180 1.023604
Cr7   Cr    Cr6+3 0.734170 0.660660 0.731820 1.004141
Cr8   Cr    Cr6+3 0.612110 0.009150 0.248770 1.010862
Cr9   Cr    Cr6+3 0.387890 0.009150 0.751230 1.011399
Cr10  Cr    Cr6+3 0.112110 0.509150 0.248770 0.995537
Cr11  Cr    Cr6+3 0.887890 0.509150 0.751230 0.994652
Cr12  Cr    Cr6+3 0.615930 0.324050 0.248450 1.012641
H1    H     H_    0.691029 0.158778 0.501808 0.102278
H2    H     H_    0.659577 0.983072 0.468372 0.116742
H3    H     H_    0.781392 0.566445 0.525612 0.125808
H4    H     H_    0.214942 0.569411 0.477335 0.125569
H5    H     H_    0.623936 0.166617 0.041333 0.106143
H6    H     H_    0.376171 0.168793 0.958744 0.106127
H7    H     H_    0.123933 0.666595 0.041334 0.105954
H8    H     H_    0.876169 0.668793 0.958743 0.106361
H9    H     H_    0.554380 0.348363 0.955429 0.132195
H10   H     H_    0.446709 0.350210 0.043203 0.132941
H11   H     H_    0.054384 0.848351 0.955430 0.131492
H12   H     H_    0.310897 0.161961 0.504386 0.091079
H13   H     H_    0.946712 0.850210 0.043203 0.131867
H14   H     H_    0.446236 0.991652 0.045620 0.128909
H15   H     H_    0.552903 0.989804 0.955847 0.128656
H16   H     H_    0.946228 0.491654 0.045622 0.127507
H17   H     H_    0.052894 0.489793 0.955846 0.127721
H18   H     H_    0.623248 0.282046 0.610280 0.250809
H19   H     H_    0.533035 0.427346 0.604344 0.155693
H20   H     H_    0.566617 0.500460 0.533127 0.132456
H21   H     H_    0.613840 0.505921 0.620446 0.168460
H22   H     H_    0.389084 0.260168 0.413753 0.255383
H23   H     H_    0.130378 0.759611 0.483906 0.109727
H24   H     H_    0.476029 0.407079 0.412710 0.167091
H25   H     H_    0.451161 0.426410 0.498535 0.144201
H26   H     H_    0.415670 0.521989 0.425892 0.159731
H27   H     H_    0.128150 0.024101 0.583811 0.262472
H28   H     H_    0.037932 0.088584 0.492805 0.125045
H29   H     H_    0.044111 0.927129 0.501544 0.143598
H30   H     H_    0.079755 0.002435 0.431632 0.182068
H31   H     H_    0.925264 0.913302 0.475503 0.253861
H32   H     H_    0.920628 0.114712 0.415785 0.131878
H33   H     H_    0.912605 0.115013 0.507395 0.142596
H34   H     H_    0.861002 0.715820 0.509902 0.110531
H35   H     H_    0.836125 0.129240 0.443472 0.196506
H36   H     H_    0.877203 0.316806 0.428703 0.269475
H37   H     H_    0.954181 0.473571 0.472764 0.159287
H38   H     H_    0.948009 0.353888 0.532563 0.116538
H39   H     H_    0.902380 0.494405 0.542643 0.177803
H40   H     H_    0.116745 0.288812 0.553107 0.270287
H41   H     H_    0.049930 0.465133 0.559377 0.152322
H42   H     H_    0.068960 0.447006 0.469746 0.141967
H43   H     H_    0.115995 0.553339 0.528923 0.176273
H44   H     H_    0.334770 0.639620 0.461866 0.262849
H45   H     H_    0.650098 0.494776 0.445458 0.137494
H46   H     H_    0.438617 0.805847 0.533331 0.167430
H47   H     H_    0.442938 0.644271 0.529034 0.104679
H48   H     H_    0.392789 0.713471 0.588904 0.150870
H49   H     H_    0.654167 0.652337 0.538136 0.254917
H50   H     H_    0.541227 0.695874 0.484818 0.119530
H51   H     H_    0.594526 0.717548 0.417394 0.142233
H52   H     H_    0.566441 0.845321 0.464379 0.168555
H53   H     H_    0.885148 0.252763 0.596177 0.265844
H54   H     H_    0.847823 0.083005 0.665317 0.178004
H55   H     H_    0.761313 0.147193 0.649987 0.146010
H56   H     H_    0.348110 0.495920 0.555644 0.130817
H57   H     H_    0.833005 0.223996 0.699611 0.175293
H58   H     H_    0.108917 0.244325 0.429197 0.254775
H59   H     H_    0.145197 0.078935 0.349028 0.165805
H60   H     H_    0.216576 0.178869 0.339919 0.151425
H61   H     H_    0.126802 0.222849 0.313942 0.163321
H62   H     H_    0.292089 0.653817 0.622609 0.264748
H63   H     H_    0.188123 0.587729 0.668859 0.189909
H64   H     H_    0.140395 0.702242 0.616759 0.146789
H65   H     H_    0.206842 0.744262 0.686698 0.141332
H66   H     H_    0.690367 0.663292 0.370254 0.258614
H67   H     H_    0.245747 0.037692 0.427521 0.149415
H68   H     H_    0.780833 0.554392 0.327499 0.196044
H69   H     H_    0.842472 0.616747 0.395085 0.180211
H70   H     H_    0.801101 0.712496 0.325689 0.134769
H71   H     H_    0.780117 0.032424 0.559151 0.169877
H72   H     H_    0.352850 0.972386 0.528929 0.116579
N1    N     N_2   0.616711 0.340294 0.568380 -0.510704
N2    N     N_2   0.158054 0.216095 0.422852 -0.504099
N3    N     N_2   0.243540 0.674166 0.597588 -0.522563
N4    N     N_2   0.737854 0.659397 0.400636 -0.527506
N5    N     N_2   0.376369 0.346889 0.425112 -0.512652
N6    N     N_2   0.135621 0.022157 0.532180 -0.490115
N7    N     N_2   0.881194 0.957738 0.453971 -0.506422
N8    N     N_2   0.862170 0.386281 0.457820 -0.512301
N9    N     N_2   0.138811 0.372335 0.548977 -0.480436
N10   N     N_2   0.349534 0.721625 0.482589 -0.497472
N11   N     N_2   0.644383 0.738632 0.520399 -0.489970
N12   N     N_2   0.836068 0.217590 0.589482 -0.543169
O1    O     O_R   0.783230 0.287800 0.346510 -0.528611
O2    O     O_R   0.454570 0.285140 0.836900 -0.520323
O3    O     O_R   0.045430 0.785140 0.163100 -0.520583
O4    O     O_R   0.954570 0.785140 0.836900 -0.521347
O5    O     O_R   0.677850 0.374730 0.185500 -0.483464
O6    O     O_R   0.322150 0.374730 0.814500 -0.480918
O7    O     O_R   0.177850 0.874730 0.185500 -0.483226
O8    O     O_R   0.822150 0.874730 0.814500 -0.485476
O9    O     O_3   0.664630 0.164620 0.255130 -0.299700
O10   O     O_3   0.335370 0.164620 0.744870 -0.301580
O11   O     O_3   0.164630 0.664620 0.255130 -0.300213
O12   O     O_R   0.216770 0.287800 0.653490 -0.482894
O13   O     O_3   0.835370 0.664620 0.744870 -0.296772
O14   O     O_R   0.760130 0.037060 0.338610 -0.512075
O15   O     O_R   0.239870 0.037060 0.661390 -0.530251
O16   O     O_R   0.260130 0.537060 0.338610 -0.516906
O17   O     O_R   0.739870 0.537060 0.661390 -0.540060
O18   O     O_R   0.666620 0.921370 0.332440 -0.527819
O19   O     O_R   0.333380 0.921370 0.667560 -0.520408
O20   O     O_R   0.166620 0.421370 0.332440 -0.526199
O21   O     O_R   0.833380 0.421370 0.667560 -0.523024
O22   O     O_R   0.557170 0.082420 0.312350 -0.494993
O23   O     O_R   0.283230 0.787800 0.346510 -0.484245
O24   O     O_R   0.442830 0.082420 0.687650 -0.495484
O25   O     O_R   0.057170 0.582420 0.312350 -0.498289
O26   O     O_R   0.942830 0.582420 0.687650 -0.500331
O27   O     O_R   0.548310 0.285980 0.316250 -0.521692
O28   O     O_R   0.451690 0.285980 0.683750 -0.529342
O29   O     O_R   0.048310 0.785980 0.316250 -0.520951
O30   O     O_R   0.951690 0.785980 0.683750 -0.515102
O31   O     O_R   0.680520 0.375500 0.327470 -0.494704
O32   O     O_R   0.319480 0.375500 0.672530 -0.500343
O33   O     O_R   0.180520 0.875500 0.327470 -0.516257
O34   O     O_R   0.716770 0.787800 0.653490 -0.482876
O35   O     O_R   0.819480 0.875500 0.672530 -0.511703
O36   O     O_R   0.780350 0.286970 0.193350 -0.500797
O37   O     O_R   0.219650 0.286970 0.806650 -0.500028
O38   O     O_R   0.280350 0.786970 0.193350 -0.496578
O39   O     O_R   0.719650 0.786970 0.806650 -0.497030
O40   O     O_R   0.757460 0.036290 0.196640 -0.513644
O41   O     O_R   0.242540 0.036290 0.803360 -0.516067
O42   O     O_R   0.257460 0.536290 0.196640 -0.511489
O43   O     O_R   0.742540 0.536290 0.803360 -0.514397
O44   O     O_R   0.663740 0.920540 0.179290 -0.503473
O45   O     O_R   0.554500 0.081650 0.170370 -0.497555
O46   O     O_R   0.336260 0.920540 0.820710 -0.501461
O47   O     O_R   0.163740 0.420540 0.179290 -0.509375
O48   O     O_R   0.836260 0.420540 0.820710 -0.510830
O49   O     O_R   0.445500 0.081650 0.829630 -0.497417
O50   O     O_R   0.054500 0.581650 0.170370 -0.498590
O51   O     O_R   0.945500 0.581650 0.829630 -0.496780
O52   O     O_R   0.545430 0.285140 0.163100 -0.519266

loop_
_geom_bond_atom_site_label_1
_geom_bond_atom_site_label_2
_ccdc_geom_bond_type
C61   C70   T    
C76   C104  S    
C44   C48   S    
C13   C79   S    
Cr9   O24   S    
C76   H23   S    
C7    H51   S    
C83   O48   A    
C51   O25   A    
C10   H64   S    
C14   C18   S    
Cr3   O3    S    
C50   O24   A    
C59   C82   S    
C79   O35   A    
C81   O46   A    
C2    C65   S    
C6    H46   S    
C27   C54   S    
C52   O30   A    
C48   C57   S    
C29   C76   S    
Cr2   O6    S    
C106  H20   S    
C17   H71   S    
C15   C19   S    
C22   C35   S    
H58   N2    S    
Cr11  O21   S    
C3    H32   S    
Cr3   O33   S    
C41   C46   S    
C31   C43   S    
C62   C67   S    
H53   N12   S    
C5    H43   S    
C28   C65   S    
H66   N4    S    
C36   C37   S    
C43   O17   A    
Cr3   O11   S    
C6    N10   S    
Cr1   O9    S    
Cr10  O47   S    
C37   C41   S    
Cr12  O31   S    
C5    N9    S    
C38   C39   S    
C107  H25   S    
C92   O39   A    
C8    H54   S    
C14   C102  S    
C4    H39   S    
C20   C25   S    
C61   C80   S    
C66   C74   T    
C96   C100  T    
C3    H33   S    
C10   H65   S    
C37   H10   S    
C42   C57   S    
C52   C95   S    
C103  N5    S    
C74   C92   S    
C43   O21   A    
C7    N11   S    
Cr1   O14   S    
Cr10  O50   S    
Cr11  O26   S    
C97   C99   S    
Cr6   O23   S    
C6    H47   S    
Cr9   O49   S    
C8    H57   S    
C16   C104  S    
C30   N4    S    
Cr8   O45   S    
C12   C16   S    
C12   C78   S    
C46   C55   S    
C84   O52   A    
C3    N7    S    
Cr4   O13   S    
C80   O44   A    
C75   O31   A    
Cr10  O11   S    
C23   C27   S    
C49   C94   S    
C106  N1    S    
C93   C99   T    
C38   C48   S    
C87   C105  S    
C9    H59   S    
C16   C20   S    
C18   H3    S    
Cr4   O4    S    
C46   C85   S    
C20   C34   S    
Cr4   O35   S    
C45   C53   S    
Cr12  O5    S    
C7    H52   S    
C108  N6    S    
C10   H63   S    
C89   O36   A    
H44   N10   S    
H36   N8    S    
Cr5   O10   S    
C88   O4    A    
Cr6   O11   S    
Cr12  O27   S    
C32   O20   A    
Cr2   O32   S    
C85   O2    A    
C14   C98   S    
C88   O51   A    
Cr7   O43   S    
C53   C55   S    
Cr12  O52   S    
C25   C29   S    
C40   C45   S    
C24   N9    S    
C6    H48   S    
C19   H4    S    
C8    H55   S    
C82   O42   A    
C27   C31   S    
C11   H68   S    
C105  N7    S    
C31   C102  S    
Cr8   O44   S    
C82   O47   A    
C36   C40   S    
C9    H61   S    
C11   N4    S    
C73   C91   S    
C91   O7    A    
C25   N10   S    
C19   C33   S    
H40   N9    S    
C90   O6    A    
C107  H26   S    
Cr7   O17   S    
C9    N2    S    
C89   O5    A    
C21   C34   S    
C94   C97   T    
Cr12  O9    S    
C29   N3    S    
Cr10  O20   S    
C29   C34   S    
Cr4   O30   S    
C75   C98   S    
C34   C104  S    
C27   N12   S    
C32   C33   S    
Cr8   O22   S    
C1    O18   A    
C11   H69   S    
C5    H41   S    
C49   O27   A    
Cr1   O1    S    
C47   C86   S    
C10   N3    S    
C35   C105  S    
C51   C96   S    
C81   O41   A    
C59   C68   T    
H49   N11   S    
C72   C90   S    
C60   C81   S    
C44   C56   S    
C28   N2    S    
C4    H37   S    
C71   C89   S    
C91   O38   A    
C8    N12   S    
C64   C73   T    
C40   C55   S    
C107  H24   S    
C13   C87   S    
C3    H35   S    
C87   H34   S    
C57   H17   S    
Cr2   O2    S    
C32   O16   A    
C64   C69   S    
C63   C72   T    
C14   H45   S    
C36   C46   S    
C2    C15   S    
C41   C53   S    
C1    O14   A    
C9    H60   S    
Cr2   O28   S    
C42   H7    S    
C50   C93   S    
C108  H30   S    
C15   H56   S    
C60   C69   T    
Cr6   O38   S    
C54   H1    S    
C28   C33   S    
C56   H16   S    
C78   O33   A    
Cr5   O37   S    
C12   C76   S    
C2    C24   S    
H22   N5    S    
Cr7   O39   S    
C13   C26   S    
C92   O8    A    
C45   C84   S    
C86   O50   A    
C56   C57   S    
C65   C103  S    
C39   C44   S    
C37   C45   S    
C102  N1    S    
Cr4   O8    S    
C65   H12   S    
C1    C35   S    
C106  H21   S    
C39   C47   S    
C39   H13   S    
Cr1   O36   S    
C78   O23   A    
C63   C68   S    
C44   H8    S    
C50   O28   A    
C21   O19   A    
Cr2   O10   S    
C84   O45   A    
C33   C103  S    
C104  N6    S    
C41   H6    S    
C54   C102  S    
C54   C98   S    
C53   H14   S    
C24   C28   S    
Cr6   O16   S    
Cr8   O9    S    
C16   H67   S    
Cr11  O51   S    
C86   O3    A    
C20   H72   S    
Cr7   O34   S    
Cr9   O46   S    
Cr5   O41   S    
C107  N5    S    
C26   C30   S    
C17   C105  S    
H62   N3    S    
H18   N1    S    
C30   C35   S    
C7    H50   S    
C85   O49   A    
C17   C22   S    
Cr1   O40   S    
C13   C17   S    
C12   C25   S    
C51   O29   A    
C11   H70   S    
C38   H11   S    
C26   N11   S    
C49   O22   A    
C2    C77   S    
C58   C83   S    
C5    H42   S    
C75   O1    A    
C52   O26   A    
C106  H19   S    
Cr6   O42   S    
H31   N7    S    
C48   C88   S    
C18   C23   S    
C55   H15   S    
C40   H5    S    
C23   N8    S    
C100  C101  S    
Cr3   O29   S    
C62   C71   T    
C19   C24   S    
C42   C47   S    
C77   O32   A    
Cr8   O18   S    
Cr9   O10   S    
Cr5   O12   S    
Cr3   O7    S    
Cr9   O19   S    
C22   C26   S    
C108  H29   S    
C38   C42   S    
C80   O40   A    
C58   C67   T    
C4    N8    S    
C23   C98   S    
C66   C70   S    
C21   O15   A    
C90   O37   A    
C83   O43   A    
Cr11  O13   S    
Cr7   O13   S    
H27   N6    S    
Cr11  O48   S    
C18   C31   S    
Cr10  O25   S    
C79   O34   A    
C15   C103  S    
C30   C87   S    
C36   H9    S    
Cr5   O15   S    
C95   C101  T    
C77   O12   A    
C4    H38   S    
C47   C56   S    
C108  H28   S    
C22   H2    S    
