data_mof_unit_57375.cif
_audit_creation_date              2012-12-10T18:33:43-0500
_audit_creation_method            fapswitch 2.2
_symmetry_space_group_name_H-M    P1
_symmetry_Int_Tables_number       1
_space_group_crystal_system       triclinic
_cell_length_a                    10.525815
_cell_length_b                    15.094573
_cell_length_c                    15.140594
_cell_angle_alpha                 81.776902
_cell_angle_beta                  90.419572
_cell_angle_gamma                 104.439012
_cell_volume                      2304.63508757

loop_
_atom_site_label
_atom_site_type_symbol
_atom_type_description
_atom_site_fract_x
_atom_site_fract_y
_atom_site_fract_z
_atom_type_partial_charge
C1    C     C_R   0.483254 0.441582 0.663351 0.878535
C2    C     C_R   0.523806 0.558357 0.336735 0.876710
C3    C     C_R   0.556671 0.466690 0.814179 -0.315938
C4    C     C_R   0.555320 0.527183 0.185695 -0.266741
C5    C     C_R   0.584241 0.436656 0.902127 0.060699
C6    C     C_R   0.625197 0.545657 0.104581 0.071272
C7    C     C_R   0.535082 0.341955 0.937396 0.091415
C8    C     C_R   0.692367 0.637973 0.072309 0.045305
C9    C     C_R   0.644926 0.501029 0.958937 0.003910
C10   C     C_R   0.618909 0.474966 0.051431 0.059009
C11   C     C_R   0.586395 0.379379 0.086282 0.077030
C12   C     C_R   0.725068 0.591311 0.928404 0.095488
C13   C     C_R   0.547754 0.313862 0.028605 -0.292806
C14   C     C_R   0.748385 0.658084 0.985707 -0.227957
C15   C     C_R   0.718532 0.847483 0.621098 -0.323663
C16   C     C_R   0.283240 0.153295 0.376908 -0.333626
C17   C     C_R   0.671531 0.755675 0.610266 -0.027554
C18   C     C_R   0.327617 0.244532 0.390269 -0.035409
C19   C     C_R   0.513464 0.792961 0.507493 0.199932
C20   C     C_R   0.490759 0.207702 0.488631 0.210429
C21   C     C_R   0.545179 0.885761 0.525782 -0.047506
C22   C     C_R   0.460477 0.115418 0.468511 -0.051302
C23   C     C_R   0.742013 0.501063 0.500212 0.888776
C24   C     C_R   0.257950 0.498729 0.500614 0.886195
C25   C     C_R   0.658323 0.913170 0.576716 0.166931
C26   C     C_R   0.346356 0.087952 0.418417 0.164021
C27   C     C_R   0.475314 0.953106 0.493123 0.085217
C28   C     C_R   0.531697 0.048244 0.499333 0.088399
C29   C     C_R   0.658851 0.072696 0.533087 -0.260537
C30   C     C_R   0.348926 0.928452 0.458327 -0.255867
C31   C     C_R   0.716050 0.006465 0.577399 -0.204825
C32   C     C_R   0.290555 0.994746 0.415546 -0.202631
C33   C     C_3   0.939692 0.448427 0.573977 0.059789
C34   C     C_3   0.060470 0.551660 0.428046 0.061905
C35   C     C_3   0.054877 0.533071 0.572057 0.123733
C36   C     C_3   0.945269 0.466966 0.429698 0.089499
C37   C     C_3   0.122817 0.496904 0.501063 -0.055475
C38   C     C_3   0.877205 0.503012 0.500861 -0.054942
C39   C     C_3   0.007011 0.410000 0.502980 -0.260378
C40   C     C_3   0.993041 0.589892 0.498994 -0.216268
C41   C     C_R   0.492965 0.404934 0.758149 -0.104643
C42   C     C_R   0.569165 0.592941 0.243186 -0.131464
C43   C     C_R   0.470343 0.278292 0.881393 0.055078
C44   C     C_R   0.701876 0.707490 0.127719 0.054394
C45   C     C_R   0.448892 0.309961 0.791932 0.103502
C46   C     C_R   0.642514 0.684376 0.213975 0.104543
H1    H     H_    0.278664 0.295763 0.359714 0.138846
H2    H     H_    0.718717 0.704149 0.642389 0.133606
H3    H     H_    0.014213 0.337661 0.504554 0.156352
H4    H     H_    0.985737 0.662201 0.497507 0.153732
H5    H     H_    0.487592 0.460554 0.204820 0.188727
H6    H     H_    0.580177 0.539632 0.789439 0.179265
N1    N     N_R   0.574200 0.731700 0.552740 -0.091233
N2    N     N_R   0.425800 0.268300 0.447260 -0.088901
O1    O     O_R   0.462600 0.383110 0.605620 -0.565166
O2    O     O_R   0.537400 0.616890 0.394380 -0.561684
O3    O     O_R   0.510210 0.531900 0.639510 -0.626179
O4    O     O_R   0.489790 0.468100 0.360490 -0.621925
O5    O     O_R   0.662240 0.425610 0.483080 -0.599371
O6    O     O_R   0.337760 0.574390 0.516920 -0.594735
O7    O     O_R   0.709860 0.574400 0.516970 -0.632962
O8    O     O_R   0.290140 0.425600 0.483030 -0.634552
Zn1   Zn    Zn3+2 0.468210 0.400660 0.477370 0.957306
Zn2   Zn    Zn3+2 0.531790 0.599340 0.522630 0.958660
N3    N     N_3   0.118155 0.567694 0.650562 -0.439291
H7    H     H_    0.046134 0.582311 0.689180 0.192712
H8    H     H_    0.149362 0.513711 0.688035 0.173900
N4    N     N_3   0.881730 0.432519 0.351165 -0.437480
H9    H     H_    0.953290 0.417178 0.312728 0.175723
H10   H     H_    0.851320 0.486749 0.313468 0.183310
N5    N     N_3   0.570161 0.236409 0.561507 -0.410733
H11   H     H_    0.562080 0.182066 0.613951 0.161595
H12   H     H_    0.666863 0.264696 0.538535 0.182216
N6    N     N_3   0.441465 0.765170 0.431100 -0.398621
H13   H     H_    0.342805 0.735641 0.448802 0.203365
H14   H     H_    0.454025 0.819919 0.378574 0.169941
H15   H     H_    0.803103 0.867318 0.661861 0.149077
H16   H     H_    0.198272 0.133508 0.336479 0.149205
H17   H     H_    0.717612 0.142509 0.525177 0.143502
H18   H     H_    0.291467 0.858287 0.464617 0.147450
N7    N     N_3   0.872519 0.396167 0.656080 -0.472266
H19   H     H_    0.940544 0.367565 0.693057 0.178761
H20   H     H_    0.800179 0.340888 0.638867 0.186995
N8    N     N_3   0.130482 0.606661 0.347996 -0.466927
H21   H     H_    0.062108 0.632232 0.308436 0.180899
H22   H     H_    0.163616 0.561851 0.312508 0.171394
H23   H     H_    0.520973 0.241546 0.057131 0.146118
H24   H     H_    0.808863 0.726196 0.960726 0.153137
N9    N     N_3   0.657685 0.753617 0.271667 -0.418142
H25   H     H_    0.757886 0.779662 0.280893 0.191899
H26   H     H_    0.620248 0.807581 0.240106 0.193349
N10   N     N_3   0.377178 0.246063 0.736690 -0.424176
H27   H     H_    0.283515 0.216842 0.765672 0.186497
H28   H     H_    0.424681 0.193073 0.735968 0.199800
N11   N     N_3   0.421689 0.181664 0.914295 -0.487613
H29   H     H_    0.500281 0.155313 0.938283 0.183563
H30   H     H_    0.353676 0.174089 0.966540 0.183356
N12   N     N_3   0.772126 0.801556 0.098569 -0.487805
H31   H     H_    0.729941 0.826408 0.040541 0.184812
H32   H     H_    0.869753 0.803189 0.084238 0.181616
N13   N     N_3   0.602791 0.348178 0.178721 -0.454563
H33   H     H_    0.672864 0.309470 0.182620 0.193326
H34   H     H_    0.513879 0.304038 0.204739 0.183066
N14   N     N_3   0.799907 0.613838 0.845637 -0.470218
H35   H     H_    0.804817 0.554527 0.819122 0.200151
H36   H     H_    0.756959 0.655955 0.800444 0.169105
H37   H     H_    0.809566 0.028524 0.608485 0.142500
H38   H     H_    0.197150 0.972628 0.384337 0.143523

loop_
_geom_bond_atom_site_label_1
_geom_bond_atom_site_label_2
_ccdc_geom_bond_type
C25   C31   A    
C38   C40   S    
C26   C32   A    
N13   H33   S    
C34   C37   S    
N11   H29   S    
C17   H2    S    
C18   H1    S    
N14   H36   S    
N7    H19   S    
C46   N9    S    
C23   O5    A    
C33   C39   S    
N6    H14   S    
C34   C40   S    
C28   C29   A    
C19   C21   A    
N8    H22   S    
C12   N14   S    
N1    Zn2   S    
C15   C25   A    
N2    Zn1   S    
C35   N3    S    
C42   C46   A    
C45   N10   S    
C44   N12   S    
N4    H9    S    
N3    H8    S    
O1    Zn1   S    
C43   N11   S    
O2    Zn2   S    
C20   N5    S    
C7    C43   A    
N9    H26   S    
C9    C10   A    
C16   H16   S    
C30   H18   S    
C19   N1    A    
C21   C27   A    
N13   H34   S    
C22   C28   A    
C27   C30   A    
C34   N8    S    
N14   H35   S    
N7    H20   S    
C44   C46   A    
C19   N6    S    
C16   C26   A    
C37   C39   S    
N6    H13   S    
C4    H5    S    
N8    H21   S    
C4    C6    A    
N5    H12   S    
C6    C8    A    
O7    Zn2   S    
C5    C9    A    
O8    Zn1   S    
C1    O3    A    
C29   H17   S    
C23   O7    A    
C24   O6    A    
C13   H23   S    
N10   H28   S    
C24   C37   S    
C11   N13   S    
C43   C45   A    
C20   N2    A    
C39   H3    S    
C12   C14   A    
N3    H7    S    
N12   H32   S    
C32   H38   S    
C8    C14   A    
C17   N1    A    
O3    Zn2   S    
C5    C7    A    
C1    C41   S    
O4    Zn1   S    
C15   C17   A    
C21   C25   A    
N11   H30   S    
C3    C41   A    
C24   O8    A    
C35   C37   S    
C31   H37   S    
C36   C39   S    
C8    C44   A    
C20   C22   A    
C3    C5    A    
C6    C10   A    
C3    H6    S    
C36   N4    S    
C23   C38   S    
O5    Zn1   S    
C33   C38   S    
O6    Zn2   S    
C36   C38   S    
C35   C40   S    
C1    O1    A    
C14   H24   S    
N5    H11   S    
C29   C31   A    
C2    O2    A    
C30   C32   A    
C11   C13   A    
C15   H15   S    
C4    C42   A    
C2    C42   S    
C40   H4    S    
N10   H27   S    
C33   C35   S    
C34   C36   S    
C2    O4    A    
C9    C12   A    
C10   C11   A    
C18   N2    A    
C7    C13   A    
C16   C18   A    
N12   H31   S    
C22   C26   A    
C27   C28   A    
N4    H10   S    
C41   C45   A    
N9    H25   S    
C33   N7    S    
