data_mof_unit_39591.cif
_audit_creation_date              2012-12-11T14:35:55-0500
_audit_creation_method            fapswitch 2.2
_symmetry_space_group_name_H-M    P1
_symmetry_Int_Tables_number       1
_space_group_crystal_system       triclinic
_cell_length_a                    13.485017
_cell_length_b                    13.503365
_cell_length_c                    27.508176
_cell_angle_alpha                 90.518179
_cell_angle_beta                  89.740129
_cell_angle_gamma                 60.005331
_cell_volume                      4337.78225517

loop_
_atom_site_label
_atom_site_type_symbol
_atom_type_description
_atom_site_fract_x
_atom_site_fract_y
_atom_site_fract_z
_atom_type_partial_charge
C1    C     C_R   0.619973 0.101289 0.570288 0.543545
C2    C     C_1   0.648579 0.705561 0.658551 -0.058202
C3    C     C_3   0.090471 0.133921 0.738590 -0.101820
C4    C     C_R   0.599374 0.779753 0.568827 0.544927
C5    C     C_3   0.182459 0.060448 0.776449 -0.100018
C6    C     C_1   0.097244 0.201527 0.901841 -0.013725
C7    C     C_1   0.229506 0.137925 0.617652 -0.015630
C8    C     C_3   0.055201 0.242409 0.770117 -0.101779
C9    C     C_3   0.147619 0.168763 0.807122 0.052632
C10   C     C_3   0.144048 0.262966 0.743032 -0.098889
C11   C     C_3   0.178924 0.154766 0.712278 0.052485
C12   C     C_1   0.630323 0.732672 0.616519 -0.015225
C13   C     C_3   0.235996 0.189584 0.780740 -0.101627
C14   C     C_3   0.271372 0.081076 0.749259 -0.103153
C15   C     C_1   0.125067 0.182241 0.859604 -0.057332
C16   C     C_R   0.277668 0.121825 0.569711 0.545417
C17   C     C_1   0.201539 0.146903 0.659840 -0.058307
C18   C     C_3   0.628590 0.277141 0.739832 -0.101632
C19   C     C_3   0.555036 0.258634 0.778262 -0.099811
C20   C     C_1   0.691968 0.208016 0.902864 -0.013716
C21   C     C_1   0.634768 0.133433 0.618459 -0.015442
C22   C     C_3   0.736995 0.204906 0.770518 -0.101787
C23   C     C_3   0.698653 0.561652 0.767951 -0.101821
C24   C     C_3   0.663285 0.186134 0.808129 0.052691
C25   C     C_3   0.758638 0.094990 0.743208 -0.099132
C26   C     C_3   0.650476 0.167374 0.713278 0.052372
C27   C     C_3   0.685165 0.076432 0.781525 -0.101625
C28   C     C_R   0.622429 0.099218 0.431466 0.535286
C29   C     C_3   0.576735 0.148601 0.750866 -0.103196
C30   C     C_1   0.675178 0.196957 0.860638 -0.057103
C31   C     C_1   0.643114 0.152350 0.660750 -0.058273
C32   C     C_R   0.737272 0.703275 0.360216 -0.139055
C33   C     C_R   0.750629 0.681251 0.310186 -0.045683
C34   C     C_3   0.679579 0.654855 0.805520 0.052612
C35   C     C_R   0.765638 0.657022 0.208360 -0.003708
C36   C     C_R   0.854158 0.660554 0.234691 0.255431
C37   C     C_R   0.844198 0.674900 0.285286 -0.115204
C38   C     C_R   0.771939 0.640658 0.157771 -0.098989
C39   C     C_R   0.684504 0.634805 0.133232 -0.040587
C40   C     C_R   0.602787 0.774817 0.430763 0.540370
C41   C     C_R   0.564606 0.689596 0.359627 -0.126275
C42   C     C_R   0.573161 0.674403 0.309686 -0.011620
C43   C     C_R   0.665299 0.672171 0.284477 0.036201
C44   C     C_R   0.487421 0.666801 0.284806 -0.147070
C45   C     C_3   0.589282 0.649643 0.741324 -0.099122
C46   C     C_R   0.489925 0.658894 0.234242 0.030834
C47   C     C_R   0.579968 0.661527 0.208383 -0.018706
C48   C     C_R   0.670284 0.663816 0.233713 -0.012995
C49   C     C_R   0.584182 0.658325 0.157932 -0.113922
C50   C     C_R   0.640497 0.714013 0.384307 -0.001159
C51   C     C_R   0.210535 0.063191 0.357104 -0.129914
C52   C     C_R   0.281901 0.119424 0.429885 0.542783
C53   C     C_R   0.189053 0.072238 0.307216 -0.033231
C54   C     C_R   0.138372 0.095595 0.207570 0.002027
C55   C     C_R   0.122482 0.016858 0.235594 0.260337
C56   C     C_3   0.662762 0.684010 0.710858 0.052493
C57   C     C_R   0.150296 0.004679 0.284926 -0.102855
C58   C     C_R   0.105175 0.116764 0.158885 -0.095631
C59   C     C_R   0.112164 0.202371 0.133171 -0.024955
C60   C     C_R   0.250866 0.218832 0.352354 -0.104865
C61   C     C_R   0.242621 0.221116 0.301873 -0.008150
C62   C     C_R   0.206005 0.150345 0.279448 0.026843
C63   C     C_R   0.267062 0.293816 0.273285 0.052819
C64   C     C_3   0.772010 0.596410 0.736705 -0.101520
C65   C     C_R   0.243542 0.302218 0.223668 -0.087207
C66   C     C_R   0.198861 0.239172 0.202149 -0.005318
C67   C     C_3   0.570421 0.742389 0.779613 -0.101681
C68   C     C_R   0.182794 0.160262 0.229580 0.008897
C69   C     C_R   0.164818 0.258529 0.153925 -0.105607
C70   C     C_R   0.240696 0.136992 0.379817 -0.008177
C71   C     C_R   0.637351 0.222224 0.368980 -0.096532
C72   C     C_R   0.644808 0.244080 0.319948 0.052108
C73   C     C_R   0.659402 0.286330 0.221439 0.038370
C74   C     C_R   0.657450 0.361806 0.257230 -0.111834
C75   C     C_R   0.649000 0.341528 0.306225 -0.122123
C76   C     C_3   0.753179 0.689199 0.775125 -0.100061
C77   C     C_R   0.671278 0.304477 0.172664 -0.069899
C78   C     C_3   0.643702 0.777226 0.748418 -0.103124
C79   C     C_R   0.681981 0.224151 0.137411 0.018081
C80   C     C_R   0.640035 0.046250 0.346103 -0.100528
C81   C     C_R   0.645258 0.067663 0.297196 0.024553
C82   C     C_R   0.647879 0.166857 0.283939 0.086682
C83   C     C_R   0.648009 0.991602 0.261458 -0.109369
C84   C     C_R   0.656043 0.012240 0.212468 -0.093668
C85   C     C_R   0.660101 0.109835 0.198786 0.031026
C86   C     C_R   0.654489 0.188331 0.234684 0.080965
C87   C     C_R   0.674755 0.128048 0.150062 -0.133925
C88   C     C_1   0.697686 0.607939 0.900108 -0.014316
C89   C     C_1   0.688725 0.633909 0.857905 -0.057691
C90   C     C_R   0.635982 0.123142 0.381669 0.031349
C91   C     C_R   0.049372 0.236273 0.949776 0.542850
C92   C     C_R   0.711751 0.562927 0.948160 0.543212
C93   C     C_R   0.722415 0.225568 0.950834 0.541930
C94   C     C_R   0.048762 0.244268 0.088042 0.545086
C95   C     C_R   0.707192 0.575646 0.086259 0.538638
C96   C     C_R   0.718117 0.234849 0.089207 0.538716
C97   C     C_2   0.403250 0.637138 0.210880 0.575274
C98   C     C_2   0.320302 0.359601 0.292636 0.555424
Cr1   Cr    Cr6+3 0.417550 0.169090 0.500530 1.041565
Cr2   Cr    Cr6+3 0.669180 0.913420 0.499920 1.027638
Cr3   Cr    Cr6+3 0.413260 0.917540 0.499520 1.026750
Cr4   Cr    Cr6+3 0.909170 0.177380 0.020380 1.043795
Cr5   Cr    Cr6+3 0.912710 0.429210 0.018220 1.045798
Cr6   Cr    Cr6+3 0.657170 0.432570 0.019030 1.046172
H1    H     H_    0.820206 0.705892 0.789625 0.105177
H2    H     H_    0.803305 0.228055 0.779131 0.099146
H3    H     H_    0.846651 0.626013 0.137296 0.207216
H4    H     H_    0.854634 0.536169 0.718599 0.103816
H5    H     H_    0.797324 0.720169 0.379508 0.132781
H6    H     H_    0.909400 0.681551 0.305518 0.166138
H7    H     H_    0.513421 0.663693 0.137562 0.193961
H8    H     H_    0.418862 0.665401 0.305045 0.137926
H9    H     H_    0.491338 0.694416 0.378383 0.136061
H10   H     H_    0.066508 0.072609 0.141497 0.207410
H11   H     H_    0.203377 0.999552 0.378201 0.124618
H12   H     H_    0.296046 0.212047 0.798496 0.103855
H13   H     H_    0.621012 0.866263 0.739784 0.100798
H14   H     H_    0.138015 0.945034 0.306624 0.159084
H15   H     H_    0.172527 0.322753 0.133518 0.164347
H16   H     H_    0.259544 0.358948 0.201520 0.184328
H17   H     H_    0.268328 0.279201 0.370740 0.191363
H18   H     H_    0.679398 0.377526 0.162310 0.144187
H19   H     H_    0.632879 0.281258 0.397056 0.098554
H20   H     H_    0.664758 0.435197 0.247326 0.129270
H21   H     H_    0.647300 0.401100 0.333345 0.115822
H22   H     H_    0.684852 0.065993 0.122325 0.113717
H23   H     H_    0.127787 0.346373 0.728765 0.104997
H24   H     H_    0.487737 0.802629 0.797683 0.104190
H25   H     H_    0.660410 0.951346 0.185383 0.134433
H26   H     H_    0.644927 0.915784 0.271431 0.121502
H27   H     H_    0.636814 0.970640 0.356706 0.118906
H28   H     H_    0.522211 0.632923 0.726891 0.104926
H29   H     H_    0.721258 0.472637 0.776578 0.098850
H30   H     H_    0.198678 0.977125 0.790792 0.105384
H31   H     H_    0.030414 0.111534 0.720794 0.103438
H32   H     H_    0.360674 0.014435 0.740067 0.100745
H33   H     H_    0.008040 0.743268 0.150594 0.393433
H34   H     H_    0.965914 0.309140 0.779277 0.099405
H35   H     H_    0.368622 0.547891 0.161239 0.364267
H36   H     H_    0.913364 0.984033 0.166940 0.380137
H37   H     H_    0.340369 0.497325 0.286263 0.355119
H38   H     H_    0.471198 0.325602 0.793226 0.105438
H39   H     H_    0.605789 0.359453 0.722271 0.103208
H40   H     H_    0.510510 0.125354 0.742221 0.100279
H41   H     H_    0.708029 0.994062 0.799048 0.104169
H42   H     H_    0.842543 0.027992 0.728302 0.104912
O1    O     O_R   0.301710 0.195650 0.554160 -0.505812
O2    O     O_R   0.635520 0.542770 0.964420 -0.505617
O3    O     O_R   0.665950 0.325030 0.970100 -0.495719
O4    O     O_R   0.522390 0.158990 0.550460 -0.496184
O5    O     O_R   0.816620 0.158530 0.074540 -0.501078
O6    O     O_R   0.004460 0.188870 0.069750 -0.502909
O7    O     O_R   0.025800 0.341780 0.072300 -0.499606
O8    O     O_R   0.807650 0.528950 0.067500 -0.495288
O9    O     O_R   0.633420 0.550490 0.071810 -0.506097
O10   O     O_R   0.664000 0.332180 0.069640 -0.493081
O11   O     O_3   0.826350 0.346390 0.019210 -0.255604
O12   O     O_R   0.658900 0.818120 0.449760 -0.505437
O13   O     O_R   0.694390 0.003530 0.554040 -0.506050
O14   O     O_R   0.657700 0.819660 0.549320 -0.494194
O15   O     O_R   0.501930 0.803280 0.552920 -0.507037
O16   O     O_R   0.318170 0.023580 0.549580 -0.494127
O17   O     O_R   0.303010 0.193990 0.446760 -0.515394
O18   O     O_R   0.523600 0.157450 0.450900 -0.483977
O19   O     O_R   0.695690 0.001860 0.446640 -0.516553
O20   O     O_2   0.058699 0.650098 0.242831 -0.177563
O21   O     O_2   0.037743 0.538496 0.177297 -0.330988
O22   O     O_3   0.937020 0.759069 0.167995 -0.531773
O23   O     O_R   0.503220 0.801620 0.445520 -0.519414
O24   O     O_2   0.305382 0.684088 0.227031 -0.412956
O25   O     O_R   0.434774 0.557179 0.172888 -0.716064
O26   O     O_2   0.134839 0.864203 0.169586 -0.282805
O27   O     O_2   0.052796 0.863143 0.249284 -0.190627
O28   O     O_3   0.929852 0.028960 0.190897 -0.544668
O29   O     O_2   0.388389 0.322397 0.325981 -0.551865
O30   O     O_R   0.297046 0.462000 0.270748 -0.626615
O31   O     O_R   0.319370 0.022040 0.450020 -0.498366
O32   O     O_3   0.499990 0.000010 0.499990 -0.251756
O33   O     O_R   0.818720 0.150820 0.967160 -0.506683
O34   O     O_R   0.006410 0.181720 0.970200 -0.494687
O35   O     O_R   0.027890 0.334070 0.964920 -0.507176
O36   O     O_R   0.809600 0.521790 0.967960 -0.495756
S1    S     S_3+6 0.977632 0.648677 0.205909 0.022771
S2    S     S_3+6 0.061595 0.937572 0.211236 0.027985

loop_
_geom_bond_atom_site_label_1
_geom_bond_atom_site_label_2
_ccdc_geom_bond_type
C74   H20   S    
C20   C93   S    
C63   C65   A    
C1    C21   S    
C76   H1    S    
C23   C45   S    
C26   C29   S    
C27   C29   S    
Cr5   O36   S    
Cr4   O34   S    
C41   C42   A    
Cr6   O2    S    
C66   C68   A    
C35   C36   A    
C18   C26   S    
C24   C27   S    
Cr6   O11   S    
C2    C12   T    
C79   C87   A    
C81   C82   A    
C93   O33   A    
C47   C49   A    
C20   C30   T    
C85   C86   A    
C21   C31   T    
C16   O1    A    
C40   O12   A    
C36   C37   A    
C76   C78   S    
C63   C98   S    
C38   C39   A    
C11   C14   S    
C66   C69   A    
C54   C68   A    
C94   O6    A    
C6    C91   S    
C84   H25   S    
C56   C78   S    
C8    H34   S    
C18   C19   S    
C73   C74   A    
C38   H3    S    
C61   C63   A    
C9    C13   S    
C52   O31   A    
Cr3   O32   S    
C6    C15   T    
C54   C55   A    
C93   O3    A    
Cr5   O7    S    
O21   S1    D    
C88   C92   S    
C45   C56   S    
C8    C9    S    
C7    C17   T    
C22   C25   S    
C45   C67   S    
H37   O30   S    
C55   S2    S    
C56   C64   S    
Cr3   O23   S    
C25   H42   S    
C77   H18   S    
C59   C94   S    
C4    C12   S    
C43   C48   A    
C3    H31   S    
Cr4   O5    S    
C49   H7    S    
C23   C34   S    
C85   C87   A    
Cr2   O32   S    
C26   C31   S    
C80   H27   S    
Cr5   O35   S    
C13   C14   S    
Cr4   O33   S    
C61   C62   A    
C67   C78   S    
C42   C44   A    
C72   C75   A    
C35   C48   A    
Cr4   O11   S    
C40   O23   A    
C81   C83   A    
C44   C46   A    
C64   H4    S    
C24   C30   S    
C77   C79   A    
C5    H30   S    
Cr1   O4    S    
C74   C75   A    
C23   H29   S    
C33   C43   A    
C1    O13   A    
C35   C38   A    
C52   C70   S    
C84   C85   A    
O27   S2    D    
C83   H26   S    
C3    C8    S    
C32   H5    S    
O28   S2    S    
C53   C57   A    
Cr5   O11   S    
C16   O16   A    
C58   C59   A    
C82   C86   A    
C29   H40   S    
C69   H15   S    
C51   H11   S    
C97   O24   D    
C60   C61   A    
C75   H21   S    
Cr6   O3    S    
C5    C9    S    
C98   O30   S    
C53   C62   A    
Cr2   O14   S    
Cr5   O8    S    
C47   C48   A    
C60   C70   A    
C27   H41   S    
O22   S1    S    
C39   C95   S    
C91   O34   A    
C78   H13   S    
C64   C76   S    
C1    O4    A    
C36   S1    S    
Cr6   O10   S    
H35   O25   S    
C32   C50   A    
C5    C14   S    
C28   O19   A    
Cr1   O32   S    
Cr1   O17   S    
C44   H8    S    
C22   H2    S    
C23   C64   S    
C51   C70   A    
C46   C97   S    
C59   C69   A    
C19   H38   S    
C55   C57   A    
C22   C24   S    
C83   C84   A    
C37   H6    S    
C42   C43   A    
C96   O10   A    
C10   H23   S    
C19   C29   S    
C41   C50   A    
C28   O18   A    
Cr4   O6    S    
C54   C58   A    
C71   H19   S    
Cr1   O1    S    
C46   C47   A    
C18   H39   S    
C39   C49   A    
O26   S2    D    
C18   C22   S    
C8    C10   S    
C7    C16   S    
O20   S1    D    
C41   H9    S    
C80   C81   A    
C3    C5    S    
C10   C13   S    
C11   C17   S    
C34   C67   S    
C28   C90   S    
Cr3   O31   S    
C25   C27   S    
C97   O25   S    
C62   C68   A    
C95   O8    A    
C32   C33   A    
C91   O35   A    
C19   C24   S    
C25   C26   S    
C34   C89   S    
C71   C72   A    
C2    C56   S    
C67   H24   S    
C92   O2    A    
C96   O5    A    
Cr2   O13   S    
C4    O14   A    
C71   C90   A    
C14   H32   S    
C94   O7    A    
C40   C50   S    
Cr3   O15   S    
C65   H16   S    
C95   O9    A    
C87   H22   S    
Cr6   O9    S    
C80   C90   A    
C60   H17   S    
C33   C37   A    
C73   C86   A    
C13   H12   S    
C3    C11   S    
C10   C11   S    
C52   O17   A    
Cr1   O18   S    
Cr2   O12   S    
C79   C96   S    
C88   C89   T    
Cr3   O16   S    
C45   H28   S    
H36   O28   S    
C65   C66   A    
C34   C76   S    
C58   H10   S    
C73   C77   A    
C4    O15   A    
Cr2   O19   S    
C92   O36   A    
C51   C53   A    
H33   O22   S    
C72   C82   A    
C9    C15   S    
C98   O29   D    
C57   H14   S    
