data_mof_unit_36435.cif
_audit_creation_date              2012-12-11T17:47:29-0500
_audit_creation_method            fapswitch 2.2
_symmetry_space_group_name_H-M    P1
_symmetry_Int_Tables_number       1
_space_group_crystal_system       triclinic
_cell_length_a                    14.865441
_cell_length_b                    15.011262
_cell_length_c                    15.265364
_cell_angle_alpha                 110.471178
_cell_angle_beta                  108.923569
_cell_angle_gamma                 108.845521
_cell_volume                      2627.37655745

loop_
_atom_site_label
_atom_site_type_symbol
_atom_type_description
_atom_site_fract_x
_atom_site_fract_y
_atom_site_fract_z
_atom_type_partial_charge
C1    C     C_R   0.972992 0.247411 0.059643 -0.123666
C2    C     C_R   0.057367 0.133489 0.151570 -0.233002
C3    C     C_R   0.138703 0.041561 0.782769 -0.355434
C4    C     C_R   0.920500 0.962317 0.309044 -0.325282
C5    C     C_R   0.107289 0.044874 0.859989 -0.286148
C6    C     C_R   0.993515 0.014612 0.281811 -0.333556
C7    C     C_R   0.586896 0.204664 0.138829 -0.098985
C8    C     C_R   0.351105 0.702634 0.761288 -0.089779
C9    C     C_R   0.674101 0.305977 0.226286 -0.157144
C10   C     C_R   0.240280 0.628691 0.687296 -0.153987
C11   C     C_R   0.767863 0.311546 0.294777 0.124803
C12   C     C_R   0.087978 0.802551 0.002497 -0.150146
C13   C     C_R   0.163732 0.665392 0.674802 0.119318
C14   C     C_R   0.773677 0.215094 0.274064 -0.182892
C15   C     C_R   0.199231 0.776545 0.738766 -0.201593
C16   C     C_R   0.314497 0.750623 0.223687 -0.158622
C17   C     C_R   0.702921 0.195553 0.790533 -0.057206
C18   C     C_R   0.686949 0.114514 0.185766 -0.130931
C19   C     C_R   0.310027 0.850224 0.812903 -0.141640
C20   C     C_R   0.593348 0.109296 0.118306 -0.105623
C21   C     C_R   0.386079 0.813480 0.823130 -0.114752
C22   C     C_R   0.874618 0.422542 0.489816 -0.240168
C23   C     C_R   0.321430 0.769696 0.322408 0.031359
C24   C     C_R   0.027368 0.589307 0.490487 -0.243790
C25   C     C_R   0.970689 0.506726 0.584373 0.064646
C26   C     C_R   0.934327 0.501900 0.393725 0.064062
C27   C     C_R   0.049743 0.589782 0.585035 0.016711
C28   C     C_R   0.857787 0.415543 0.392640 0.018797
C29   C     C_R   0.183120 0.118615 0.969500 -0.030167
C30   C     C_R   0.959229 0.988745 0.175530 -0.021403
C31   C     C_R   0.323934 0.176912 0.923301 -0.480327
C32   C     C_R   0.773068 0.873109 0.127470 -0.471787
C33   C     C_R   0.150263 0.922194 0.417071 -0.133982
C34   C     C_R   0.697363 0.137486 0.694129 0.024897
C35   C     C_R   0.914604 0.058848 0.617764 -0.145736
C36   C     C_R   0.255573 0.942898 0.438551 -0.127617
C37   C     C_R   0.811502 0.000868 0.604025 -0.134323
C38   C     C_R   0.313291 0.917872 0.510485 0.096227
C39   C     C_R   0.718379 0.982841 0.521136 0.070853
C40   C     C_R   0.214880 0.410645 0.908974 -0.281498
C41   C     C_R   0.776144 0.591653 0.021785 -0.239061
C42   C     C_R   0.271037 0.887296 0.571656 -0.124776
C43   C     C_R   0.728521 0.013540 0.446269 -0.070922
C44   C     C_R   0.168287 0.874264 0.554741 -0.054843
C45   C     C_R   0.308656 0.502806 0.942929 -0.102999
C46   C     C_R   0.831778 0.070894 0.460324 -0.072835
C47   C     C_R   0.106761 0.888818 0.475525 -0.125699
C48   C     C_R   0.924897 0.095360 0.547176 -0.179779
C49   C     C_R   0.508934 0.000154 0.607065 -0.240153
C50   C     C_R   0.520221 0.864051 0.436430 -0.248900
C51   C     C_R   0.609147 0.026876 0.609855 0.067876
C52   C     C_R   0.418792 0.847094 0.427790 0.078393
C53   C     C_R   0.616074 0.955400 0.525588 0.030241
C54   C     C_R   0.413691 0.916122 0.515631 0.015764
C55   C     C_R   0.245959 0.114048 0.813885 0.628665
C56   C     C_R   0.674980 0.500471 0.945325 -0.110148
C57   C     C_R   0.809702 0.888570 0.231268 0.604548
C58   C     C_R   0.040627 0.035443 0.146727 0.119623
C59   C     C_R   0.151142 0.111615 0.049268 0.138583
C60   C     C_R   0.292767 0.183194 0.002035 0.495140
C61   C     C_R   0.847307 0.922759 0.098683 0.518724
C62   C     C_R   0.089959 0.980858 0.101383 0.022064
C63   C     C_R   0.093427 0.160425 0.085627 0.043555
C64   C     C_R   0.990514 0.588902 0.295019 -0.173421
C65   C     C_R   0.959988 0.409400 0.687340 -0.139359
C66   C     C_3   0.458515 0.406384 0.850934 -0.078487
C67   C     C_R   0.935778 0.497798 0.298658 0.071081
C68   C     C_3   0.518252 0.603998 0.005771 -0.099153
C69   C     C_3   0.419368 0.485198 0.831862 -0.207234
C70   C     C_3   0.555312 0.524861 0.023893 -0.210739
C71   C     C_3   0.401787 0.506887 0.929161 0.218838
C72   C     C_3   0.574494 0.503119 0.927628 0.218893
C73   C     C_3   0.439267 0.428740 0.947478 -0.159439
C74   C     C_3   0.538423 0.582601 0.909000 -0.172926
C75   C     C_R   0.303725 0.591756 0.000354 0.585099
C76   C     C_R   0.685065 0.409374 0.934465 0.606434
C77   C     C_R   0.908158 0.407557 0.207899 -0.156629
C78   C     C_R   0.988505 0.503105 0.680098 0.073783
C79   C     C_R   0.044242 0.593694 0.780855 -0.149819
C80   C     C_R   0.217013 0.730200 0.306326 -0.100783
C81   C     C_R   0.788129 0.203540 0.695611 -0.128026
C82   C     C_R   0.068109 0.251099 0.971562 -0.131777
C83   C     C_R   0.999440 0.802003 0.095492 -0.114216
C84   C     C_R   0.050299 0.220541 0.043036 0.059922
C85   C     C_R   0.057087 0.865486 0.065404 0.101887
C86   C     C_3   0.418020 0.355713 0.146123 0.243377
C87   C     C_3   0.467737 0.419880 0.267498 -0.873177
C88   C     C_3   0.753058 0.957476 0.976222 0.281261
C89   C     C_R   0.161301 0.033240 0.072649 -0.198871
C90   C     C_3   0.738149 0.959260 0.873499 -0.891266
C91   C     C_3   0.321307 0.746847 0.994534 -0.275699
C92   C     C_3   0.609548 0.271681 0.962516 -0.309817
C93   C     C_3   0.208941 0.144885 0.672429 0.302010
C94   C     C_3   0.254277 0.174640 0.604040 -0.901289
C95   C     C_3   0.763773 0.775058 0.297050 0.288886
C96   C     C_3   0.673266 0.710414 0.312039 -0.938159
H1    H     H_    0.937346 0.234271 0.108107 0.091270
H2    H     H_    0.409999 0.674217 0.770004 0.113697
H3    H     H_    0.668021 0.379287 0.241432 0.108805
H4    H     H_    0.214449 0.543479 0.637746 0.110686
H5    H     H_    0.845650 0.218190 0.326402 0.112698
H6    H     H_    0.141069 0.805876 0.731087 0.123335
H7    H     H_    0.692002 0.040679 0.170196 0.118683
H8    H     H_    0.336998 0.935900 0.861596 0.125563
H9    H     H_    0.815281 0.358256 0.490800 0.136815
H10   H     H_    0.091205 0.650974 0.491359 0.135592
H11   H     H_    0.024057 0.989292 0.834712 0.173469
H12   H     H_    0.143912 0.828821 0.974636 0.084058
H13   H     H_    0.078229 0.071745 0.342344 0.165777
H14   H     H_    0.392966 0.370266 0.964361 0.108278
H15   H     H_    0.581452 0.644942 0.892463 0.133638
H16   H     H_    0.381701 0.772306 0.208092 0.168305
H17   H     H_    0.656394 0.161180 0.822954 0.119673
H18   H     H_    0.025471 0.874010 0.459525 0.080926
H19   H     H_    0.004925 0.143686 0.560184 0.109882
H20   H     H_    0.102236 0.930048 0.353678 0.127026
H21   H     H_    0.986669 0.081655 0.686968 0.120469
H22   H     H_    0.287739 0.967948 0.391743 0.122029
H23   H     H_    0.079218 0.982773 0.699015 0.138064
H24   H     H_    0.805244 0.979627 0.663529 0.120284
H25   H     H_    0.315590 0.869681 0.628892 0.128042
H26   H     H_    0.657679 0.001133 0.382462 0.121465
H27   H     H_    0.134234 0.849384 0.600049 0.102812
H28   H     H_    0.839829 0.099394 0.405852 0.114019
H29   H     H_    0.501556 0.054496 0.669797 0.156994
H30   H     H_    0.524288 0.811502 0.369611 0.141098
H31   H     H_    0.209519 0.000420 0.048262 0.128524
H32   H     H_    0.023660 0.176369 0.191345 0.119506
H33   H     H_    0.360766 0.469534 0.753836 0.118426
H34   H     H_    0.951216 0.979507 0.390733 0.148675
H35   H     H_    0.611617 0.537825 0.101441 0.126451
H36   H     H_    0.440665 0.326452 0.790764 0.195883
H37   H     H_    0.544270 0.685324 0.070951 0.197838
H38   H     H_    0.188255 0.327384 0.853115 0.128955
H39   H     H_    0.794991 0.675926 0.055436 0.151022
H40   H     H_    0.012800 0.671810 0.347175 0.112403
H41   H     H_    0.920631 0.325770 0.623595 0.099539
H42   H     H_    0.857804 0.322690 0.179541 0.107769
H43   H     H_    0.076648 0.678577 0.803931 0.112207
H44   H     H_    0.191668 0.723416 0.363209 0.120171
H45   H     H_    0.408353 0.223819 0.947222 0.161702
H46   H     H_    0.814146 0.186919 0.637118 0.131182
H47   H     H_    0.124323 0.247084 0.942710 0.110837
H48   H     H_    0.979602 0.827476 0.158281 0.097808
H49   H     H_    0.357625 0.379167 0.110500 0.091961
H50   H     H_    0.484798 0.379036 0.126696 0.088626
H51   H     H_    0.530657 0.401287 0.306687 0.256617
H52   H     H_    0.506439 0.508784 0.296689 0.212490
H53   H     H_    0.403066 0.397847 0.289747 0.259593
H54   H     H_    0.796791 0.043855 0.043163 0.074409
H55   H     H_    0.670879 0.913906 0.966353 0.083072
H56   H     H_    0.687311 0.820771 0.068454 0.160204
H57   H     H_    0.692380 0.002909 0.858822 0.201659
H58   H     H_    0.819141 0.002104 0.880911 0.257666
H59   H     H_    0.691602 0.874414 0.804075 0.256681
H60   H     H_    0.275094 0.767160 0.034706 0.148158
H61   H     H_    0.267639 0.694715 0.906059 0.165852
H62   H     H_    0.383158 0.825205 0.011593 0.177601
H63   H     H_    0.603334 0.325981 0.029190 0.138250
H64   H     H_    0.687077 0.269763 0.995475 0.139886
H65   H     H_    0.541988 0.187118 0.922572 0.180249
H66   H     H_    0.200763 0.214083 0.720178 0.059244
H67   H     H_    0.525623 0.031425 0.050419 0.094221
H68   H     H_    0.126354 0.072251 0.616964 0.088581
H69   H     H_    0.316235 0.149192 0.602136 0.289817
H70   H     H_    0.187022 0.134375 0.520965 0.212034
H71   H     H_    0.291375 0.263692 0.634970 0.212064
H72   H     H_    0.838836 0.827324 0.376993 0.094395
H73   H     H_    0.776664 0.716574 0.240299 0.074748
H74   H     H_    0.592915 0.665746 0.237993 0.256846
H75   H     H_    0.690182 0.650746 0.331261 0.211918
H76   H     H_    0.669654 0.766478 0.379421 0.260645
H77   H     H_    0.471927 0.870613 0.879700 0.097652
H78   H     H_    0.514277 0.199716 0.086308 0.146970
N1    N     N_R   0.947560 0.293820 0.002910 -0.046571
N2    N     N_R   0.789450 0.443190 0.997090 -0.105087
N3    N     N_R   0.945970 0.443180 0.152110 -0.040284
N4    N     N_R   0.054030 0.556820 0.847890 -0.050892
N5    N     N_R   0.151530 0.706170 0.208880 -0.043092
N6    N     N_R   0.848470 0.293830 0.791120 -0.044750
N7    N     N_R   0.004980 0.293810 0.946140 -0.037068
N8    N     N_R   0.995020 0.706190 0.053860 -0.036857
N9    N     N_R   0.052440 0.706180 0.997090 -0.042755
N10   N     N_R   0.208960 0.706170 0.152110 -0.048898
N11   N     N_R   0.791040 0.293830 0.847890 -0.051444
N12   N     N_R   0.154330 0.443160 0.946140 -0.056701
N13   N     N_R   0.845670 0.556840 0.053860 -0.067784
N14   N     N_R   0.002190 0.556820 0.208880 -0.035649
N15   N     N_R   0.997810 0.443180 0.791120 -0.035263
N16   N     N_R   0.210550 0.556810 0.002910 -0.097239
Ni1   Ni    Ni4+2 0.869690 0.369690 0.000000 0.201267
Ni2   Ni    Ni4+2 0.130310 0.630310 0.000000 0.206245
Ni3   Ni    Ni4+2 0.001390 0.369680 0.869810 0.208787
Ni4   Ni    Ni4+2 0.998610 0.630320 0.130190 0.199763
O1    O     O_3   0.369111 0.243025 0.110521 -0.630334
O2    O     O_3   0.812496 0.902951 0.994678 -0.623055
O3    O     O_3   0.376398 0.698530 0.036418 -0.660349
O4    O     O_3   0.599824 0.304984 0.885844 -0.635541
O5    O     O_3   0.277949 0.122169 0.739756 -0.622562
O6    O     O_3   0.734008 0.838850 0.256854 -0.633075

loop_
_geom_bond_atom_site_label_1
_geom_bond_atom_site_label_2
_ccdc_geom_bond_type
C92   H65   S    
C58   C62   A    
C47   H18   S    
C79   H43   S    
C64   H40   S    
C31   H45   S    
C93   C94   S    
N3    Ni1   S    
C45   C71   S    
C14   C18   A    
N12   Ni3   S    
C95   C96   S    
C67   C77   A    
C24   C27   A    
C95   H72   S    
C94   H70   S    
C17   H17   S    
C73   H14   S    
C6    C30   A    
C1    C84   A    
C15   C19   A    
C82   N7    A    
C34   C51   S    
N3    N14   A    
C87   H51   S    
C12   C85   A    
C92   H63   S    
C56   C76   A    
C26   C67   S    
C93   H66   S    
C68   H37   S    
C19   C21   A    
C24   C26   A    
C32   C61   A    
C38   C42   A    
C89   H31   S    
C83   H48   S    
C11   C14   A    
C12   N9    A    
C40   N12   A    
C68   C74   S    
C49   C54   A    
C7    H78   S    
C33   C36   A    
C41   N13   A    
C59   C89   A    
C69   C71   S    
C88   O2    S    
N8    N9    A    
C91   H62   S    
C8    H2    S    
C3    C55   A    
C55   O5    S    
C29   C59   S    
C62   C89   A    
C17   N11   A    
C95   O6    S    
C49   C51   A    
C96   H75   S    
C32   H56   S    
C4    C57   A    
C50   C52   A    
N10   Ni2   S    
C50   H30   S    
C34   C81   A    
C23   C80   A    
C90   H58   S    
C36   H22   S    
C66   H36   S    
C44   C47   A    
N1    N7    A    
C65   H41   S    
C68   C70   S    
N14   Ni4   S    
C9    H3    S    
C96   H74   S    
N9    Ni2   S    
C46   H28   S    
C42   C44   A    
C32   C57   A    
C92   O4    S    
C35   C48   A    
C86   H50   S    
C94   H69   S    
C26   C28   A    
C22   C28   A    
C52   C54   A    
N11   Ni1   S    
C5    C29   A    
C75   O3    S    
C40   C45   A    
C62   C85   S    
C66   C72   S    
C50   C53   A    
C87   H52   S    
C25   C78   S    
C21   H77   S    
C80   N5    A    
C76   N2    A    
C75   N16   A    
C77   H42   S    
C72   C74   S    
C1    H1    S    
C74   H15   S    
C12   H12   S    
N4    N15   A    
C78   C79   A    
C14   H5    S    
C4    H34   S    
C93   H68   S    
C56   C72   S    
C80   H44   S    
C20   H67   S    
C40   H38   S    
C22   C25   A    
C77   N3    A    
C83   N8    A    
C51   C53   A    
C31   C60   A    
N12   N16   A    
C64   C67   A    
C41   C56   A    
C86   O1    S    
N4    Ni2   S    
C19   H8    S    
C38   C54   S    
C29   C60   A    
C70   C73   S    
C16   N10   A    
C8    C21   A    
C79   N4    A    
C69   C74   S    
C90   H57   S    
C10   H4    S    
C9    C11   A    
C43   H26   S    
C64   N14   A    
C3    H23   S    
C48   H19   S    
N8    Ni4   S    
C4    C6    A    
C81   H46   S    
C83   C85   A    
C88   C90   S    
C16   C23   A    
C82   C84   A    
C13   C15   A    
C57   O6    S    
C96   H76   S    
C33   C47   A    
C88   H55   S    
C35   H21   S    
C24   H10   S    
C17   C34   A    
C86   H49   S    
C41   H39   S    
N7    Ni3   S    
C2    C63   A    
C16   H16   S    
N2    N13   A    
C71   C73   S    
N5    N10   A    
C5    H11   S    
C35   C37   A    
C7    C9    A    
C1    N1    A    
C33   H20   S    
N16   Ni2   S    
C65   C78   A    
C93   O5    S    
C86   C87   S    
C88   H54   S    
C8    C10   A    
C81   N6    A    
C65   N15   A    
C82   H47   S    
C3    C5    A    
C10   C13   A    
C94   H71   S    
C39   C43   A    
C2    C58   A    
C25   C27   A    
C22   H9    S    
C49   H29   S    
C44   H27   S    
C59   C63   A    
C45   C75   A    
C63   C84   S    
C92   H64   S    
C36   C38   A    
C91   H60   S    
C37   C39   A    
C76   O4    S    
N1    Ni1   S    
C66   C73   S    
C23   C52   S    
C39   C53   S    
C37   H24   S    
C11   C28   S    
C68   C71   S    
C30   C58   S    
C70   H35   S    
C6    H13   S    
C18   C20   A    
C18   H7    S    
C15   H6    S    
N2    Ni1   S    
C43   C46   A    
C91   H61   S    
N6    N11   A    
C91   O3    S    
C46   C48   A    
N15   Ni3   S    
C42   H25   S    
C69   H33   S    
C7    C20   A    
C87   H53   S    
C30   C61   A    
N13   Ni4   S    
C66   C69   S    
C13   C27   S    
C70   C72   S    
C31   C55   A    
C90   H59   S    
C61   O2    S    
C95   H73   S    
N6    Ni3   S    
C60   O1    S    
N5    Ni4   S    
C2    H32   S    
