data_mof_unit_64875.cif
_audit_creation_date              2012-12-10T21:27:32-0500
_audit_creation_method            fapswitch 2.2
_symmetry_space_group_name_H-M    P1
_symmetry_Int_Tables_number       1
_space_group_crystal_system       triclinic
_cell_length_a                    10.427287
_cell_length_b                    16.096956
_cell_length_c                    16.886093
_cell_angle_alpha                 88.003407
_cell_angle_beta                  91.098702
_cell_angle_gamma                 104.619966
_cell_volume                      2740.6962383

loop_
_atom_site_label
_atom_site_type_symbol
_atom_type_description
_atom_site_fract_x
_atom_site_fract_y
_atom_site_fract_z
_atom_type_partial_charge
C1    C     C_R   0.496645 0.488649 0.652886 0.865012
C2    C     C_R   0.473902 0.105380 0.483053 0.330273
C3    C     C_R   0.604074 0.856231 0.567673 -0.304836
C4    C     C_R   0.394298 0.143504 0.433184 -0.305640
C5    C     C_R   0.597351 0.768314 0.563343 -0.003345
C6    C     C_R   0.400974 0.231408 0.437572 -0.001065
C7    C     C_R   0.745632 0.534643 0.498216 0.904289
C8    C     C_R   0.254395 0.465894 0.495261 0.899110
C9    C     C_2   0.887301 0.551785 0.483937 -0.087294
C10   C     C_2   0.112777 0.451113 0.479746 -0.107671
C11   C     C_2   0.930110 0.506085 0.429175 0.112562
C12   C     C_R   0.497542 0.510563 0.347100 0.872679
C13   C     C_2   0.069778 0.505000 0.428619 0.120177
C14   C     C_R   0.478198 0.480005 0.737985 -0.032656
C15   C     C_R   0.477538 0.513994 0.261934 -0.035218
C16   C     C_R   0.456363 0.549444 0.778654 -0.235200
C17   C     C_R   0.445713 0.437147 0.221031 -0.237818
C18   C     C_R   0.432599 0.541490 0.858981 -0.165989
C19   C     C_R   0.420903 0.438441 0.140535 -0.167193
C20   C     C_R   0.431829 0.463765 0.900225 0.327601
C21   C     C_R   0.429435 0.517244 0.099362 0.328307
C22   C     C_R   0.450966 0.394016 0.859349 -0.195608
C23   C     C_R   0.474104 0.401844 0.778384 -0.221790
C24   C     C_R   0.456981 0.593532 0.140589 -0.197772
C25   C     C_R   0.481116 0.592192 0.221728 -0.227677
C26   C     C_R   0.438409 0.754389 0.459536 -0.004566
C27   C     C_R   0.563541 0.245966 0.539363 -0.010101
C28   C     C_R   0.441977 0.842102 0.461882 -0.277837
C29   C     C_R   0.559997 0.158258 0.536968 -0.277274
C30   C     C_R   0.526194 0.894654 0.516829 0.330667
H1    H     H_    0.657812 0.739317 0.602814 0.129131
H2    H     H_    0.503408 0.652053 0.252692 0.162123
H3    H     H_    0.629610 0.286328 0.580671 0.132489
H4    H     H_    0.373970 0.714345 0.417336 0.147064
H5    H     H_    0.623947 0.132581 0.576842 0.153349
H6    H     H_    0.379603 0.868053 0.421112 0.153703
H7    H     H_    0.669909 0.894345 0.610607 0.144879
H8    H     H_    0.327115 0.105159 0.390990 0.144418
H9    H     H_    0.108666 0.604574 0.346776 0.176436
H10   H     H_    0.195162 0.530956 0.336263 0.162285
H11   H     H_    0.872955 0.474039 0.317031 0.165162
H12   H     H_    0.339183 0.260185 0.398860 0.125510
H13   H     H_    0.845904 0.390485 0.383054 0.202949
H14   H     H_    0.041935 0.325878 0.510995 0.189139
H15   H     H_    0.038324 0.394874 0.583468 0.179162
H16   H     H_    0.958250 0.671503 0.524205 0.189277
H17   H     H_    0.962169 0.591792 0.591147 0.172243
H18   H     H_    0.439468 0.375709 0.251096 0.162597
H19   H     H_    0.456880 0.610042 0.748492 0.166508
H20   H     H_    0.397933 0.377972 0.110583 0.147734
H21   H     H_    0.417330 0.596723 0.888656 0.148570
H22   H     H_    0.450957 0.334190 0.890780 0.137935
H23   H     H_    0.463561 0.654317 0.109260 0.138153
H24   H     H_    0.489402 0.347217 0.747676 0.159781
N1    N     N_2   0.423357 0.455394 0.983360 -0.209379
N2    N     N_3   0.979389 0.611599 0.531830 -0.451769
N3    N     N_2   0.422635 0.523376 0.016092 -0.210097
N4    N     N_R   0.515370 0.719110 0.509820 -0.084736
N5    N     N_R   0.484630 0.280890 0.490180 -0.083309
N6    N     N_2   0.536318 0.984862 0.523269 -0.189230
N7    N     N_2   0.463766 0.015171 0.476600 -0.188993
N8    N     N_3   0.160076 0.565831 0.378262 -0.445277
N9    N     N_3   0.840049 0.454047 0.374324 -0.444376
N10   N     N_3   0.020879 0.384279 0.523034 -0.471718
O1    O     O_R   0.494500 0.421750 0.612630 -0.622521
O2    O     O_R   0.505500 0.578250 0.387370 -0.621968
O3    O     O_R   0.504370 0.562470 0.618930 -0.623831
O4    O     O_R   0.495630 0.437530 0.381070 -0.617881
O5    O     O_R   0.679100 0.455920 0.498020 -0.586268
O6    O     O_R   0.320900 0.544080 0.501980 -0.578487
O7    O     O_R   0.688960 0.596630 0.504320 -0.621108
O8    O     O_R   0.311040 0.403370 0.495680 -0.624031
Zn1   Zn    Zn3+2 0.493410 0.406040 0.495790 0.942812
Zn2   Zn    Zn3+2 0.506590 0.593960 0.504210 0.947441

loop_
_geom_bond_atom_site_label_1
_geom_bond_atom_site_label_2
_ccdc_geom_bond_type
C14   C23   A    
C7    O5    A    
O7    Zn2   S    
C2    C4    A    
C24   C25   A    
C2    N7    S    
C21   N3    S    
C1    O3    A    
C27   C29   A    
C12   O4    A    
N5    Zn1   S    
H15   N10   S    
C1    O1    A    
C12   C15   S    
C26   H4    S    
C17   H18   S    
C10   N10   S    
C16   C18   A    
C3    C5    A    
C25   H2    S    
C28   C30   A    
C24   H23   S    
O6    Zn2   S    
H13   N9    S    
N1    N3    D    
C27   N5    A    
H14   N10   S    
O5    Zn1   S    
C11   C13   S    
C19   H20   S    
C28   H6    S    
C12   O2    A    
C5    N4    A    
C20   N1    S    
C3    C30   A    
C22   H22   S    
C26   C28   A    
C19   C21   A    
H17   N2    S    
C4    H8    S    
C18   H21   S    
C18   C20   A    
C9    C11   D    
C7    O7    A    
C2    C29   A    
C14   C16   A    
C21   C24   A    
C15   C25   A    
C8    O8    A    
H11   N9    S    
C9    N2    S    
O2    Zn2   S    
C7    C9    S    
H10   N8    S    
C16   H19   S    
N4    Zn2   S    
C23   H24   S    
C4    C6    A    
C6    H12   S    
O1    Zn1   S    
H16   N2    S    
O3    Zn2   S    
H9    N8    S    
C29   H5    S    
C22   C23   A    
N6    N7    D    
C1    C14   S    
C17   C19   A    
O4    Zn1   S    
C15   C17   A    
C11   N9    S    
C8    O6    A    
C6    N5    A    
C26   N4    A    
C8    C10   S    
C27   H3    S    
C13   N8    S    
C3    H7    S    
C20   C22   A    
O8    Zn1   S    
C5    H1    S    
C10   C13   D    
C30   N6    S    
