data_mof_unit_16807.cif
_audit_creation_date              2012-12-10T17:17:22-0500
_audit_creation_method            fapswitch 2.2
_symmetry_space_group_name_H-M    P1
_symmetry_Int_Tables_number       1
_space_group_crystal_system       triclinic
_cell_length_a                    10.313653
_cell_length_b                    10.451989
_cell_length_c                    12.208549
_cell_angle_alpha                 91.848842
_cell_angle_beta                  110.206827
_cell_angle_gamma                 95.09456
_cell_volume                      1227.38790446

loop_
_atom_site_label
_atom_site_type_symbol
_atom_type_description
_atom_site_fract_x
_atom_site_fract_y
_atom_site_fract_z
_atom_type_partial_charge
C1    C     C_R   0.048166 0.734214 0.489042 0.990709
C2    C     C_R   0.211659 0.537602 0.840489 -0.153807
C3    C     C_2   0.065179 0.870877 0.469969 -0.281183
C4    C     C_R   0.135113 0.515602 0.714671 0.914301
C5    C     C_2   0.950588 0.922947 0.402266 0.439736
C6    C     C_2   0.908494 0.126283 0.486631 -0.255334
C7    C     C_2   0.946052 0.062532 0.406270 -0.299351
C8    C     C_2   0.436067 0.504811 0.516470 -0.127603
C9    C     C_2   0.572242 0.474116 0.505265 0.176786
C10   C     C_R   0.947208 0.265062 0.503194 0.881513
C11   C     C_R   0.865551 0.486223 0.285635 0.887432
C12   C     C_R   0.424333 0.508544 0.000100 -0.051201
C13   C     C_R   0.687437 0.278949 0.014772 -0.100828
C14   C     C_R   0.786571 0.452450 0.163618 -0.034670
C15   C     C_R   0.190741 0.643986 0.905111 -0.128331
C16   C     C_R   0.278678 0.672612 0.020546 -0.144007
C17   C     C_R   0.394914 0.607516 0.069241 0.457886
C18   C     C_2   0.832992 0.063267 0.557845 0.941790
C19   C     C_2   0.202424 0.946377 0.533269 0.874579
C20   C     C_2   0.579357 0.342648 0.461027 0.891407
C21   C     C_2   0.288899 0.371844 0.348805 1.052157
C22   C     C_2   0.083875 0.732065 0.854349 0.960778
C23   C     C_R   0.320788 0.462448 0.893056 -0.008075
C24   C     C_R   0.552481 0.455082 0.030919 0.011708
C25   C     C_R   0.562721 0.336914 0.974765 0.117023
C26   C     C_R   0.448605 0.278744 0.881110 0.423213
C27   C     C_R   0.329954 0.343709 0.838934 -0.265660
C28   C     C_R   0.672595 0.518496 0.113599 -0.184025
C29   C     C_R   0.797319 0.334352 0.112105 -0.219322
H1    H     H_    0.886068 0.281642 0.151266 0.174254
H2    H     H_    0.331586 0.108508 0.549881 0.381861
H3    H     H_    0.602174 0.228078 0.334193 0.341542
H4    H     H_    0.772711 0.709833 0.624332 0.383893
H5    H     H_    0.313235 0.356982 0.192208 0.342573
H6    H     H_    0.366754 0.133562 0.766511 0.357593
H7    H     H_    0.001989 0.850116 0.726635 0.340383
H8    H     H_    0.511934 0.562477 0.221668 0.387978
H9    H     H_    0.441366 0.574413 0.586152 0.224513
H10   H     H_    0.697496 0.187660 0.975544 0.212142
H11   H     H_    0.675985 0.615853 0.147989 0.201144
H12   H     H_    0.260068 0.750187 0.072566 0.197015
H13   H     H_    0.243938 0.300055 0.763993 0.154347
H14   H     H_    0.992208 0.114860 0.350952 0.229955
H15   H     H_    0.761708 0.898446 0.290654 0.371272
H16   H     H_    0.696578 0.919525 0.570278 0.380729
N1    N     N_2   0.313640 0.446500 0.454900 -0.186359
N2    N     N_2   0.686360 0.553430 0.545150 0.033649
O1    O     O_R   0.936910 0.692950 0.509080 -0.549475
O2    O     O_2   0.840553 0.115979 0.651097 -0.589832
O3    O     O_R   0.749080 0.947006 0.516993 -0.740479
O4    O     O_2   0.288912 0.899604 0.613374 -0.567106
O5    O     O_R   0.234884 0.068581 0.500424 -0.754844
O6    O     O_2   0.559479 0.250900 0.514960 -0.609840
O7    O     O_R   0.601873 0.322557 0.355610 -0.774879
O8    O     O_3   0.677147 0.665688 0.596814 -0.665781
O9    O     O_2   0.211467 0.271724 0.327312 -0.596392
O10   O     O_R   0.341875 0.417577 0.265062 -0.823281
O11   O     O_3   0.456781 0.161504 0.829488 -0.732412
O12   O     O_R   0.138320 0.658600 0.480130 -0.597159
O13   O     O_2   0.007386 0.760421 0.906672 -0.599666
O14   O     O_R   0.075726 0.788220 0.750246 -0.801412
O15   O     O_3   0.470625 0.639571 0.185821 -0.721981
O16   O     O_R   0.002900 0.525670 0.675280 -0.601520
O17   O     O_R   0.204310 0.491320 0.646330 -0.607179
O18   O     O_R   0.861680 0.341400 0.519870 -0.589065
O19   O     O_R   0.063090 0.307050 0.490920 -0.571751
O20   O     O_R   0.795690 0.508680 0.353670 -0.556613
O21   O     O_R   0.997100 0.474330 0.324720 -0.619836
O22   O     O_3   0.833878 0.843551 0.333690 -0.712882
Zn1   Zn    Zn3+2 0.865520 0.522940 0.519330 1.066819
Zn2   Zn    Zn3+2 0.134480 0.477060 0.480670 1.020457

loop_
_geom_bond_atom_site_label_1
_geom_bond_atom_site_label_2
_ccdc_geom_bond_type
C12   C17   A    
C6    C10   S    
C21   O9    D    
C2    C4    S    
N2    Zn1   S    
C3    C19   S    
C6    C7    D    
O1    Zn1   S    
C23   C27   A    
C17   O15   S    
H5    O10   S    
C12   C24   A    
C9    C20   S    
O19   Zn2   S    
C27   H13   S    
O16   Zn1   S    
O21   Zn2   S    
H2    O5    S    
C13   C29   A    
O20   Zn1   S    
C3    C5    D    
C10   O19   A    
H8    O15   S    
N1    Zn2   S    
H4    O8    S    
C1    O1    A    
C24   C25   A    
C22   O14   S    
C21   O10   S    
C2    C15   A    
C26   O11   S    
C12   C23   A    
C13   C25   A    
C26   C27   A    
C29   H1    S    
C8    H9    S    
H16   O3    S    
H6    O11   S    
C19   O5    S    
C4    O16   A    
C11   O20   A    
C9    N2    D    
C7    H14   S    
C1    O12   A    
H7    O14   S    
C22   O13   D    
C6    C18   S    
C11   C14   S    
C8    N1    D    
C13   H10   S    
C16   C17   A    
C15   C16   A    
C28   H11   S    
C14   C29   A    
O17   Zn2   S    
O18   Zn1   S    
C19   O4    D    
H15   O22   S    
C11   O21   A    
C18   O3    S    
N2    O8    S    
C21   N1    S    
C10   O18   A    
H3    O7    S    
C2    C23   A    
C5    C7    S    
C4    O17   A    
C8    C9    S    
C5    O22   S    
C20   O7    S    
C14   C28   A    
C25   C26   A    
C16   H12   S    
C15   C22   S    
C24   C28   A    
C18   O2    D    
O12   Zn2   S    
C20   O6    D    
C1    C3    S    
