data_mof_unit_42083.cif
_audit_creation_date              2012-12-10T17:16:34-0500
_audit_creation_method            fapswitch 2.2
_symmetry_space_group_name_H-M    P1
_symmetry_Int_Tables_number       1
_space_group_crystal_system       triclinic
_cell_length_a                    10.184403
_cell_length_b                    10.747159
_cell_length_c                    10.997075
_cell_angle_alpha                 92.738537
_cell_angle_beta                  94.622574
_cell_angle_gamma                 82.633253
_cell_volume                      1188.99494129

loop_
_atom_site_label
_atom_site_type_symbol
_atom_type_description
_atom_site_fract_x
_atom_site_fract_y
_atom_site_fract_z
_atom_type_partial_charge
C1    C     C_R   0.444724 0.506690 0.269163 0.934130
C2    C     C_R   0.505605 0.739282 0.509139 0.873141
C3    C     C_R   0.640781 0.091759 0.328911 -0.153475
C4    C     C_R   0.391397 0.897597 0.708306 -0.167679
C5    C     C_R   0.746398 0.019348 0.274581 0.478072
C6    C     C_R   0.331680 0.974826 0.799521 0.471982
C7    C     C_R   0.794515 0.901385 0.321292 -0.076410
C8    C     C_R   0.332647 0.105687 0.796903 -0.072518
C9    C     C_R   0.727502 0.854277 0.410853 -0.214711
C10   C     C_R   0.389603 0.155844 0.701993 -0.211511
C11   C     C_R   0.610956 0.922115 0.455637 0.073390
C12   C     C_R   0.554325 0.499140 0.731455 0.902084
C13   C     C_R   0.444621 0.078480 0.605981 0.078290
C14   C     C_R   0.581661 0.047894 0.428653 -0.029431
C15   C     C_R   0.449278 0.947890 0.611807 -0.016840
C16   C     C_R   0.522993 0.870644 0.527536 -0.153606
C17   C     C_R   0.500618 0.127143 0.506715 -0.121647
C18   C     C_1   0.280459 0.190688 0.892192 0.169513
C19   C     C_1   0.912821 0.827271 0.280853 0.143173
C20   C     C_1   0.353927 0.599834 0.897604 0.287077
C21   C     C_1   0.594725 0.371842 0.083408 0.208607
C22   C     C_1   0.876072 0.414609 0.330406 0.334874
C23   C     C_2   0.413081 0.527090 0.142151 -0.365518
C24   C     C_1   0.106470 0.673335 0.585967 0.330755
C25   C     C_2   0.580623 0.498688 0.862094 -0.383026
C26   C     C_2   0.496282 0.479338 0.058933 -0.024116
C27   C     C_2   0.480950 0.528266 0.936684 -0.033441
C28   C     C_2   0.076169 0.473271 0.507088 0.400210
C29   C     C_2   0.931169 0.492705 0.525799 0.380778
C30   C     C_R   0.498666 0.260330 0.499325 0.852628
H1    H     H_    0.607152 0.183543 0.293978 0.169882
H2    H     H_    0.190898 0.384386 0.393952 0.369827
H3    H     H_    0.398161 0.797397 0.718290 0.168755
H4    H     H_    0.775588 0.768889 0.450476 0.178870
H5    H     H_    0.394623 0.255619 0.708328 0.188493
H6    H     H_    0.678780 0.457414 0.896466 0.181715
H7    H     H_    0.327903 0.596032 0.120102 0.167716
H8    H     H_    0.870776 0.007324 0.146505 0.347755
H9    H     H_    0.236404 0.981504 0.947909 0.345783
H10   H     H_    0.809725 0.606458 0.614475 0.360865
N1    N     N_2   0.157300 0.551390 0.551120 -0.194694
N2    N     N_2   0.842700 0.448610 0.448880 -0.196341
N3    N     N_1   0.238909 0.258985 0.968436 -0.173753
N4    N     N_1   0.007540 0.767711 0.248768 -0.186540
N5    N     N_1   0.252375 0.655033 0.867240 -0.125342
N6    N     N_1   0.673556 0.286027 0.099661 -0.116547
N7    N     N_1   0.904509 0.386763 0.232123 -0.162904
N8    N     N_1   0.064628 0.774772 0.614758 -0.183398
O1    O     O_R   0.568940 0.489660 0.307530 -0.614893
O2    O     O_3   0.279116 0.917591 0.891085 -0.761140
O3    O     O_3   0.894166 0.552589 0.633502 -0.759421
O4    O     O_3   0.124259 0.363314 0.447482 -0.754004
O5    O     O_R   0.431060 0.510340 0.692470 -0.627831
O6    O     O_R   0.348880 0.522640 0.340350 -0.635415
O7    O     O_R   0.651120 0.477360 0.659650 -0.582624
O8    O     O_R   0.610030 0.300280 0.483580 -0.607108
O9    O     O_R   0.389970 0.699720 0.516420 -0.614708
O10   O     O_R   0.389970 0.333270 0.516400 -0.605531
O11   O     O_R   0.610030 0.666730 0.483600 -0.667765
O12   O     O_3   0.803481 0.070258 0.181955 -0.744546
Zn1   Zn    Zn3+2 0.646940 0.477980 0.478080 0.970227
Zn2   Zn    Zn3+2 0.353060 0.522020 0.521920 0.969847

loop_
_geom_bond_atom_site_label_1
_geom_bond_atom_site_label_2
_ccdc_geom_bond_type
O10   Zn2   S    
C6    C8    A    
C21   C26   S    
C10   H5    S    
C24   N1    S    
C20   C27   S    
C29   N2    D    
C25   C27   D    
H10   O3    S    
C2    C16   S    
C11   C16   A    
C20   N5    T    
N2    Zn1   S    
C13   C17   A    
C12   C25   S    
C1    O6    A    
C7    C9    A    
C4    C15   A    
C22   N7    T    
C2    O9    A    
O9    Zn2   S    
C18   N3    T    
C6    O2    S    
C3    H1    S    
C17   C30   S    
C9    C11   A    
C14   C17   A    
C26   C27   S    
C22   N2    S    
C3    C14   A    
C30   O8    A    
N1    Zn2   S    
H8    O12   S    
C30   O10   A    
C8    C10   A    
C28   C29   S    
C2    O11   A    
C1    C23   S    
C7    C19   S    
C13   C15   A    
C29   O3    S    
C9    H4    S    
C11   C14   A    
O11   Zn1   S    
C12   O7    A    
O1    Zn1   S    
C4    H3    S    
C25   H6    S    
C15   C16   A    
C24   N8    T    
O7    Zn1   S    
C28   N1    D    
H9    O2    S    
C19   N4    T    
C4    C6    A    
C21   N6    T    
O5    Zn2   S    
C23   C26   D    
C5    C7    A    
O8    Zn1   S    
H2    O4    S    
C28   O4    S    
O6    Zn2   S    
C5    O12   S    
C23   H7    S    
C1    O1    A    
C8    C18   S    
C12   O5    A    
C3    C5    A    
C10   C13   A    
