data_mof_unit_49165.cif
_audit_creation_date              2012-12-11T15:59:50-0500
_audit_creation_method            fapswitch 2.2
_symmetry_space_group_name_H-M    P1
_symmetry_Int_Tables_number       1
_space_group_crystal_system       triclinic
_cell_length_a                    10.712683
_cell_length_b                    10.82804
_cell_length_c                    17.035568
_cell_angle_alpha                 100.128024
_cell_angle_beta                  99.827361
_cell_angle_gamma                 60.756607
_cell_volume                      1689.07881124

loop_
_atom_site_label
_atom_site_type_symbol
_atom_type_description
_atom_site_fract_x
_atom_site_fract_y
_atom_site_fract_z
_atom_type_partial_charge
Br1   Br    Br    0.970548 0.794118 0.314350 -0.532884
C1    C     C_R   0.356238 0.769183 0.398553 0.533910
C2    C     C_R   0.867949 0.323916 0.337517 -0.040266
C3    C     C_R   0.353444 0.824523 0.159802 -0.013676
C4    C     C_R   0.406766 0.373428 0.356491 0.563021
C5    C     C_R   0.436029 0.870521 0.221040 0.005914
C6    C     C_R   0.425086 0.866990 0.301955 0.010917
C7    C     C_R   0.293504 0.732782 0.257115 -0.135488
C8    C     C_R   0.293603 0.744794 0.178320 -0.047399
C9    C     C_R   0.527155 0.922025 0.205272 -0.068663
C10   C     C_R   0.597695 0.973444 0.267057 -0.070597
C11   C     C_R   0.587966 0.967320 0.345967 -0.048067
C12   C     C_R   0.860853 0.207387 0.202807 0.004253
C13   C     C_R   0.495686 0.923287 0.363671 -0.084738
C14   C     C_R   0.348290 0.802185 0.318985 0.001905
C15   C     C_R   0.330815 0.316307 0.814390 -0.006101
C16   C     C_R   0.784112 0.373007 0.406949 0.529617
C17   C     C_R   0.439096 0.202771 0.768591 0.032069
C18   C     C_R   0.412312 0.192381 0.685004 0.030800
C19   C     C_R   0.217554 0.435346 0.694692 -0.152075
C20   C     C_R   0.219671 0.431183 0.775997 -0.154071
C21   C     C_R   0.571122 0.096952 0.802418 -0.074988
C22   C     C_R   0.655716 0.971752 0.756120 -0.117705
C23   C     C_R   0.878710 0.204055 0.286646 -0.021003
C24   C     C_R   0.612412 0.951191 0.675327 -0.093154
C25   C     C_R   0.492105 0.061263 0.639468 -0.064914
C26   C     C_R   0.318090 0.318236 0.649282 -0.008062
C27   C     C_1   0.817036 0.343026 0.709153 -0.029791
C28   C     C_R   0.381541 0.714474 0.631258 0.557123
C29   C     C_1   0.844288 0.313610 0.776668 -0.031785
C30   C     C_1   0.359131 0.763965 0.713656 -0.036834
C31   C     C_1   0.326445 0.811004 0.780750 -0.036978
C32   C     C_R   0.896089 0.308460 0.090312 0.530529
C33   C     C_R   0.321890 0.302255 0.119229 0.562231
C34   C     C_R   0.888732 0.424614 0.308523 -0.042873
C35   C     C_R   0.297382 0.890262 0.085030 0.549926
C36   C     C_R   0.886136 0.297104 0.859133 0.543830
C37   C     C_R   0.308641 0.290635 0.891468 0.544507
C38   C     C_R   0.281265 0.880670 0.857866 0.552954
C39   C     C_R   0.364470 0.344940 0.580923 0.539057
C40   C     C_R   0.772426 0.381643 0.629884 0.545044
C41   C     C_1   0.375428 0.360770 0.272119 -0.043267
C42   C     C_1   0.349594 0.342814 0.201248 -0.036230
C43   C     C_R   0.854924 0.325184 0.171918 -0.034515
C44   C     C_1   0.938991 0.512307 0.364400 0.273324
C45   C     C_R   0.861005 0.437953 0.226933 -0.048065
C46   C     C_1   0.836698 0.568777 0.200668 0.282728
C47   C     C_1   0.224439 0.680865 0.117363 0.211336
C48   C     C_R   0.851613 0.091299 0.153855 -0.104774
C49   C     C_R   0.889178 0.966478 0.186066 -0.103520
C50   C     C_R   0.924632 0.959512 0.268254 0.141897
C51   C     C_R   0.913588 0.079018 0.318591 -0.068816
Cr1   Cr    Cr6+3 0.608100 0.610860 0.522250 1.006060
Cr2   Cr    Cr6+3 0.288890 0.599990 0.488420 1.077537
Cr3   Cr    Cr6+3 0.603040 0.289190 0.489390 0.998378
Cr4   Cr    Cr6+3 0.053960 0.052250 0.967380 1.022839
Cr5   Cr    Cr6+3 0.059890 0.373160 0.992710 1.072584
Cr6   Cr    Cr6+3 0.373370 0.061690 0.991710 1.009203
H1    H     H_    0.660036 0.018468 0.253323 0.145121
H2    H     H_    0.813732 0.095236 0.090962 0.138922
H3    H     H_    0.887356 0.876631 0.147338 0.162858
H4    H     H_    0.937464 0.072260 0.382595 0.152901
H5    H     H_    0.251360 0.666667 0.270082 0.180153
H6    H     H_    0.556167 0.914662 0.146609 0.170112
H7    H     H_    0.649156 0.000661 0.393896 0.159104
H8    H     H_    0.481763 0.933643 0.426206 0.120113
H9    H     H_    0.141467 0.532183 0.668185 0.147690
H10   H     H_    0.611169 0.110408 0.864319 0.135114
H11   H     H_    0.135650 0.518317 0.809044 0.145121
H12   H     H_    0.753986 0.890046 0.783223 0.117140
H13   H     H_    0.675675 0.852710 0.639676 0.131041
H14   H     H_    0.464355 0.046073 0.575603 0.118065
N1    N     N_1   0.979450 0.579184 0.411397 -0.216970
N2    N     N_1   0.817469 0.671358 0.177463 -0.280970
N3    N     N_1   0.167762 0.632395 0.067815 -0.271368
O1    O     O_R   0.749810 0.499790 0.438040 -0.501313
O2    O     O_R   0.411730 0.181020 0.091530 -0.538063
O3    O     O_R   0.365010 0.944360 0.063320 -0.526287
O4    O     O_R   0.477660 0.726260 0.439290 -0.512816
O5    O     O_R   0.159380 0.906670 0.876210 -0.507021
O6    O     O_R   0.930820 0.177420 0.886730 -0.500210
O7    O     O_R   0.910360 0.395420 0.895720 -0.510743
O8    O     O_R   0.186010 0.361730 0.919870 -0.485986
O9    O     O_R   0.400000 0.173010 0.914630 -0.532145
O10   O     O_R   0.354140 0.936940 0.899340 -0.493422
O11   O     O_3   0.162410 0.162370 0.983930 -0.254798
O12   O     O_R   0.298970 0.468800 0.557390 -0.502176
O13   O     O_R   0.260150 0.743000 0.412270 -0.475216
O14   O     O_R   0.297740 0.466550 0.394720 -0.457626
O15   O     O_R   0.488080 0.253500 0.386430 -0.531646
O16   O     O_R   0.722670 0.303800 0.421940 -0.520927
O17   O     O_R   0.751130 0.502220 0.613520 -0.518163
O18   O     O_R   0.478890 0.728510 0.601960 -0.500947
O19   O     O_R   0.261470 0.745430 0.587750 -0.496783
O20   O     O_R   0.489400 0.255930 0.561910 -0.521561
O21   O     O_R   0.723890 0.306050 0.584610 -0.494422
O22   O     O_3   0.500010 0.500010 0.500020 -0.294234
O23   O     O_R   0.171100 0.914680 0.053100 -0.495613
O24   O     O_R   0.941680 0.184840 0.050710 -0.511580
O25   O     O_R   0.922080 0.403420 0.072610 -0.493747
O26   O     O_R   0.196880 0.369150 0.083850 -0.458896

loop_
_geom_bond_atom_site_label_1
_geom_bond_atom_site_label_2
_ccdc_geom_bond_type
C23   C51   A    
C28   O18   A    
C4    C41   S    
C3    C35   S    
C15   C20   A    
C37   O8    A    
C25   H14   S    
C19   H9    S    
C16   O16   A    
Cr4   O23   S    
Cr4   O6    S    
C48   H2    S    
C39   O12   A    
Cr1   O4    S    
Cr3   O15   S    
C33   O2    A    
Cr2   O12   S    
C40   O21   A    
C27   C40   S    
Cr5   O11   S    
C44   N1    T    
C17   C18   A    
C31   C38   S    
C18   C25   A    
Cr3   O16   S    
C1    O4    A    
Cr6   O2    S    
C6    C13   A    
C7    C8    A    
C16   O1    A    
Cr5   O8    S    
Cr2   O22   S    
C1    O13   A    
C24   H13   S    
C18   C26   A    
C4    O15   A    
C6    C14   A    
C47   N3    T    
C36   O6    A    
C2    C23   A    
C10   H1    S    
Cr6   O11   S    
C43   C45   A    
C21   C22   A    
C33   O26   A    
Cr1   O18   S    
C50   C51   A    
Cr2   O14   S    
Cr3   O20   S    
Cr1   O22   S    
C24   C25   A    
Cr5   O25   S    
C29   C36   S    
C20   H11   S    
C32   O24   A    
Cr6   O9    S    
Cr4   O11   S    
C30   C31   T    
C2    C34   A    
C26   C39   S    
Cr3   O22   S    
Cr1   O17   S    
C49   C50   A    
C13   H8    S    
C1    C14   S    
Br1   C50   S    
C21   H10   S    
C12   C48   A    
C3    C5    A    
C11   C13   A    
C7    C14   A    
C36   O7    A    
Cr1   O1    S    
C41   C42   T    
C38   O10   A    
C39   O20   A    
C34   C44   S    
Cr6   O10   S    
C45   C46   S    
C37   O9    A    
C17   C21   A    
C32   C43   S    
C9    H6    S    
C33   C42   S    
C46   N2    T    
Cr3   O21   S    
C22   H12   S    
C5    C9    A    
C35   O23   A    
C10   C11   A    
C5    C6    A    
C19   C26   A    
Cr5   O26   S    
C11   H7    S    
Cr4   O5    S    
C32   O25   A    
C38   O5    A    
C27   C29   T    
C28   C30   S    
C51   H4    S    
Cr2   O13   S    
C28   O19   A    
C2    C16   S    
C22   C24   A    
Cr2   O19   S    
C9    C10   A    
Cr6   O3    S    
C7    H5    S    
C40   O17   A    
C19   C20   A    
C12   C23   A    
C8    C47   S    
C15   C17   A    
C48   C49   A    
C49   H3    S    
Cr5   O7    S    
C35   O3    A    
Cr4   O24   S    
C3    C8    A    
C34   C45   A    
C12   C43   A    
C4    O14   A    
C15   C37   S    
