data_mof_unit_19756.cif
_audit_creation_date              2012-12-10T16:52:05-0500
_audit_creation_method            fapswitch 2.2
_symmetry_space_group_name_H-M    P1
_symmetry_Int_Tables_number       1
_space_group_crystal_system       triclinic
_cell_length_a                    7.748569
_cell_length_b                    8.565038
_cell_length_c                    14.983886
_cell_angle_alpha                 91.217882
_cell_angle_beta                  85.680429
_cell_angle_gamma                 93.84652
_cell_volume                      989.242705549

loop_
_atom_site_label
_atom_site_type_symbol
_atom_type_description
_atom_site_fract_x
_atom_site_fract_y
_atom_site_fract_z
_atom_type_partial_charge
C1    C     C_R   0.545989 0.794858 0.497712 0.949108
C2    C     C_R   0.454010 0.205142 0.502287 0.949110
C3    C     C_R   0.800237 0.612823 0.945878 -0.219877
C4    C     C_R   0.199767 0.387175 0.054122 -0.219835
C5    C     C_2   0.570208 0.958411 0.496475 -0.383785
C6    C     C_2   0.429792 0.041589 0.503525 -0.383789
C7    C     C_R   0.502261 0.501602 0.673101 0.911736
C8    C     C_R   0.497739 0.498398 0.326899 0.911740
C9    C     C_R   0.347224 0.435098 0.190093 0.522312
C10   C     C_R   0.652778 0.564902 0.809907 0.522310
C11   C     C_R   0.494562 0.495978 0.231309 -0.215156
C12   C     C_R   0.505438 0.504024 0.768691 -0.215146
C13   C     C_R   0.643522 0.553216 0.181397 -0.285280
C14   C     C_R   0.356477 0.446790 0.818604 -0.285312
C15   C     C_R   0.648232 0.554562 0.089027 0.014007
C16   C     C_R   0.351768 0.445444 0.910973 0.013981
C17   C     C_R   0.499058 0.498472 0.046510 -0.058584
C18   C     C_R   0.500942 0.501535 0.953491 -0.058574
C19   C     C_R   0.347704 0.439973 0.097088 -0.039735
C20   C     C_R   0.652297 0.560031 0.902912 -0.039720
C21   C     C_R   0.798370 0.613692 0.039010 0.525563
C22   C     C_R   0.201634 0.386309 0.960991 0.525541
H1    H     H_    0.755344 0.599355 0.215274 0.232877
H2    H     H_    0.244655 0.400652 0.784727 0.232878
H3    H     H_    0.918551 0.651943 0.907403 0.206400
H4    H     H_    0.081454 0.348041 0.092594 0.206409
H5    H     H_    0.702697 0.009806 0.489813 0.179549
H6    H     H_    0.297303 0.990194 0.510187 0.179548
H7    H     H_    0.014169 0.382752 0.432232 0.214005
H8    H     H_    0.985831 0.617248 0.567768 0.214003
N1    N     N_2   0.950330 0.457950 0.475660 -0.167297
N2    N     N_2   0.049670 0.542050 0.524340 -0.167298
O1    O     O_R   0.389250 0.738570 0.505970 -0.618062
O2    O     O_R   0.610750 0.261430 0.494030 -0.618060
O3    O     O_R   0.678390 0.711620 0.490370 -0.634128
O4    O     O_R   0.321610 0.288380 0.509630 -0.634128
O5    O     O_R   0.355420 0.513510 0.639950 -0.624246
O6    O     O_R   0.644580 0.486490 0.360050 -0.624243
O7    O     O_R   0.644560 0.486560 0.624350 -0.577028
O8    O     O_R   0.355440 0.513440 0.375650 -0.577029
Zn1   Zn    Zn3+2 0.306940 0.517990 0.510420 0.968575
Zn2   Zn    Zn3+2 0.693060 0.482010 0.489580 0.968578
O9    O     O_3   0.201473 0.375603 0.240742 -0.594178
C23   C     C_3   0.218197 0.214872 0.254099 -0.349132
H9    H     H_    0.100867 0.166972 0.293978 0.193389
H10   H     H_    0.332279 0.195723 0.292457 0.157378
H11   H     H_    0.226999 0.148455 0.189419 0.146688
O10   O     O_3   0.798533 0.624387 0.759257 -0.594177
C24   C     C_3   0.781821 0.785119 0.745899 -0.349152
H12   H     H_    0.667742 0.804273 0.707538 0.157381
H13   H     H_    0.899155 0.833013 0.706020 0.193385
H14   H     H_    0.773020 0.851539 0.810578 0.146689
O11   O     O_3   0.946972 0.659377 0.081476 -0.598585
C25   C     C_3   0.988256 0.820707 0.069051 -0.369858
H15   H     H_    0.089708 0.859926 0.114529 0.200796
H16   H     H_    0.874183 0.891083 0.086277 0.153306
H17   H     H_    0.042717 0.844135 0.999569 0.159250
O12   O     O_3   0.053034 0.340603 0.918529 -0.598578
C26   C     C_3   0.011886 0.179240 0.930889 -0.369886
H18   H     H_    0.126003 0.108958 0.913577 0.153345
H19   H     H_    0.910377 0.140026 0.885446 0.200805
H20   H     H_    0.957565 0.155695 0.000383 0.159215

loop_
_geom_bond_atom_site_label_1
_geom_bond_atom_site_label_2
_ccdc_geom_bond_type
C22   O12   S    
C4    H4    S    
N2    Zn1   S    
C25   H16   S    
N1    Zn2   S    
C21   O11   S    
C4    C22   A    
C10   C20   A    
N1    N2    D    
O2    Zn2   S    
C23   H11   S    
C15   C21   A    
O9    C23   S    
C24   H14   S    
O1    Zn1   S    
C2    O2    A    
C13   C15   A    
C17   C18   A    
C7    O5    A    
C1    O1    A    
C26   H18   S    
H7    N1    S    
O11   C25   S    
H8    N2    S    
C9    C11   A    
C1    O3    A    
O4    Zn1   S    
C2    C6    S    
C10   C12   A    
C8    C11   S    
C1    C5    S    
O10   C24   S    
C17   C19   A    
C12   C14   A    
O6    Zn2   S    
O7    Zn2   S    
C18   C20   A    
C8    O6    A    
C10   O10   S    
C5    C6    D    
C14   C16   A    
C7    C12   S    
C3    C21   A    
C11   C13   A    
C9    O9    S    
C2    O4    A    
C3    C20   A    
C3    H3    S    
C23   H9    S    
C13   H1    S    
C16   C18   A    
C24   H12   S    
C26   H19   S    
C14   H2    S    
C15   C17   A    
O3    Zn2   S    
C7    O7    A    
C25   H15   S    
O8    Zn1   S    
C26   H20   S    
C16   C22   A    
C8    O8    A    
O12   C26   S    
C5    H5    S    
C4    C19   A    
O5    Zn1   S    
C9    C19   A    
C6    H6    S    
C23   H10   S    
C24   H13   S    
C25   H17   S    
