data_mof_unit_18447.cif
_audit_creation_date              2012-12-11T15:20:18-0500
_audit_creation_method            fapswitch 2.2
_symmetry_space_group_name_H-M    P1
_symmetry_Int_Tables_number       1
_space_group_crystal_system       triclinic
_cell_length_a                    13.055939
_cell_length_b                    13.116458
_cell_length_c                    15.525092
_cell_angle_alpha                 117.17083
_cell_angle_beta                  62.328802
_cell_angle_gamma                 98.387862
_cell_volume                      2087.3270721

loop_
_atom_site_label
_atom_site_type_symbol
_atom_type_description
_atom_site_fract_x
_atom_site_fract_y
_atom_site_fract_z
_atom_type_partial_charge
C1    C     C_R   0.988701 0.828431 0.066026 -0.062059
C2    C     C_R   0.669051 0.527799 0.324266 0.059822
C3    C     C_R   0.648845 0.481360 0.954703 0.176460
C4    C     C_R   0.061417 0.801816 0.306412 -0.018945
C5    C     C_R   0.338034 0.500559 0.938088 0.203181
C6    C     C_R   0.896693 0.204340 0.796763 0.563421
C7    C     C_R   0.182943 0.535744 0.710449 0.204327
C8    C     C_R   0.042734 0.260781 0.096304 0.128454
C9    C     C_R   0.958211 0.169654 0.990996 0.155755
C10   C     C_R   0.278077 0.623202 0.806461 0.606907
C11   C     C_R   0.257183 0.414680 0.045931 -0.135857
C12   C     C_R   0.678134 0.462513 0.221394 -0.075529
C13   C     C_R   0.996019 0.291644 0.692942 0.574951
C14   C     C_R   0.358921 0.424719 0.967292 -0.175289
C15   C     C_R   0.934087 0.198320 0.695357 -0.327804
C16   C     C_R   0.266991 0.610541 0.717303 -0.144122
C17   C     C_R   0.005441 0.155673 0.048996 0.118361
C18   C     C_R   0.977608 0.997239 0.420948 -0.185580
C19   C     C_R   0.938037 0.092473 0.519590 -0.086878
C20   C     C_R   0.958959 0.093554 0.599757 0.130863
C21   C     C_R   0.018897 0.000463 0.582847 -0.206744
C22   C     C_R   0.057657 0.904433 0.484001 -0.136522
C23   C     C_R   0.746600 0.531800 0.908649 -0.144518
C24   C     C_R   0.037968 0.904332 0.403287 0.154478
C25   C     C_R   0.495896 0.653512 0.478530 -0.267761
C26   C     C_R   0.394365 0.674936 0.574235 0.245431
C27   C     C_R   0.367706 0.594545 0.616473 0.016515
C28   C     C_R   0.434908 0.489677 0.557938 -0.231077
C29   C     C_R   0.530387 0.465246 0.459498 0.244760
C30   C     C_R   0.564296 0.549748 0.422714 0.019637
C31   C     C_2   0.474343 0.396860 0.946149 0.644695
C32   C     C_2   0.538457 0.487424 0.961179 -0.331935
C33   C     C_2   0.792744 0.932508 0.135757 0.394748
C34   C     C_R   0.006271 0.704657 0.306120 -0.165824
C35   C     C_2   0.793864 0.026882 0.221422 0.445229
C36   C     C_R   0.668867 0.433945 0.006919 -0.032045
C37   C     C_R   0.094166 0.800845 0.208403 0.181829
C38   C     C_R   0.779299 0.547561 0.316944 -0.077997
C39   C     C_R   0.892144 0.745851 0.968576 -0.004633
C40   C     C_R   0.894722 0.846262 0.053665 -0.012380
H1    H     H_    0.007967 0.884365 0.131789 0.176983
H2    H     H_    0.247387 0.364983 0.087562 0.165544
H3    H     H_    0.958296 0.993767 0.359158 0.148757
H4    H     H_    0.892650 0.165497 0.533420 0.135568
H5    H     H_    0.037416 0.003424 0.645084 0.171784
H6    H     H_    0.608333 0.426034 0.200997 0.117284
H7    H     H_    0.102006 0.830879 0.470424 0.158303
H8    H     H_    0.519986 0.715928 0.446234 0.166995
H9    H     H_    0.410404 0.425008 0.587660 0.161622
H10   H     H_    0.505869 0.573240 0.986485 0.159064
H11   H     H_    0.761924 0.565728 0.852315 0.148087
H12   H     H_    0.975337 0.675441 0.368182 0.136469
H13   H     H_    0.615225 0.378813 0.041909 0.150461
H14   H     H_    0.802187 0.589824 0.383032 0.116010
H15   H     H_    0.825724 0.729375 0.942411 0.134762
N1    N     N_R   0.037310 0.720000 0.995790 -0.046713
N2    N     N_R   0.946240 0.290860 0.848040 -0.123417
N3    N     N_R   0.146140 0.501160 0.788590 -0.122834
N4    N     N_R   0.025760 0.332690 0.063610 -0.088489
N5    N     N_R   0.962690 0.280000 0.004210 -0.080313
N6    N     N_R   0.209210 0.553840 0.847990 -0.113774
N7    N     N_R   0.175110 0.482040 0.063580 -0.045282
N8    N     N_R   0.996790 0.351810 0.788620 -0.137834
N9    N     N_R   0.790790 0.446160 0.152010 -0.047482
N10   N     N_R   0.824890 0.517960 0.936420 -0.066103
N11   N     N_R   0.003210 0.648190 0.211380 -0.056878
N12   N     N_R   0.774330 0.457010 0.995840 -0.064477
N13   N     N_R   0.053760 0.709140 0.151960 -0.076724
N14   N     N_R   0.853860 0.498840 0.211410 -0.043417
N15   N     N_R   0.974240 0.667310 0.936390 -0.060460
N16   N     N_R   0.225670 0.542990 0.004160 -0.046641
Ni1   Ni    Ni4+2 0.130310 0.630310 0.999970 0.293930
Ni2   Ni    Ni4+2 0.869690 0.369690 0.000030 0.265064
Ni3   Ni    Ni4+2 0.985640 0.509470 0.863740 0.245014
Ni4   Ni    Ni4+2 0.014360 0.490530 0.136260 0.241302
O1    O     O_3   0.790608 0.172994 0.856819 -0.594894
C41   C     C_3   0.741016 0.091100 0.792568 -0.088905
H16   H     H_    0.719843 0.126010 0.749037 0.141024
H17   H     H_    0.658939 0.069925 0.847149 0.165425
H18   H     H_    0.797572 0.009532 0.735698 0.135737
I1    I     I_    0.073779 0.558714 0.652509 -0.288097
I2    I     I_    0.063158 0.314503 0.237943 -0.385290
I3    I     I_    0.899557 0.024751 0.897401 -0.438380
O2    O     O_3   0.312070 0.720010 0.873213 -0.590810
C42   C     C_3   0.392754 0.779536 0.818278 -0.110420
H19   H     H_    0.467384 0.721434 0.743556 0.135618
H20   H     H_    0.349037 0.829450 0.801670 0.157273
H21   H     H_    0.428711 0.842509 0.872500 0.175051
O3    O     O_3   0.068586 0.305158 0.600689 -0.589337
C43   C     C_3   0.180849 0.255423 0.557948 -0.120159
H22   H     H_    0.183396 0.160073 0.519701 0.148223
H23   H     H_    0.212820 0.285511 0.620098 0.100467
H24   H     H_    0.241957 0.280921 0.493708 0.190425
I4    I     I_    0.283128 0.823855 0.645361 -0.411850
I5    I     I_    0.612173 0.296430 0.367231 -0.498289
O4    O     O_3   0.516411 0.287743 0.916346 -0.621750
C44   C     C_3   0.457274 0.200222 0.866441 -0.191124
H25   H     H_    0.453557 0.210107 0.800382 0.149207
H26   H     H_    0.368978 0.197293 0.927329 0.154597
H27   H     H_    0.504633 0.115762 0.828858 0.140795
O5    O     O_3   0.685526 0.900516 0.138974 -0.637084
C45   C     C_3   0.649710 0.961830 0.101769 -0.149230
H28   H     H_    0.555136 0.955939 0.127910 0.192353
H29   H     H_    0.693603 0.921176 0.011765 0.168789
H30   H     H_    0.664214 0.054930 0.135503 0.153274
O6    O     O_3   0.892302 0.060999 0.234954 -0.653711
C46   C     C_3   0.856318 0.147910 0.341719 -0.151327
H31   H     H_    0.824756 0.228162 0.351261 0.201426
H32   H     H_    0.932324 0.168167 0.358727 0.197266
H33   H     H_    0.789415 0.120508 0.402906 0.115346
I6    I     I_    0.223538 0.899384 0.144256 -0.352736
I7    I     I_    0.475422 0.514459 0.796978 -0.467392

loop_
_geom_bond_atom_site_label_1
_geom_bond_atom_site_label_2
_ccdc_geom_bond_type
C26   I4    S    
N11   N13   A    
O5    C45   S    
C3    C23   A    
C19   C20   A    
C14   C31   S    
C33   O5    S    
C11   N7    A    
C2    C12   A    
C34   N11   A    
C44   H25   S    
C36   N12   A    
C41   H16   S    
C26   C27   A    
C11   H2    S    
C8    I2    S    
C28   C29   A    
C1    N1    A    
C8    N4    A    
C4    C24   S    
C11   C14   A    
C41   H18   S    
O6    C46   S    
C31   O4    S    
C37   N13   A    
N5    Ni2   S    
C45   H30   S    
C18   C19   A    
N2    Ni2   S    
C36   H13   S    
C1    C40   A    
C6    C15   A    
C23   H11   S    
C39   H15   S    
N10   N12   A    
C13   N8    A    
N15   Ni3   S    
N9    Ni2   S    
N12   Ni2   S    
C7    N3    A    
N3    N6    A    
C42   H20   S    
C22   H7    S    
C38   N14   A    
N4    N5    A    
C21   C22   A    
C46   H32   S    
C6    N2    A    
C3    C32   S    
C44   H26   S    
N2    N8    A    
C21   H5    S    
C41   H17   S    
C15   C20   S    
C4    C34   A    
C33   C40   S    
O2    C42   S    
C12   H6    S    
C39   C40   A    
C29   I5    S    
N1    Ni1   S    
C25   C26   A    
C42   H19   S    
N10   Ni3   S    
C29   C30   A    
C28   H9    S    
C2    C38   A    
C43   H23   S    
C31   C32   D    
C38   H14   S    
N13   Ni1   S    
O4    C44   S    
C20   C21   A    
N9    N14   A    
O1    C41   S    
C45   H29   S    
C25   H8    S    
C32   H10   S    
C5    C14   A    
C9    I3    S    
N6    Ni1   S    
C1    H1    S    
C7    C16   A    
C7    I1    S    
N1    N15   A    
C13   C15   A    
C46   H33   S    
C18   C24   A    
N7    Ni4   S    
C10   N6    A    
C46   H31   S    
N4    Ni4   S    
C44   H27   S    
C19   H4    S    
N3    Ni3   S    
C43   H24   S    
C42   H21   S    
C9    C17   A    
C25   C30   A    
C13   O3    S    
C6    O1    S    
N8    Ni3   S    
C5    I7    S    
C34   H12   S    
C8    C17   A    
C2    C30   S    
C9    N5    A    
C23   N10   A    
N16   Ni1   S    
C5    N16   A    
C35   O6    S    
C10   C16   A    
C18   H3    S    
C43   H22   S    
C3    C36   A    
C16   C27   S    
C12   N9    A    
N11   Ni4   S    
C10   O2    S    
C33   C35   D    
C39   N15   A    
N7    N16   A    
N14   Ni4   S    
C22   C24   A    
C45   H28   S    
C37   I6    S    
C4    C37   A    
C27   C28   A    
O3    C43   S    
