data_mof_unit_60746.cif
_audit_creation_date              2012-10-26T17:15:38-0400
_audit_creation_method            fapswitch 2.2
_symmetry_space_group_name_H-M    P1
_symmetry_Int_Tables_number       1
_space_group_crystal_system       monoclinic
_cell_length_a                    30.133729
_cell_length_b                    31.345698
_cell_length_c                    21.356889
_cell_angle_alpha                 90.0
_cell_angle_beta                  135.033991
_cell_angle_gamma                 90.0
_cell_volume                      14255.9451491

loop_
_atom_site_label
_atom_site_type_symbol
_atom_type_description
_atom_site_fract_x
_atom_site_fract_y
_atom_site_fract_z
_atom_type_partial_charge
C1    C     C_R   0.309148 0.808638 0.119838 0.533629
C2    C     C_R   0.477267 0.672033 0.000866 -0.124276
C3    C     C_R   0.302485 0.187845 0.248587 -0.096057
C4    C     C_R   0.196318 0.689035 0.685011 -0.107660
C5    C     C_R   0.803680 0.689035 0.314988 -0.107660
C6    C     C_R   0.696316 0.189036 0.685009 -0.107661
C7    C     C_R   0.303679 0.189034 0.314986 -0.107660
C8    C     C_R   0.156440 0.662058 0.612223 -0.105442
C9    C     C_R   0.843558 0.662057 0.387776 -0.105443
C10   C     C_R   0.656438 0.162058 0.612221 -0.105441
C11   C     C_R   0.343557 0.162056 0.387774 -0.105443
C12   C     C_R   0.119202 0.632646 0.606953 -0.087467
C13   C     C_R   0.022734 0.172033 0.999135 -0.124276
C14   C     C_R   0.880797 0.632646 0.393046 -0.087467
C15   C     C_R   0.619201 0.132646 0.606952 -0.087466
C16   C     C_R   0.380796 0.132645 0.393045 -0.087466
C17   C     C_R   0.121621 0.629488 0.675414 0.026059
C18   C     C_R   0.878379 0.629488 0.324586 0.026059
C19   C     C_R   0.621620 0.129488 0.675413 0.026059
C20   C     C_R   0.378378 0.129488 0.324585 0.026060
C21   C     C_R   0.158759 0.659157 0.746272 0.009053
C22   C     C_R   0.841240 0.659157 0.253727 0.009053
C23   C     C_R   0.658758 0.159157 0.746272 0.009053
C24   C     C_R   0.977267 0.172033 0.000867 -0.124276
C25   C     C_R   0.341240 0.159157 0.253726 0.009053
C26   C     C_R   0.156395 0.659230 0.810244 0.014718
C27   C     C_R   0.843604 0.659230 0.189756 0.014718
C28   C     C_R   0.656395 0.159230 0.810244 0.014718
C29   C     C_R   0.343604 0.159230 0.189756 0.014718
C30   C     C_R   0.118254 0.629967 0.804214 0.068608
C31   C     C_R   0.881747 0.629968 0.195787 0.068609
C32   C     C_R   0.618254 0.129967 0.804215 0.068607
C33   C     C_R   0.381747 0.129968 0.195787 0.068610
C34   C     C_R   0.084708 0.599668 0.737480 -0.102109
C35   C     C_R   0.476331 0.827473 0.998979 -0.120030
C36   C     C_R   0.915293 0.599669 0.262521 -0.102108
C37   C     C_R   0.584708 0.099668 0.737481 -0.102111
C38   C     C_R   0.415293 0.099669 0.262521 -0.102106
C39   C     C_R   0.164393 0.750058 0.000012 0.546396
C40   C     C_R   0.835607 0.750058 0.999988 0.546396
C41   C     C_R   0.664393 0.250057 0.000012 0.546398
C42   C     C_R   0.335606 0.250058 0.999988 0.546394
C43   C     C_R   0.087163 0.598206 0.674488 -0.012658
C44   C     C_R   0.912837 0.598206 0.325513 -0.012658
C45   C     C_R   0.587163 0.098206 0.674488 -0.012657
C46   C     C_R   0.523669 0.827473 0.001020 -0.120030
C47   C     C_R   0.412837 0.098206 0.325512 -0.012658
C48   C     C_R   0.943759 0.562149 0.387493 0.538440
C49   C     C_R   0.056241 0.562149 0.612507 0.538439
C50   C     C_R   0.443759 0.062149 0.387493 0.538440
C51   C     C_R   0.556241 0.062149 0.612507 0.538440
C52   C     C_R   0.439099 0.941532 0.378378 0.593569
C53   C     C_R   0.560901 0.941532 0.621622 0.593568
C54   C     C_R   0.939099 0.441532 0.378378 0.593570
C55   C     C_R   0.060901 0.441532 0.621622 0.593570
C56   C     C_R   0.594393 0.788543 0.002894 -0.125542
C57   C     C_R   0.976330 0.327473 0.998978 -0.120030
C58   C     C_R   0.405607 0.788543 0.997106 -0.125542
C59   C     C_R   0.094393 0.288543 0.002893 -0.125541
C60   C     C_R   0.905606 0.288543 0.997105 -0.125542
C61   C     C_R   0.616110 0.749787 0.000131 -0.005182
C62   C     C_R   0.383890 0.749787 0.999869 -0.005183
C63   C     C_R   0.116110 0.249787 0.000131 -0.005182
C64   C     C_R   0.883890 0.249787 0.999869 -0.005183
C65   C     C_R   0.591739 0.710994 0.997508 -0.132268
C66   C     C_R   0.408261 0.710994 0.002492 -0.132268
C67   C     C_R   0.091740 0.210994 0.997509 -0.132268
C68   C     C_R   0.023669 0.327473 0.001019 -0.120030
C69   C     C_R   0.908261 0.210994 0.002492 -0.132267
C70   C     C_R   0.546045 0.710671 0.998847 0.014841
C71   C     C_R   0.453955 0.710671 0.001153 0.014841
C72   C     C_R   0.046046 0.210671 0.998848 0.014841
C73   C     C_R   0.953955 0.210671 0.001154 0.014841
C74   C     C_R   0.523351 0.749749 0.000071 0.062145
C75   C     C_R   0.476649 0.749749 0.999929 0.062145
C76   C     C_R   0.023351 0.249749 0.000071 0.062145
C77   C     C_R   0.976649 0.249749 0.999929 0.062145
C78   C     C_R   0.241137 0.865452 0.134462 -0.090598
C79   C     C_R   0.758862 0.865452 0.865538 -0.090598
C80   C     C_R   0.741137 0.365453 0.134459 -0.090596
C81   C     C_R   0.690852 0.808638 0.880161 0.533629
C82   C     C_R   0.258863 0.365452 0.865538 -0.090601
C83   C     C_R   0.206322 0.897638 0.127892 -0.130040
C84   C     C_R   0.793678 0.897637 0.872107 -0.130040
C85   C     C_R   0.706321 0.397639 0.127889 -0.130040
C86   C     C_R   0.293678 0.397638 0.872108 -0.130041
C87   C     C_R   0.234171 0.936908 0.167137 -0.079747
C88   C     C_R   0.765829 0.936908 0.832862 -0.079746
C89   C     C_R   0.734171 0.436910 0.167134 -0.079747
C90   C     C_R   0.265829 0.436908 0.832862 -0.079745
C91   C     C_R   0.298049 0.943078 0.218575 0.109647
C92   C     C_R   0.809148 0.308638 0.119838 0.533630
C93   C     C_R   0.701951 0.943078 0.781424 0.109648
C94   C     C_R   0.798049 0.443079 0.218574 0.109647
C95   C     C_R   0.201951 0.443078 0.781424 0.109647
C96   C     C_R   0.336783 0.908121 0.240125 0.017433
C97   C     C_R   0.663217 0.908120 0.759875 0.017433
C98   C     C_R   0.836783 0.408121 0.240124 0.017433
C99   C     C_R   0.163217 0.408121 0.759875 0.017433
C100  C     C_R   0.305993 0.870970 0.187847 0.009982
C101  C     C_R   0.694007 0.870969 0.812152 0.009982
C102  C     C_R   0.805993 0.370970 0.187846 0.009982
C103  C     C_R   0.190852 0.308638 0.880161 0.533629
C104  C     C_R   0.194007 0.370970 0.812152 0.009982
C105  C     C_R   0.340595 0.840379 0.189207 -0.011716
C106  C     C_R   0.659405 0.840379 0.810793 -0.011715
C107  C     C_R   0.840595 0.340379 0.189207 -0.011716
C108  C     C_R   0.159405 0.340379 0.810793 -0.011716
C109  C     C_R   0.335569 0.749884 0.999930 0.532041
C110  C     C_R   0.664430 0.749884 0.000070 0.532042
C111  C     C_R   0.835569 0.249884 0.999930 0.532041
C112  C     C_R   0.164430 0.249884 0.000070 0.532042
C113  C     C_R   0.405843 0.841538 0.253941 -0.120237
C114  C     C_R   0.547317 0.788835 0.001430 0.014123
C115  C     C_R   0.594157 0.841538 0.746060 -0.120238
C116  C     C_R   0.905843 0.341537 0.253942 -0.120237
C117  C     C_R   0.094157 0.341538 0.746059 -0.120237
C118  C     C_R   0.437813 0.874125 0.316016 0.070154
C119  C     C_R   0.562187 0.874126 0.683984 0.070154
C120  C     C_R   0.937813 0.374125 0.316017 0.070154
C121  C     C_R   0.062187 0.374125 0.683984 0.070155
C122  C     C_R   0.404035 0.908676 0.308648 0.015806
C123  C     C_R   0.595965 0.908676 0.691351 0.015806
C124  C     C_R   0.904035 0.408676 0.308649 0.015807
C125  C     C_R   0.452682 0.788835 0.998570 0.014123
C126  C     C_R   0.095965 0.408676 0.691351 0.015806
C127  C     C_R   0.866797 0.748785 0.919893 -0.126847
C128  C     C_R   0.133203 0.748785 0.080107 -0.126846
C129  C     C_R   0.366795 0.248800 0.919891 -0.126854
C130  C     C_R   0.633202 0.248770 0.080106 -0.126838
C131  C     C_R   0.884001 0.750126 0.000152 -0.001981
C132  C     C_R   0.115999 0.750126 0.999848 -0.001981
C133  C     C_R   0.384001 0.250126 0.000152 -0.001973
C134  C     C_R   0.615998 0.250126 0.999848 -0.001988
C135  C     C_R   0.947326 0.751414 0.080647 -0.094685
C136  C     C_R   0.047317 0.288835 0.001429 0.014123
C137  C     C_R   0.052674 0.751415 0.919353 -0.094685
C138  C     C_R   0.447326 0.251400 0.080648 -0.094676
C139  C     C_R   0.552674 0.251430 0.919353 -0.094694
C140  C     C_R   0.994528 0.750658 0.082040 0.029248
C141  C     C_R   0.005472 0.750658 0.917960 0.029248
C142  C     C_R   0.494528 0.250642 0.082041 0.029250
C143  C     C_R   0.505471 0.250673 0.917959 0.029244
C144  C     C_R   0.976860 0.750081 0.000393 0.035001
C145  C     C_R   0.023140 0.750081 0.999607 0.035001
C146  C     C_R   0.476859 0.250081 0.000393 0.035000
C147  C     C_R   0.952682 0.288835 0.998569 0.014123
C148  C     C_R   0.523139 0.250081 0.999607 0.035002
C149  C     C_R   0.912828 0.749440 0.919370 -0.005083
C150  C     C_R   0.087172 0.749439 0.080630 -0.005084
C151  C     C_R   0.412827 0.249455 0.919369 -0.005082
C152  C     C_R   0.587171 0.249424 0.080630 -0.005084
C153  C     C_R   0.058780 0.750328 0.162473 0.091484
C154  C     C_R   0.941220 0.750329 0.837527 0.091484
C155  C     C_R   0.558780 0.250298 0.162474 0.091490
C156  C     C_R   0.441219 0.250360 0.837526 0.091478
C157  C     C_R   0.190434 0.691160 0.880207 0.555351
C158  C     C_R   0.522733 0.672033 0.999134 -0.124276
C159  C     C_R   0.809566 0.691160 0.119793 0.555350
C160  C     C_R   0.690434 0.191160 0.880207 0.555352
C161  C     C_R   0.309566 0.191160 0.119793 0.555348
C162  C     C_R   0.104369 0.749482 0.161038 -0.094873
C163  C     C_R   0.895630 0.749483 0.838962 -0.094874
C164  C     C_R   0.604369 0.249452 0.161038 -0.094872
C165  C     C_R   0.395629 0.249513 0.838960 -0.094875
C166  C     C_R   0.197513 0.687846 0.751410 -0.096058
C167  C     C_R   0.802486 0.687845 0.248588 -0.096058
C168  C     C_R   0.697512 0.187846 0.751409 -0.096058
Cu1   Cu    Cu3+1 0.280870 0.719090 0.061820 1.005429
Cu2   Cu    Cu3+1 0.455560 0.999990 0.500010 1.028233
Cu3   Cu    Cu3+1 0.044440 0.499990 0.499990 1.028237
Cu4   Cu    Cu3+1 0.955560 0.499990 0.500010 1.028234
Cu5   Cu    Cu3+1 0.719130 0.719090 0.938180 1.005429
Cu6   Cu    Cu3+1 0.780870 0.219090 0.061820 1.005426
Cu7   Cu    Cu3+1 0.219130 0.219090 0.938180 1.005432
Cu8   Cu    Cu3+1 0.219120 0.780900 0.938230 0.973278
Cu9   Cu    Cu3+1 0.780880 0.780900 0.061770 0.973278
Cu10  Cu    Cu3+1 0.719120 0.280900 0.938230 0.973279
Cu11  Cu    Cu3+1 0.280880 0.280900 0.061770 0.973275
Cu12  Cu    Cu3+1 0.544440 0.999990 0.499990 1.028240
H1    H     H_    0.613281 0.818403 0.004305 0.128750
H2    H     H_    0.041040 0.752114 0.858462 0.168791
H3    H     H_    0.458960 0.252087 0.141540 0.168787
H4    H     H_    0.541040 0.252140 0.858462 0.168794
H5    H     H_    0.153542 0.749025 0.223196 0.146425
H6    H     H_    0.846458 0.749027 0.776804 0.146425
H7    H     H_    0.653541 0.248983 0.223196 0.146424
H8    H     H_    0.346456 0.249069 0.776802 0.146426
H9    H     H_    0.229162 0.709514 0.806577 0.130560
H10   H     H_    0.770837 0.709513 0.193422 0.130559
H11   H     H_    0.729161 0.209514 0.806576 0.130560
H12   H     H_    0.386719 0.818403 0.995695 0.128750
H13   H     H_    0.270836 0.209513 0.193420 0.130559
H14   H     H_    0.225833 0.711409 0.689476 0.129981
H15   H     H_    0.774165 0.711408 0.310521 0.129981
H16   H     H_    0.725831 0.211410 0.689474 0.129981
H17   H     H_    0.274163 0.211407 0.310519 0.129981
H18   H     H_    0.154403 0.663866 0.559610 0.136916
H19   H     H_    0.845595 0.663866 0.440388 0.136915
H20   H     H_    0.654401 0.163867 0.559608 0.136922
H21   H     H_    0.345593 0.163865 0.440386 0.136909
H22   H     H_    0.087685 0.613356 0.547776 0.136805
H23   H     H_    0.113280 0.318403 0.004304 0.128750
H24   H     H_    0.912313 0.613356 0.452223 0.136806
H25   H     H_    0.587684 0.113356 0.547775 0.136806
H26   H     H_    0.412312 0.113355 0.452222 0.136805
H27   H     H_    0.609303 0.681158 0.996193 0.124897
H28   H     H_    0.390697 0.681158 0.003808 0.124897
H29   H     H_    0.109303 0.181158 0.996194 0.124897
H30   H     H_    0.890698 0.181158 0.003809 0.124898
H31   H     H_    0.057460 0.576400 0.736147 0.172938
H32   H     H_    0.942541 0.576401 0.263855 0.172939
H33   H     H_    0.557462 0.076400 0.736148 0.172937
H34   H     H_    0.886718 0.318403 0.995694 0.128750
H35   H     H_    0.442541 0.076401 0.263855 0.172940
H36   H     H_    0.539891 0.641833 0.998458 0.121254
H37   H     H_    0.460109 0.641833 0.001542 0.121254
H38   H     H_    0.039892 0.141833 0.998460 0.121254
H39   H     H_    0.960110 0.141833 0.001544 0.121254
H40   H     H_    0.458448 0.857675 0.998202 0.126266
H41   H     H_    0.541552 0.857675 0.001797 0.126266
H42   H     H_    0.958447 0.357675 0.998201 0.126266
H43   H     H_    0.041551 0.357675 0.001795 0.126266
H44   H     H_    0.432104 0.816597 0.256694 0.151588
H45   H     H_    0.817493 0.748107 0.857918 0.124998
H46   H     H_    0.567896 0.816597 0.743307 0.151588
H47   H     H_    0.932104 0.316596 0.256696 0.151589
H48   H     H_    0.067895 0.316597 0.743306 0.151588
H49   H     H_    0.217233 0.836126 0.098421 0.125426
H50   H     H_    0.782767 0.836125 0.901578 0.125425
H51   H     H_    0.717232 0.336127 0.098419 0.125429
H52   H     H_    0.282767 0.336126 0.901578 0.125423
H53   H     H_    0.156641 0.893194 0.086843 0.126596
H54   H     H_    0.843358 0.893193 0.913156 0.126596
H55   H     H_    0.656641 0.393196 0.086839 0.126596
H56   H     H_    0.182507 0.748106 0.142082 0.124999
H57   H     H_    0.343358 0.393194 0.913156 0.126595
H58   H     H_    0.204852 0.963515 0.151683 0.141193
H59   H     H_    0.795148 0.963515 0.848316 0.141194
H60   H     H_    0.704852 0.463517 0.151679 0.141193
H61   H     H_    0.295148 0.463515 0.848317 0.141194
H62   H     H_    0.317491 0.248133 0.857916 0.124984
H63   H     H_    0.682506 0.248080 0.142081 0.125013
H64   H     H_    0.958960 0.752113 0.141538 0.168791
I1    I     I_    0.537011 0.865751 0.421078 -0.299237
I2    I     I_    0.893194 0.630393 0.108226 -0.294781
I3    I     I_    0.606809 0.130391 0.891777 -0.294786
I4    I     I_    0.393195 0.130393 0.108227 -0.294778
I5    I     I_    0.319564 0.006179 0.215007 -0.346907
I6    I     I_    0.680437 0.006179 0.784992 -0.346907
I7    I     I_    0.819565 0.506179 0.215006 -0.346908
I8    I     I_    0.180436 0.506179 0.784992 -0.346908
I9    I     I_    0.462989 0.865752 0.578923 -0.299238
I10   I     I_    0.037010 0.365750 0.421082 -0.299233
I11   I     I_    0.962989 0.365751 0.578922 -0.299239
I12   I     I_    0.091754 0.750418 0.289388 -0.365718
I13   I     I_    0.908246 0.750419 0.710612 -0.365719
I14   I     I_    0.591754 0.250363 0.289390 -0.365718
I15   I     I_    0.408244 0.250474 0.710610 -0.365718
I16   I     I_    0.106808 0.630392 0.891775 -0.294782
O1    O     O_R   0.321150 0.768980 0.142380 -0.509632
O2    O     O_R   0.507560 0.954900 0.590180 -0.472934
O3    O     O_R   0.992440 0.454900 0.409820 -0.472935
O4    O     O_R   0.007560 0.454900 0.590180 -0.472935
O5    O     O_R   0.417370 0.954920 0.409860 -0.480409
O6    O     O_R   0.582630 0.954920 0.590140 -0.480409
O7    O     O_R   0.917370 0.454920 0.409860 -0.480409
O8    O     O_R   0.082630 0.454920 0.590140 -0.480409
O9    O     O_R   0.269000 0.821180 0.038020 -0.503043
O10   O     O_R   0.731000 0.821180 0.961980 -0.503043
O11   O     O_R   0.769000 0.321180 0.038020 -0.503043
O12   O     O_R   0.678850 0.768980 0.857620 -0.509632
O13   O     O_R   0.231000 0.321180 0.961980 -0.503043
O14   O     O_R   0.340930 0.723880 0.052190 -0.508047
O15   O     O_R   0.659070 0.723880 0.947810 -0.508048
O16   O     O_R   0.840930 0.223880 0.052190 -0.508047
O17   O     O_R   0.159070 0.223880 0.947810 -0.508048
O18   O     O_R   0.288780 0.776070 0.947820 -0.516810
O19   O     O_R   0.711220 0.776070 0.052180 -0.516810
O20   O     O_R   0.788780 0.276070 0.947820 -0.516810
O21   O     O_R   0.211220 0.276070 0.052180 -0.516810
O22   O     O_R   0.230990 0.678810 0.962030 -0.479129
O23   O     O_R   0.821150 0.268980 0.142380 -0.509632
O24   O     O_R   0.769010 0.678810 0.037970 -0.479129
O25   O     O_R   0.730990 0.178810 0.962030 -0.479127
O26   O     O_R   0.269010 0.178810 0.037970 -0.479129
O27   O     O_R   0.178840 0.731000 0.857670 -0.511746
O28   O     O_R   0.821160 0.731000 0.142330 -0.511746
O29   O     O_R   0.678840 0.231000 0.857670 -0.511746
O30   O     O_R   0.321160 0.231000 0.142330 -0.511747
O31   O     O_R   0.211210 0.723910 0.052230 -0.487817
O32   O     O_R   0.788790 0.723910 0.947770 -0.487817
O33   O     O_R   0.711210 0.223910 0.052230 -0.487823
O34   O     O_R   0.178850 0.268980 0.857620 -0.509632
O35   O     O_R   0.288790 0.223910 0.947770 -0.487812
O36   O     O_R   0.159060 0.776110 0.947860 -0.513137
O37   O     O_R   0.840940 0.776110 0.052140 -0.513137
O38   O     O_R   0.659060 0.276110 0.947860 -0.513139
O39   O     O_R   0.340940 0.276110 0.052140 -0.513136
O40   O     O_R   0.992470 0.545080 0.409840 -0.524075
O41   O     O_R   0.007530 0.545080 0.590160 -0.524075
O42   O     O_R   0.492470 0.045080 0.409840 -0.524074
O43   O     O_R   0.507530 0.045080 0.590160 -0.524076
O44   O     O_R   0.917390 0.545090 0.409880 -0.500137
O45   O     O_R   0.082610 0.545090 0.590120 -0.500136
O46   O     O_R   0.417390 0.045090 0.409880 -0.500137
O47   O     O_R   0.582610 0.045090 0.590120 -0.500136
O48   O     O_R   0.492440 0.954900 0.409820 -0.472934

loop_
_geom_bond_atom_site_label_1
_geom_bond_atom_site_label_2
_ccdc_geom_bond_type
C128  H56   S    
C21   C26   A    
C87   C91   A    
C142  C146  A    
Cu9   O10   S    
C6    H16   S    
C109  O18   A    
C90   C95   A    
Cu5   O24   S    
C4    H14   S    
Cu6   O23   S    
C92   O23   A    
Cu2   O43   S    
C95   C99   A    
C141  C154  A    
C42   O39   A    
C74   C114  A    
Cu12  O42   S    
C89   C94   A    
C54   C124  S    
C91   C96   A    
Cu5   O15   S    
C52   C122  S    
Cu6   O16   S    
Cu4   O44   S    
C70   C74   A    
C52   O48   A    
C99   C126  A    
C77   C147  A    
C141  C145  A    
Cu12  O47   S    
C87   H58   S    
Cu10  O29   S    
C130  C134  A    
C25   C29   A    
C39   O31   A    
C140  C144  A    
C28   C32   A    
C86   C90   A    
C155  I14   S    
C30   C34   A    
C132  C137  A    
C98   C102  A    
C88   H59   S    
C17   C21   A    
C21   C166  A    
Cu4   O4    S    
C19   C23   A    
C17   C43   A    
C18   C44   A    
C41   O38   A    
C55   C126  S    
C16   C20   A    
Cu1   O1    S    
C159  O24   A    
Cu3   O3    S    
C36   H32   S    
C129  C133  A    
C128  C150  A    
C35   H40   S    
C22   C27   A    
C57   C147  A    
C58   H12   S    
C36   C44   A    
C37   C45   A    
C2    C71   A    
Cu10  O11   S    
C103  O34   A    
C110  O19   A    
C85   H55   S    
C59   C63   A    
Cu1   O14   S    
C84   C88   A    
C144  C145  A    
C95   I8    S    
Cu12  O6    S    
Cu3   O40   S    
C13   C72   A    
C119  C123  A    
C64   C69   A    
C3    C7    A    
C54   O7    A    
C106  C115  A    
C60   C64   A    
Cu11  O39   S    
C151  C165  A    
C51   O43   A    
C81   O10   A    
Cu1   Cu8   S    
C67   H29   S    
C127  C131  A    
C20   C47   A    
C61   C65   A    
C56   H1    S    
C82   C104  A    
C31   C36   A    
C48   O40   A    
C44   C48   S    
C1    C105  S    
C41   O33   A    
Cu6   O33   S    
C29   C33   A    
C8    H18   S    
C113  H44   S    
C78   H49   S    
C98   C124  A    
C3    H13   S    
C30   I16   S    
C54   O3    A    
C105  C113  A    
C79   C84   A    
C1    O9    A    
C129  H62   S    
Cu11  O13   S    
C27   C159  S    
C65   C70   A    
C59   C136  A    
C28   C160  S    
C33   I4    S    
C160  O25   A    
C118  C122  A    
C35   C125  A    
C60   H34   S    
C139  C143  A    
C83   H53   S    
C14   H24   S    
C12   H22   S    
C13   H38   S    
C109  O14   A    
C52   O5    A    
Cu2   O5    S    
C89   H60   S    
C61   C110  S    
Cu8   O9    S    
C121  I11   S    
C47   C50   S    
C143  C148  A    
C6    C168  A    
C62   C66   A    
C55   O4    A    
C134  C139  A    
C32   C37   A    
C81   O12   A    
C116  C120  A    
C80   C102  A    
C84   H54   S    
C5    C9    A    
Cu8   O18   S    
C8    C12   A    
C102  C107  A    
C111  O16   A    
C40   C131  S    
C26   C30   A    
C115  C119  A    
C51   O47   A    
C57   C68   A    
C93   C97   A    
C161  O26   A    
C101  C106  A    
C82   H52   S    
C73   C77   A    
C18   C22   A    
C108  C117  A    
Cu5   O32   S    
C55   O8    A    
C148  C152  A    
C162  H5    S    
C19   C45   A    
C65   H27   S    
C159  O28   A    
Cu2   O2    S    
C166  H9    S    
C49   O41   A    
C97   C123  A    
C127  C149  A    
C62   C109  S    
Cu2   O46   S    
C96   C100  A    
C107  C116  A    
C146  C151  A    
Cu4   O41   S    
Cu7   O34   S    
C119  I9    S    
C33   C38   A    
C69   H30   S    
C139  H4    S    
C9    H19   S    
C157  O22   A    
C58   C62   A    
C83   C87   A    
Cu12  O48   S    
C117  H48   S    
C38   H35   S    
C50   O42   A    
C93   I6    S    
C15   C19   A    
C163  H6    S    
C40   O37   A    
C129  C151  A    
C49   O45   A    
Cu1   O31   S    
C24   C73   A    
C20   C25   A    
C94   C98   A    
Cu11  O30   S    
C81   C106  S    
C78   C83   A    
C12   C17   A    
C31   I2    S    
C69   C73   A    
Cu6   Cu10  S    
C72   C76   A    
C140  C153  A    
C156  I15   S    
C99   C104  A    
C133  C138  A    
C160  O29   A    
Cu9   O37   S    
C37   H33   S    
C50   O46   A    
C146  C148  A    
C57   H42   S    
C135  C140  A    
C150  C162  A    
C165  H8    S    
C34   C43   A    
C32   I3    S    
C3    C25   A    
C103  O13   A    
C138  C142  A    
C85   C89   A    
C64   C111  S    
C116  H47   S    
C82   C86   A    
C27   C31   A    
C75   C125  A    
C135  H64   S    
C9    C14   A    
C80   C85   A    
C66   H28   S    
C11   C16   A    
C66   C71   A    
C2    C158  A    
Cu3   O8    S    
C138  H3    S    
C46   H41   S    
C15   H25   S    
C22   C167  A    
C78   C100  A    
C104  C108  A    
C91   I5    S    
C92   O11   A    
C137  C141  A    
Cu11  O21   S    
Cu7   O17   S    
C10   H20   S    
C6    C10   A    
C16   H26   S    
C96   C122  A    
C153  C162  A    
C111  O20   A    
C156  C165  A    
C40   O32   A    
C112  O21   A    
Cu8   O27   S    
C120  I10   S    
C34   H31   S    
C23   C168  A    
C24   H39   S    
C59   H23   S    
C42   O35   A    
C127  H45   S    
C56   C61   A    
C70   C158  A    
C35   C46   A    
C158  H36   S    
C71   C75   A    
Cu3   Cu4   S    
C7    H17   S    
Cu7   O35   S    
C14   C18   A    
Cu8   O36   S    
C4    C8    A    
C164  H7    S    
C94   I7    S    
C76   C136  A    
C118  I1    S    
C157  O27   A    
C7    C11   A    
C100  C105  A    
C168  H11   S    
C42   C133  S    
C67   C72   A    
Cu4   O7    S    
C131  C135  A    
C10   C15   A    
C39   C132  S    
C45   C51   S    
C53   O6    A    
C86   H57   S    
C26   C157  S    
Cu1   O22   S    
C11   H21   S    
C63   C112  S    
C117  C121  A    
C112  O17   A    
C2    H37   S    
C103  C108  S    
C149  C163  A    
C60   C147  A    
C142  C155  A    
C5    H15   S    
C128  C132  A    
C41   C134  S    
C63   C67   A    
C74   C75   A    
C46   C114  A    
C29   C161  S    
C154  C163  A    
C68   C136  A    
C76   C77   A    
C115  H46   S    
C53   C123  S    
C43   C49   S    
Cu7   Cu11  S    
C137  H2    S    
Cu6   O25   S    
C53   O2    A    
C110  O15   A    
C13   C24   A    
Cu2   Cu12  S    
Cu7   O26   S    
C79   H50   S    
C144  C149  A    
C130  H63   S    
C92   C107  S    
Cu5   Cu9   S    
Cu10  O38   S    
C38   C47   A    
C152  C164  A    
C154  I13   S    
C1    O1    A    
C153  I12   S    
C68   H43   S    
C23   C28   A    
C80   H51   S    
C167  H10   S    
C88   C93   A    
Cu3   O45   S    
C79   C101  A    
C145  C150  A    
C48   O44   A    
Cu5   O12   S    
Cu9   O28   S    
C155  C164  A    
C161  O30   A    
C121  C126  A    
C130  C152  A    
C143  C156  A    
C4    C166  A    
C5    C167  A    
Cu9   O19   S    
C113  C118  A    
Cu10  O20   S    
C58   C125  A    
C90   H61   S    
C39   O36   A    
C56   C114  A    
C97   C101  A    
C120  C124  A    
