data_mof_unit_66081.cif
_audit_creation_date              2012-12-10T18:49:18-0500
_audit_creation_method            fapswitch 2.2
_symmetry_space_group_name_H-M    P1
_symmetry_Int_Tables_number       1
_space_group_crystal_system       triclinic
_cell_length_a                    19.390719
_cell_length_b                    18.366852
_cell_length_c                    15.890366
_cell_angle_alpha                 90.290808
_cell_angle_beta                  92.401404
_cell_angle_gamma                 89.730372
_cell_volume                      5654.19771044

loop_
_atom_site_label
_atom_site_type_symbol
_atom_type_description
_atom_site_fract_x
_atom_site_fract_y
_atom_site_fract_z
_atom_type_partial_charge
C1    C     C_R   0.367948 0.500097 0.499412 0.865125
C2    C     C_3   0.567931 0.506508 0.954747 -0.512249
C3    C     C_3   0.566856 0.515562 0.051486 -0.377011
C4    C     C_1   0.496327 0.500296 0.824273 0.070958
C5    C     C_1   0.496157 0.499552 0.175512 -0.001948
C6    C     C_1   0.498210 0.499550 0.250967 -0.059993
C7    C     C_R   0.753159 0.444803 0.515980 -0.034127
C8    C     C_R   0.739271 0.566495 0.454919 -0.027546
C9    C     C_R   0.824561 0.456493 0.523347 -0.115506
C10   C     C_R   0.810505 0.577004 0.465730 -0.103319
C11   C     C_R   0.853518 0.522621 0.500136 0.072247
C12   C     C_R   0.708824 0.502115 0.486449 -0.208929
C13   C     C_R   0.964105 0.573191 0.447870 -0.184931
C14   C     C_R   0.967555 0.504995 0.576862 -0.184916
C15   C     C_R   0.499769 0.499855 0.340402 0.820371
C16   C     C_R   0.035857 0.578336 0.453249 0.417629
C17   C     C_R   0.039547 0.508473 0.580025 0.420088
C18   C     C_R   0.074320 0.531458 0.508131 -0.054675
C19   C     C_R   0.929376 0.532164 0.506961 -0.037539
C20   C     C_R   0.183808 0.455845 0.542518 0.433841
C21   C     C_R   0.185433 0.537750 0.425470 0.424074
C22   C     C_R   0.255915 0.454387 0.546650 -0.171172
C23   C     C_R   0.257335 0.538586 0.431319 -0.131733
C24   C     C_R   0.292717 0.500504 0.495511 -0.171644
C25   C     C_R   0.148316 0.509637 0.493115 -0.064260
C26   C     C_R   0.444727 0.720764 0.463318 0.518659
C27   C     C_R   0.473388 0.279376 0.430209 0.503684
C28   C     C_R   0.438847 0.797109 0.470679 0.302414
C29   C     C_R   0.480945 0.203209 0.422421 0.297094
C30   C     C_R   0.497755 0.838957 0.493257 0.019324
C31   C     C_R   0.496234 0.160831 0.494766 0.025039
C32   C     C_R   0.632481 0.499933 0.495274 0.772356
C33   C     C_R   0.556374 0.800227 0.522862 -0.360081
C34   C     C_R   0.516251 0.199128 0.568319 -0.367686
C35   C     C_R   0.554745 0.724083 0.533034 0.115810
C36   C     C_R   0.523978 0.275381 0.568043 0.099251
C37   C     C_R   0.538573 0.961858 0.549086 -0.167823
C38   C     C_R   0.540395 0.038051 0.546866 -0.171034
C39   C     C_R   0.493646 0.078036 0.494582 0.168471
C40   C     C_R   0.498539 0.921699 0.489249 0.170282
C41   C     C_R   0.445862 0.037223 0.442928 -0.089053
C42   C     C_R   0.459459 0.962304 0.427602 -0.087091
C43   C     C_R   0.500000 0.500144 0.659609 0.861463
C44   C     C_3   0.442681 0.562605 0.046652 -0.147178
C45   C     C_3   0.471008 0.420959 0.047109 -0.199764
C46   C     C_3   0.462388 0.426853 0.947238 0.226802
C47   C     C_3   0.451841 0.567204 0.948407 0.114937
C48   C     C_1   0.498404 0.500373 0.748984 -0.069129
C49   C     C_3   0.492922 0.499607 0.082793 0.021972
C50   C     C_3   0.493232 0.500030 0.916338 0.076232
Cu1   Cu    Cu3+1 0.500000 0.573360 0.499980 1.067102
Cu2   Cu    Cu3+1 0.500000 0.426640 0.499980 1.041036
H1    H     H_    0.283067 0.415540 0.587220 0.204503
H2    H     H_    0.285588 0.562404 0.381050 0.229209
H3    H     H_    0.602931 0.829185 0.542191 0.166092
H4    H     H_    0.529305 0.169749 0.625736 0.166759
H5    H     H_    0.570371 0.934745 0.596972 0.156191
H6    H     H_    0.577585 0.065314 0.588514 0.158073
H7    H     H_    0.490996 0.382064 0.916812 0.179128
H8    H     H_    0.484459 0.615365 0.935189 0.134444
H9    H     H_    0.583626 0.571545 0.068763 0.232600
H10   H     H_    0.606304 0.479014 0.081933 0.195313
H11   H     H_    0.594699 0.553967 0.927718 0.210408
H12   H     H_    0.598438 0.457182 0.938921 0.234806
H13   H     H_    0.858342 0.412656 0.545068 0.185083
H14   H     H_    0.832468 0.627830 0.445906 0.184129
H15   H     H_    0.936095 0.603806 0.399476 0.184585
H16   H     H_    0.941351 0.484043 0.630481 0.195894
N1    N     N_R   0.500020 0.683620 0.499990 -0.247841
N2    N     N_R   0.500020 0.316380 0.499990 -0.247131
O1    O     O_R   0.400180 0.561980 0.499960 -0.539641
O2    O     O_R   0.400180 0.438020 0.499960 -0.548719
O3    O     O_R   0.500000 0.561980 0.379420 -0.544658
O4    O     O_R   0.500000 0.438020 0.379420 -0.555688
O5    O     O_R   0.599810 0.561930 0.500000 -0.584638
O6    O     O_R   0.599810 0.438070 0.500000 -0.567577
O7    O     O_R   0.499990 0.561930 0.620540 -0.520424
O8    O     O_R   0.499990 0.438070 0.620540 -0.572693
Cl1   Cl    Cl    0.374023 0.588030 0.886593 -0.504294
Cl2   Cl    Cl    0.375798 0.413498 0.903974 -0.464238
Cl3   Cl    Cl    0.070484 0.660217 0.415913 -0.430253
Cl4   Cl    Cl    0.081251 0.503443 0.680756 -0.434134
Cl5   Cl    Cl    0.142335 0.377540 0.579367 -0.444908
Cl6   Cl    Cl    0.148578 0.544278 0.322281 -0.427902
Cl7   Cl    Cl    0.384380 0.677462 0.394371 -0.451046
Cl8   Cl    Cl    0.418113 0.321742 0.354140 -0.478123
Cl9   Cl    Cl    0.355757 0.836959 0.458233 -0.490860
Cl10  Cl    Cl    0.476493 0.164344 0.320171 -0.526056
C51   C     C_2   0.614027 0.691841 0.580720 0.470277
H17   H     H_    0.665861 0.710445 0.569401 0.072248
O9    O     O_2   0.605722 0.648853 0.637513 -0.511339
C52   C     C_2   0.558794 0.306879 0.643854 0.477201
H18   H     H_    0.546431 0.287006 0.705635 0.061276
O10   O     O_2   0.605123 0.350944 0.638465 -0.515565
C53   C     C_2   0.377321 0.067832 0.415009 0.517625
H19   H     H_    0.344530 0.039699 0.368724 0.084282
O11   O     O_2   0.354479 0.122848 0.447342 -0.471867
C54   C     C_2   0.441046 0.931303 0.342697 0.503255
H20   H     H_    0.405695 0.959543 0.299435 0.083612
O12   O     O_2   0.468546 0.875779 0.317685 -0.478361
C55   C     C_2   0.368214 0.547119 0.067636 0.407660
H21   H     H_    0.334464 0.516755 0.024418 0.187036
O13   O     O_2   0.345931 0.565024 0.135599 -0.474618
C56   C     C_2   0.406382 0.391557 0.086498 0.447748
H22   H     H_    0.383069 0.419685 0.138324 0.107752
O14   O     O_2   0.382335 0.332740 0.064462 -0.401752
C57   C     C_2   0.526861 0.365433 0.074396 0.437527
H23   H     H_    0.537529 0.356228 0.141171 0.095815
O15   O     O_2   0.560161 0.330865 0.024143 -0.514445
C58   C     C_2   0.458624 0.638474 0.082979 0.483876
H24   H     H_    0.431030 0.685126 0.056343 0.119112
O16   O     O_2   0.500310 0.648703 0.141533 -0.504929
C59   C     C_2   0.728262 0.370921 0.535788 0.483946
H25   H     H_    0.684991 0.347109 0.500505 0.104735
O17   O     O_2   0.757895 0.334245 0.590189 -0.491379
C60   C     C_2   0.698738 0.621463 0.404891 0.380316
H26   H     H_    0.650100 0.606812 0.373216 0.095430
O18   O     O_2   0.719887 0.683485 0.396946 -0.518789

loop_
_geom_bond_atom_site_label_1
_geom_bond_atom_site_label_2
_ccdc_geom_bond_type
C44   C49   S    
C33   H3    S    
C34   H4    S    
C55   H21   S    
C46   H7    S    
C27   C29   A    
C41   C42   A    
C53   H19   S    
C47   Cl1   S    
C47   C50   S    
C32   O5    A    
C56   O14   D    
C3    C49   S    
C39   C41   A    
C41   C53   S    
C45   C46   S    
C43   O8    A    
C11   C19   S    
C1    O1    A    
Cu1   O5    S    
C37   C40   A    
Cu2   O4    S    
C42   C54   S    
C4    C48   T    
C5    C6    T    
C20   C25   A    
C60   H26   S    
C17   Cl4   S    
C58   H24   S    
C52   H18   S    
C29   Cl10  S    
C2    C50   S    
C6    C15   S    
C38   H6    S    
C36   N2    A    
C57   H23   S    
C51   O9    D    
C43   C48   S    
C44   C47   S    
C36   C52   S    
C3    H9    S    
C47   H8    S    
C55   O13   D    
C12   C32   S    
C57   O15   D    
C14   C17   A    
C5    C49   S    
C18   C25   S    
Cu1   O1    S    
Cu2   O8    S    
C56   H22   S    
C2    H12   S    
C22   H1    S    
C9    H13   S    
C10   H14   S    
C7    C12   A    
C1    O2    A    
C13   C19   A    
Cu1   Cu2   S    
C4    C50   S    
C27   Cl8   S    
Cu1   O7    S    
C37   C38   A    
Cu2   O2    S    
C45   C56   S    
C21   Cl6   S    
C45   C49   S    
C8    C12   A    
C28   Cl9   S    
C52   O10   D    
C17   C18   A    
C31   C34   A    
C30   C40   S    
C9    C11   A    
C27   N2    A    
C35   C51   S    
C16   C18   A    
C15   O3    A    
C20   C22   A    
C54   O12   D    
C21   C23   A    
C22   C24   A    
C13   C16   A    
C2    H11   S    
C23   H2    S    
C59   H25   S    
C13   H15   S    
C3    H10   S    
C7    C9    A    
C21   C25   A    
C30   C33   A    
C14   C19   A    
Cu1   O3    S    
Cu2   O6    S    
C32   O6    A    
C44   C55   S    
C53   O11   D    
C43   O7    A    
C46   C50   S    
C26   C28   A    
C7    C59   S    
C28   C30   A    
C2    C3    S    
C29   C31   A    
C46   Cl2   S    
C38   C39   A    
C26   Cl7   S    
C40   C42   A    
C16   Cl3   S    
C33   C35   A    
C60   O18   D    
C34   C36   A    
C58   O16   D    
Cu2   N2    S    
C10   C11   A    
C8    C60   S    
C23   C24   A    
C15   O4    A    
C35   N1    A    
C1    C24   S    
C8    C10   A    
C54   H20   S    
C20   Cl5   S    
C31   C39   S    
C26   N1    A    
C14   H16   S    
Cu1   N1    S    
C51   H17   S    
C37   H5    S    
C45   C57   S    
C59   O17   D    
C44   C58   S    
