data_mof_unit_53926.cif
_audit_creation_date              2012-12-11T17:43:23-0500
_audit_creation_method            fapswitch 2.2
_symmetry_space_group_name_H-M    P1
_symmetry_Int_Tables_number       1
_space_group_crystal_system       triclinic
_cell_length_a                    15.075275
_cell_length_b                    15.128918
_cell_length_c                    17.314602
_cell_angle_alpha                 109.03489
_cell_angle_beta                  106.102685
_cell_angle_gamma                 108.884781
_cell_volume                      3192.05361518

loop_
_atom_site_label
_atom_site_type_symbol
_atom_type_description
_atom_site_fract_x
_atom_site_fract_y
_atom_site_fract_z
_atom_type_partial_charge
C1    C     C_R   0.079872 0.289929 0.084076 0.636577
C2    C     C_R   0.911089 0.724094 0.976960 0.514458
C3    C     C_R   0.028473 0.562264 0.741911 -0.020668
C4    C     C_R   0.968692 0.440831 0.258378 -0.061346
C5    C     C_R   0.757556 0.196369 0.730937 0.076629
C6    C     C_R   0.307123 0.799130 0.266905 0.109684
C7    C     C_R   0.286311 0.460929 0.964801 0.033882
C8    C     C_R   0.642325 0.436817 0.947196 0.000744
C9    C     C_R   0.898782 0.922971 0.006981 -0.191648
C10   C     C_R   0.061390 0.114169 0.140856 -0.191213
C11   C     C_R   0.992068 0.925420 0.054720 0.074609
C12   C     C_R   0.975141 0.111630 0.081631 0.103252
C13   C     C_R   0.075147 0.023809 0.123422 0.269129
C14   C     C_R   0.887019 0.013177 0.023494 0.253750
C15   C     C_R   0.723367 0.953930 0.888942 0.424972
C16   C     C_R   0.221927 0.034245 0.244445 0.442507
C17   C     C_R   0.571372 0.959602 0.907694 0.353634
C18   C     C_R   0.398137 0.120831 0.261865 0.366743
C19   C     C_R   0.497358 0.696870 0.260789 -0.303787
C20   C     C_R   0.492041 0.201493 0.682921 -0.423641
C21   C     C_R   0.486311 0.653745 0.171769 0.542078
C22   C     C_R   0.477621 0.242480 0.761484 0.516041
C23   C     C_R   0.936873 0.510338 0.744805 0.486056
C24   C     C_R   0.061401 0.490261 0.255640 0.517238
C25   C     C_R   0.471896 0.549171 0.130809 -0.006948
C26   C     C_R   0.455563 0.328925 0.779593 0.118642
C27   C     C_R   0.470676 0.492240 0.180925 -0.104633
C28   C     C_R   0.443233 0.369356 0.717076 -0.130484
C29   C     C_R   0.479047 0.535817 0.268605 -0.090381
C30   C     C_R   0.457865 0.328087 0.639628 -0.127190
C31   C     C_R   0.492450 0.638236 0.308665 0.465951
C32   C     C_R   0.484221 0.245673 0.623513 0.554542
C33   C     C_R   0.554856 0.495943 0.033108 0.443350
C34   C     C_R   0.369380 0.394341 0.873592 0.446051
C35   C     C_R   0.548689 0.437049 0.948702 -0.071613
C36   C     C_R   0.375169 0.450762 0.958568 -0.180421
C37   C     C_R   0.457005 0.385678 0.868317 -0.050067
C38   C     C_R   0.466727 0.499058 0.039002 -0.155845
C39   C     C_R   0.620086 0.934611 0.852001 -0.411767
C40   C     C_R   0.328622 0.071901 0.291661 -0.384206
C41   C     C_R   0.959886 0.436612 0.336852 -0.003664
C42   C     C_R   0.035671 0.565589 0.662694 -0.021808
C43   C     C_R   0.993913 0.627735 0.553706 -0.026633
C44   C     C_R   0.999908 0.373484 0.445382 -0.024970
C45   C     C_R   0.779878 0.204543 0.816372 -0.144529
C46   C     C_R   0.264163 0.794358 0.183409 -0.074061
C47   C     C_R   0.017617 0.640650 0.640754 -0.126928
C48   C     C_R   0.977178 0.361107 0.358565 -0.100912
C49   C     C_R   0.034667 0.478640 0.600209 0.477970
C50   C     C_R   0.960003 0.523065 0.399064 0.471603
C51   C     C_R   0.007614 0.463054 0.511377 -0.046211
C52   C     C_R   0.986283 0.538215 0.487734 -0.045783
C53   C     C_R   0.695536 0.096155 0.649911 0.014918
C54   C     C_R   0.400714 0.883684 0.343976 -0.082650
C55   C     C_R   0.579537 0.010136 0.403551 0.068049
C56   C     C_R   0.530422 0.944294 0.580879 -0.036386
C57   C     C_R   0.482828 0.943596 0.331170 -0.234169
C58   C     C_R   0.622036 0.016112 0.655309 -0.211819
C59   C     C_R   0.413618 0.892461 0.429638 0.475565
C60   C     C_R   0.688881 0.088667 0.565353 0.484408
C61   C     C_R   0.512755 0.949706 0.499604 -0.007038
C62   C     C_R   0.595556 0.014880 0.488810 -0.047756
C63   C     C_R   0.625882 0.003631 0.001860 0.351848
C64   C     C_R   0.360643 0.127430 0.181290 0.367352
C65   C     C_R   0.729890 0.023109 0.039990 0.298637
C66   C     C_R   0.253415 0.086959 0.131892 0.264777
C67   C     C_R   0.259921 0.535478 0.950960 -0.113664
C68   C     C_R   0.700788 0.406921 0.998908 -0.067719
C69   C     C_R   0.779363 0.998401 0.983519 -0.291268
C70   C     C_R   0.183759 0.043351 0.165076 -0.312980
C71   C     C_R   0.775768 0.294560 0.732915 0.146788
C72   C     C_R   0.259880 0.699641 0.259363 -0.004052
C73   C     C_R   0.245840 0.434067 0.020535 0.520412
C74   C     C_R   0.702475 0.494147 0.917898 0.593422
C75   C     C_R   0.109642 0.593450 0.821272 -0.087111
C76   C     C_R   0.888440 0.409938 0.178805 -0.053971
C77   C     C_R   0.909809 0.208910 0.005193 -0.165421
C78   C     C_R   0.083880 0.807726 0.041478 -0.104356
C79   C     C_R   0.988973 0.200842 0.059802 -0.090246
C80   C     C_R   0.996751 0.824182 0.028686 -0.047058
H1    H     H_    0.511770 0.777137 0.293542 0.185165
H2    H     H_    0.511212 0.136780 0.668831 0.172669
H3    H     H_    0.462553 0.413328 0.151474 0.209512
H4    H     H_    0.427359 0.436383 0.730687 0.192422
H5    H     H_    0.476430 0.490321 0.305680 0.196724
H6    H     H_    0.451563 0.362213 0.593501 0.195116
H7    H     H_    0.978980 0.295976 0.309618 0.192313
H8    H     H_    0.016483 0.706159 0.689882 0.182518
H9    H     H_    0.978769 0.686697 0.538476 0.207681
H10   H     H_    0.014750 0.314353 0.460537 0.211739
H11   H     H_    0.577142 0.899561 0.779426 0.228853
H12   H     H_    0.357520 0.065273 0.352934 0.265352
H13   H     H_    0.627159 0.017055 0.718970 0.151379
H14   H     H_    0.473436 0.936118 0.264684 0.200881
H15   H     H_    0.641024 0.056499 0.391797 0.221264
H16   H     H_    0.471690 0.889267 0.589282 0.206736
H17   H     H_    0.772503 0.142982 0.836315 0.153822
H18   H     H_    0.293601 0.853305 0.162537 0.102909
H19   H     H_    0.284905 0.577989 0.915373 0.153429
H20   H     H_    0.674900 0.354680 0.027009 0.166560
H21   H     H_    0.805282 0.370353 0.785919 0.140507
H22   H     H_    0.288170 0.672688 0.306710 0.201559
H23   H     H_    0.190642 0.643841 0.843139 0.149065
H24   H     H_    0.806631 0.362492 0.156813 0.161889
H25   H     H_    0.828663 0.169085 0.987697 0.124231
H26   H     H_    0.163765 0.865105 0.072923 0.131732
H27   H     H_    0.833968 0.851136 0.952272 0.203901
H28   H     H_    0.123821 0.187841 0.195405 0.170837
N1    N     N_R   0.055660 0.348550 0.045620 -0.076814
N2    N     N_R   0.944340 0.651450 0.954380 -0.095595
N3    N     N_R   0.960830 0.507850 0.823700 -0.113742
N4    N     N_R   0.039170 0.492150 0.176300 -0.094319
N5    N     N_R   0.811290 0.303410 0.871650 -0.077276
N6    N     N_R   0.188710 0.696590 0.128350 -0.053424
N7    N     N_R   0.205200 0.552990 0.997670 -0.085827
N8    N     N_R   0.794800 0.447010 0.002330 -0.073652
N9    N     N_R   0.814800 0.361830 0.823700 -0.166799
N10   N     N_R   0.185200 0.638170 0.176300 -0.060441
N11   N     N_R   0.201680 0.494570 0.045620 -0.092589
N12   N     N_R   0.798320 0.505430 0.954380 -0.103261
N13   N     N_R   0.068420 0.560530 0.871650 -0.070073
N14   N     N_R   0.931580 0.439470 0.128350 -0.079525
N15   N     N_R   0.948070 0.295860 0.997670 -0.079270
N16   N     N_R   0.051930 0.704140 0.002330 -0.080561
Ni1   Ni    Ni4+2 0.119340 0.493420 0.109960 0.322207
Ni2   Ni    Ni4+2 0.880660 0.506580 0.890040 0.262283
Ni3   Ni    Ni4+2 0.872590 0.372590 0.000000 0.214067
Ni4   Ni    Ni4+2 0.127410 0.627410 0.000000 0.242298
O1    O     O_3   0.171451 0.332540 0.158569 -0.706383
H29   H     H_    0.201348 0.283128 0.145146 0.353372
O2    O     O_3   0.811746 0.700158 0.967675 -0.750981
H30   H     H_    0.816009 0.751766 0.023275 0.341633
Cl1   Cl    Cl    0.781544 0.925253 0.814997 -0.558000
Cl2   Cl    Cl    0.138287 0.978827 0.287549 -0.498484
Cl3   Cl    Cl    0.505502 0.694102 0.419777 -0.558308
Cl4   Cl    Cl    0.511409 0.200556 0.530604 -0.585972
O3    O     O_3   0.492818 0.717082 0.129280 -0.712858
H31   H     H_    0.487181 0.678923 0.068250 0.333646
O4    O     O_3   0.486729 0.201259 0.822010 -0.704593
H32   H     H_    0.504384 0.142888 0.800142 0.340130
Cl5   Cl    Cl    0.674917 0.573095 0.132155 -0.548108
Cl6   Cl    Cl    0.250920 0.329812 0.775382 -0.508875
Cl7   Cl    Cl    0.934934 0.615362 0.366022 -0.504910
Cl8   Cl    Cl    0.060726 0.386883 0.633423 -0.504860
Cl9   Cl    Cl    0.811873 0.476459 0.669600 -0.566197
Cl10  Cl    Cl    0.182954 0.515178 0.329721 -0.570096
Cl11  Cl    Cl    0.792975 0.177198 0.557790 -0.497681
Cl12  Cl    Cl    0.304226 0.840080 0.451090 -0.534580
Cl13  Cl    Cl    0.441404 0.934391 0.857306 -0.490246
Cl14  Cl    Cl    0.532319 0.177026 0.327961 -0.435424
Cl15  Cl    Cl    0.563029 0.031913 0.071823 -0.398482
Cl16  Cl    Cl    0.448110 0.191038 0.144490 -0.421790
Cl17  Cl    Cl    0.797009 0.076027 0.158455 -0.536352
Cl18  Cl    Cl    0.206386 0.092961 0.028986 -0.534940
O5    O     O_3   0.254423 0.362377 0.050312 -0.745102
H33   H     H_    0.282122 0.322024 0.015077 0.356103
O6    O     O_3   0.664326 0.510537 0.844727 -0.731506
H34   H     H_    0.720297 0.530249 0.824907 0.354143

loop_
_geom_bond_atom_site_label_1
_geom_bond_atom_site_label_2
_ccdc_geom_bond_type
C76   H24   S    
C63   C65   A    
C3    C42   S    
O6    H34   S    
C73   N11   A    
C20   H2    S    
C28   H4    S    
C34   C37   A    
C7    C36   S    
C41   C50   A    
C10   H28   S    
C24   N4    A    
C21   O3    S    
C16   Cl2   S    
C7    C73   A    
C13   C70   S    
C6    C72   A    
C23   Cl9   S    
C43   H9    S    
C64   Cl16  S    
C5    C53   S    
C35   C37   A    
C58   H13   S    
C1    O1    S    
C4    C24   A    
N12   Ni2   S    
C43   C52   A    
N3    N13   A    
C4    C41   S    
C12   C79   S    
C27   C29   A    
C60   C62   A    
C17   C39   A    
N14   Ni3   S    
C18   Cl14  S    
C18   C40   A    
C65   Cl17  S    
N2    N16   A    
C3    C23   A    
C2    N2    A    
C49   C51   A    
N8    Ni3   S    
C50   C52   A    
C60   Cl11  S    
C30   H6    S    
C27   H3    S    
C3    C75   A    
N9    Ni2   S    
C29   H5    S    
C67   H19   S    
N16   Ni4   S    
C1    N1    A    
C59   Cl12  S    
C71   H21   S    
C19   C31   A    
C75   H23   S    
C6    C54   S    
C39   H11   S    
C53   C60   A    
C54   C59   A    
C77   C79   A    
C15   C69   A    
C59   C61   A    
N5    Ni3   S    
C46   N6    A    
C51   C52   A    
C16   C70   A    
N13   Ni4   S    
C31   Cl3   S    
C66   Cl18  S    
C71   N9    A    
N1    N15   A    
C33   Cl5   S    
C5    C45   A    
C22   O4    S    
N7    Ni4   S    
N8    N12   A    
C8    C35   S    
C64   C66   A    
C9    C14   A    
C68   H20   S    
N4    N14   A    
C77   N15   A    
C25   C38   S    
N6    Ni4   S    
N15   Ni3   S    
O4    H32   S    
C63   Cl15  S    
C73   O5    S    
N3    Ni2   S    
C8    C74   A    
C2    O2    S    
C48   H7    S    
C40   H12   S    
C49   Cl8   S    
C9    C11   A    
C15   C39   A    
N4    Ni1   S    
N6    N10   A    
C10   C12   A    
N2    Ni2   S    
N5    N9    A    
N11   Ni1   S    
C44   C51   A    
N1    Ni1   S    
N10   Ni1   S    
C68   N8    A    
C8    C68   A    
N7    N11   A    
C57   H14   S    
C55   C57   A    
C1    C79   A    
C14   C69   S    
C9    H27   S    
C20   C22   A    
O2    H30   S    
C16   C40   A    
C44   H10   S    
C50   Cl7   S    
C32   Cl4   S    
O1    H29   S    
C20   C32   A    
C56   H16   S    
C21   C25   A    
C34   Cl6   S    
C6    C46   A    
C74   O6    S    
C19   C21   A    
C75   N13   A    
C17   Cl13  S    
C12   C14   A    
C10   C13   A    
C53   C58   A    
C26   C37   S    
C15   Cl1   S    
C25   C27   A    
C23   N3    A    
O3    H31   S    
C26   C28   A    
C33   C38   A    
C78   H26   S    
C76   N14   A    
C47   H8    S    
C77   H25   S    
C5    C71   A    
C24   Cl10  S    
C17   C63   A    
C36   C38   A    
C30   C32   A    
C11   C13   A    
C18   C64   A    
C66   C70   A    
C72   H22   S    
C65   C69   A    
C28   C30   A    
C55   H15   S    
C33   C35   A    
C41   C48   A    
C56   C58   A    
C78   C80   A    
C42   C47   A    
C46   H18   S    
C61   C62   A    
C67   N7    A    
C4    C76   A    
C2    C80   A    
C11   C80   S    
C42   C49   A    
C7    C67   A    
C74   N12   A    
C45   N5    A    
C55   C62   A    
C34   C36   A    
C29   C31   A    
C22   C26   A    
C72   N10   A    
O5    H33   S    
C56   C61   A    
C45   H17   S    
C19   H1    S    
C43   C47   A    
C44   C48   A    
C78   N16   A    
C54   C57   A    
