data_mof_unit_60874.cif
_audit_creation_date              2012-12-10T21:20:46-0500
_audit_creation_method            fapswitch 2.2
_symmetry_space_group_name_H-M    P1
_symmetry_Int_Tables_number       1
_space_group_crystal_system       triclinic
_cell_length_a                    17.665099
_cell_length_b                    16.812347
_cell_length_c                    19.364295
_cell_angle_alpha                 90.001062
_cell_angle_beta                  90.631501
_cell_angle_gamma                 89.999989
_cell_volume                      5750.68701392

loop_
_atom_site_label
_atom_site_type_symbol
_atom_type_description
_atom_site_fract_x
_atom_site_fract_y
_atom_site_fract_z
_atom_type_partial_charge
C1    C     C_R   0.353249 0.500288 0.500707 1.038689
C2    C     C_R   0.646751 0.500288 0.499293 1.038687
C3    C     C_R   0.729538 0.502119 0.497265 -0.317565
C4    C     C_R   0.270462 0.502119 0.502735 -0.317569
C5    C     C_R   0.886758 0.513258 0.500058 -0.020890
C6    C     C_R   0.113242 0.513258 0.499942 -0.020890
C7    C     C_1   0.966417 0.516645 0.500041 0.049778
C8    C     C_1   0.033583 0.516645 0.499959 0.049778
C9    C     C_R   0.435258 0.833353 0.479633 0.209263
C10   C     C_R   0.524169 0.166781 0.558503 0.207599
C11   C     C_R   0.564742 0.833354 0.520366 0.209262
C12   C     C_R   0.475831 0.166779 0.441496 0.207599
C13   C     C_R   0.437949 0.748285 0.475850 0.472527
C14   C     C_R   0.528154 0.251855 0.555949 0.461557
C15   C     C_R   0.562051 0.748286 0.524150 0.472524
C16   C     C_R   0.471846 0.251853 0.444051 0.461552
C17   C     C_R   0.500000 0.875894 0.499999 -0.061333
C18   C     C_R   0.500000 0.124243 0.499999 -0.063670
C19   C     C_1   0.500000 0.963654 0.499999 0.262176
C20   C     C_1   0.500000 0.036484 0.499999 0.260404
C21   C     C_R   0.500684 0.499739 0.365088 1.103031
C22   C     C_R   0.499316 0.499740 0.634912 1.103027
C23   C     C_R   0.457949 0.553713 0.249887 0.337116
C24   C     C_R   0.454215 0.439760 0.746285 0.391847
C25   C     C_R   0.542051 0.553717 0.750113 0.337107
C26   C     C_R   0.545786 0.439756 0.253714 0.391848
C27   C     C_R   0.462747 0.554033 0.177793 0.378241
C28   C     C_R   0.461939 0.431928 0.817912 0.365619
C29   C     C_R   0.537257 0.554037 0.822208 0.378239
C30   C     C_R   0.538064 0.431925 0.182086 0.365619
C31   C     C_R   0.499622 0.491001 0.144175 -0.286232
C32   C     C_R   0.500382 0.491004 0.855824 -0.286230
C33   C     C_R   0.502040 0.498288 0.288896 -0.440775
C34   C     C_R   0.497960 0.498292 0.711104 -0.440771
C35   C     C_R   0.500270 0.488087 0.930693 0.286467
C36   C     C_R   0.499735 0.488085 0.069307 0.286468
C37   C     C_R   0.845683 0.562692 0.456520 -0.203649
C38   C     C_R   0.148556 0.457549 0.458649 -0.180363
C39   C     C_R   0.154317 0.562693 0.543481 -0.203649
C40   C     C_R   0.851444 0.457550 0.541351 -0.180362
C41   C     C_R   0.767194 0.557406 0.453415 0.394429
C42   C     C_R   0.226959 0.451346 0.458895 0.377963
C43   C     C_R   0.232806 0.557408 0.546585 0.394428
C44   C     C_R   0.773041 0.451348 0.541104 0.377966
H1    H     H_    0.875429 0.604732 0.424221 0.184226
H2    H     H_    0.114369 0.418752 0.426299 0.218937
H3    H     H_    0.124571 0.604735 0.575779 0.184226
H4    H     H_    0.885631 0.418754 0.573701 0.218937
N1    N     N_R   0.433526 0.487850 0.033397 -0.108552
N2    N     N_R   0.566479 0.487850 0.966603 -0.108555
N3    N     N_R   0.433802 0.487807 0.964891 -0.101677
N4    N     N_R   0.566204 0.487805 0.035108 -0.101679
N5    N     N_R   0.500000 0.707230 0.500000 -0.146962
N6    N     N_R   0.500000 0.292770 0.500000 -0.150632
O1    O     O_R   0.389110 0.566570 0.500000 -0.525938
O2    O     O_R   0.610890 0.433430 0.500000 -0.560986
O3    O     O_R   0.610890 0.566570 0.500000 -0.525938
O4    O     O_R   0.389110 0.433430 0.500000 -0.560984
O5    O     O_R   0.499990 0.566560 0.398140 -0.544964
O6    O     O_R   0.500010 0.433440 0.601860 -0.532905
O7    O     O_R   0.500010 0.566560 0.601860 -0.544963
O8    O     O_R   0.499990 0.433440 0.398140 -0.532906
Zn1   Zn    Zn3+2 0.500000 0.588860 0.500000 1.210008
Zn2   Zn    Zn3+2 0.500000 0.411140 0.500000 1.181559
S1    S     S_3+6 0.397241 0.624828 0.289164 0.123949
O9    O     O_2   0.445002 0.692413 0.315654 -0.223060
O10   O     O_2   0.339940 0.657743 0.238729 -0.193501
O11   O     O_3   0.350278 0.583026 0.354850 -0.537226
H5    H     H_    0.301141 0.565651 0.334890 0.379836
S2    S     S_3+6 0.387955 0.374762 0.704586 0.135389
O12   O     O_2   0.427476 0.299101 0.685131 -0.258804
O13   O     O_2   0.324697 0.354898 0.752991 -0.175863
O14   O     O_3   0.349119 0.415908 0.633957 -0.558997
H6    H     H_    0.311846 0.376266 0.616937 0.386307
S3    S     S_3+6 0.602756 0.624834 0.710837 0.123950
O15   O     O_2   0.554991 0.692415 0.684347 -0.223057
O16   O     O_2   0.660055 0.657756 0.761272 -0.193496
O17   O     O_3   0.649722 0.583032 0.645151 -0.537223
H7    H     H_    0.698856 0.565653 0.665114 0.379834
S4    S     S_3+6 0.612043 0.374757 0.295412 0.135389
O18   O     O_2   0.572520 0.299097 0.314864 -0.258805
O19   O     O_2   0.675302 0.354891 0.247007 -0.175861
O20   O     O_3   0.650879 0.415903 0.366043 -0.558996
H8    H     H_    0.688150 0.376259 0.383064 0.386307
O21   O     O_3   0.430803 0.616824 0.141579 -0.638778
H9    H     H_    0.456641 0.623648 0.096892 0.354822
O22   O     O_3   0.430519 0.365954 0.849433 -0.642177
H10   H     H_    0.456778 0.355289 0.893877 0.352341
O23   O     O_3   0.569202 0.616826 0.858424 -0.638780
H11   H     H_    0.543366 0.623649 0.903112 0.354822
O24   O     O_3   0.569485 0.365952 0.150563 -0.642176
H12   H     H_    0.543227 0.355288 0.106118 0.352341
S5    S     S_3+6 0.721242 0.619644 0.391690 0.088376
O25   O     O_2   0.654094 0.579045 0.359489 -0.244024
O26   O     O_2   0.695308 0.694632 0.426293 -0.288634
O27   O     O_3   0.781572 0.643617 0.328268 -0.492878
H13   H     H_    0.804595 0.694878 0.342480 0.370767
S6    S     S_3+6 0.266397 0.378547 0.403961 0.041371
O28   O     O_2   0.331704 0.412809 0.364873 -0.293672
O29   O     O_2   0.293005 0.310075 0.447795 -0.275748
O30   O     O_3   0.201159 0.345283 0.346984 -0.530567
H14   H     H_    0.227274 0.303267 0.320435 0.400435
S7    S     S_3+6 0.278758 0.619648 0.608311 0.088377
O31   O     O_2   0.345907 0.579052 0.640510 -0.244019
O32   O     O_2   0.304691 0.694635 0.573708 -0.288632
O33   O     O_3   0.218428 0.643622 0.671733 -0.492879
H15   H     H_    0.195406 0.694883 0.657523 0.370768
S8    S     S_3+6 0.733603 0.378550 0.596038 0.041368
O34   O     O_2   0.668296 0.412813 0.635126 -0.293680
O35   O     O_2   0.706995 0.310077 0.552203 -0.275748
O36   O     O_3   0.798840 0.345288 0.653015 -0.530567
H16   H     H_    0.772725 0.303274 0.679565 0.400435
O37   O     O_3   0.370541 0.876010 0.463871 -0.699041
H17   H     H_    0.325975 0.843133 0.475602 0.368019
O38   O     O_3   0.543344 0.124108 0.617057 -0.698176
H18   H     H_    0.531468 0.156829 0.658061 0.373746
O39   O     O_3   0.629459 0.876012 0.536129 -0.699040
H19   H     H_    0.674025 0.843133 0.524398 0.368019
O40   O     O_3   0.456656 0.124104 0.382941 -0.698175
H20   H     H_    0.468532 0.156824 0.341937 0.373745
O41   O     O_3   0.378998 0.705583 0.447385 -0.628042
H21   H     H_    0.349560 0.740025 0.415517 0.370139
O42   O     O_3   0.560807 0.294805 0.608874 -0.630398
H22   H     H_    0.596003 0.260327 0.635392 0.365524
O43   O     O_3   0.621001 0.705585 0.552616 -0.628040
H23   H     H_    0.650438 0.740029 0.584485 0.370139
O44   O     O_3   0.439193 0.294802 0.391126 -0.630396
H24   H     H_    0.403999 0.260323 0.364607 0.365525

loop_
_geom_bond_atom_site_label_1
_geom_bond_atom_site_label_2
_ccdc_geom_bond_type
O22   H10   S    
S5    O25   D    
C5    C37   A    
O42   H22   S    
O14   H6    S    
C19   C20   T    
C29   O23   S    
C2    O3    A    
C24   S2    S    
C7    C8    T    
O21   H9    S    
O30   H14   S    
C4    C42   A    
C15   N5    A    
C38   C42   A    
C29   C32   A    
C42   S6    S    
C22   O6    A    
C30   C31   A    
C21   C33   S    
O33   H15   S    
O38   H18   S    
S6    O28   D    
S8    O34   D    
O7    Zn1   S    
C27   O21   S    
C9    C13   A    
O8    Zn2   S    
C11   C15   A    
C41   S5    S    
C12   C16   A    
O11   H5    S    
N1    N3    A    
O1    Zn1   S    
N2    N4    A    
C6    C38   A    
S2    O12   D    
C23   C27   A    
C36   N4    A    
C25   C34   A    
S5    O26   D    
C25   C29   A    
C35   N2    A    
S4    O20   S    
S3    O17   S    
O3    Zn1   S    
C13   N5    A    
C44   S8    S    
O4    Zn2   S    
C22   C34   S    
C3    C44   A    
C27   C31   A    
C32   C35   S    
C28   C32   A    
S4    O19   D    
C10   C14   A    
O24   H12   S    
C5    C7    S    
O17   H7    S    
S4    O18   D    
C6    C8    S    
C23   C33   A    
S2    O14   S    
C24   C34   A    
C25   S3    S    
S3    O15   D    
C12   O40   S    
C13   O41   S    
C26   C33   A    
O20   H8    S    
S1    O11   S    
O27   H13   S    
C28   O22   S    
O2    Zn2   S    
C21   O8    A    
S7    O32   D    
S3    O16   D    
O41   H21   S    
C9    C17   A    
C14   N6    A    
C26   C30   A    
S5    O27   S    
S6    O29   D    
C35   N3    A    
O43   H23   S    
C37   H1    S    
O44   H24   S    
C11   O39   S    
C39   H3    S    
O37   H17   S    
C40   H4    S    
C3    C41   A    
C14   O42   S    
O36   H16   S    
C6    C39   A    
C24   C28   A    
C30   O24   S    
C43   S7    S    
C11   C17   A    
C39   C43   A    
O40   H20   S    
C21   O5    A    
C4    C43   A    
S6    O30   S    
O5    Zn1   S    
S1    O10   D    
S8    O36   S    
O6    Zn2   S    
C1    C4    S    
C9    O37   S    
C23   S1    S    
C16   N6    A    
C2    C3    S    
C1    O1    A    
C2    O2    A    
O39   H19   S    
C22   O7    A    
N5    Zn1   S    
N6    Zn2   S    
C10   C18   A    
C17   C19   S    
S8    O35   D    
S7    O33   S    
C18   C20   S    
C37   C41   A    
C16   O44   S    
C26   S4    S    
C38   H2    S    
C36   N1    A    
C40   C44   A    
S1    O9    D    
C15   O43   S    
C5    C40   A    
C12   C18   A    
S7    O31   D    
C31   C36   S    
S2    O13   D    
O23   H11   S    
C1    O4    A    
C10   O38   S    
