data_mof_unit_17867.cif
_audit_creation_date              2012-12-10T19:42:53-0500
_audit_creation_method            fapswitch 2.2
_symmetry_space_group_name_H-M    P1
_symmetry_Int_Tables_number       1
_space_group_crystal_system       triclinic
_cell_length_a                    10.814503
_cell_length_b                    12.975277
_cell_length_c                    11.648566
_cell_angle_alpha                 100.284261
_cell_angle_beta                  93.800861
_cell_angle_gamma                 90.808849
_cell_volume                      1604.18191725

loop_
_atom_site_label
_atom_site_type_symbol
_atom_type_description
_atom_site_fract_x
_atom_site_fract_y
_atom_site_fract_z
_atom_type_partial_charge
C1    C     C_R   0.503259 0.299135 0.478043 0.859329
C2    C     C_R   0.496742 0.700865 0.521957 0.859328
C3    C     C_R   0.871598 0.494271 0.499350 -0.070727
C4    C     C_R   0.128402 0.505730 0.500650 -0.070726
C5    C     C_R   0.944431 0.458179 0.588768 0.022433
C6    C     C_R   0.055569 0.541822 0.411232 0.022433
C7    C     C_R   0.488312 0.814266 0.534996 -0.233912
C8    C     C_R   0.511689 0.185734 0.465004 -0.233913
C9    C     C_R   0.578228 0.017202 0.365485 0.371319
C10   C     C_R   0.421774 0.982798 0.634516 0.371318
C11   C     C_R   0.570719 0.125758 0.372173 0.323265
C12   C     C_R   0.429283 0.874242 0.627828 0.323266
C13   C     C_R   0.462982 0.138075 0.550881 -0.247591
C14   C     C_R   0.537020 0.861925 0.449119 -0.247589
C15   C     C_R   0.471041 0.030520 0.546914 -0.036482
C16   C     C_R   0.528962 0.969480 0.453087 -0.036480
C17   C     C_R   0.381789 0.402003 0.020823 -0.258176
C18   C     C_R   0.618212 0.597997 0.979177 -0.258177
C19   C     C_R   0.393293 0.411338 0.143280 0.163153
C20   C     C_R   0.606707 0.588662 0.856720 0.163156
C21   C     C_R   0.551148 0.542404 0.157654 0.083702
C22   C     C_R   0.448852 0.457596 0.842346 0.083707
C23   C     C_R   0.262243 0.503059 0.500455 0.802575
C24   C     C_R   0.737757 0.496942 0.499545 0.802577
C25   C     C_R   0.542983 0.535590 0.034610 0.080007
C26   C     C_R   0.457017 0.464410 0.965390 0.080009
C27   C     C_R   0.242170 0.721871 0.261056 -0.139582
C28   C     C_R   0.757834 0.278123 0.738937 -0.139583
C29   C     C_R   0.186268 0.680307 0.348253 -0.165516
C30   C     C_R   0.813734 0.319690 0.651742 -0.165522
C31   C     C_R   0.109705 0.589697 0.318664 0.124847
C32   C     C_R   0.890295 0.410302 0.681334 0.124848
C33   C     C_R   0.087217 0.543153 0.200467 -0.222438
C34   C     C_R   0.912780 0.456844 0.799531 -0.222439
C35   C     C_R   0.142993 0.585088 0.113471 -0.207448
C36   C     C_R   0.857004 0.414906 0.886525 -0.207448
C37   C     C_R   0.221121 0.674007 0.143715 0.447628
C38   C     C_R   0.778879 0.325985 0.856278 0.447632
C39   C     C_R   0.927493 0.534416 0.411159 -0.200522
C40   C     C_R   0.072507 0.465585 0.588841 -0.200520
Cu1   Cu    Cu3+1 0.509250 0.507730 0.615930 0.995285
Cu2   Cu    Cu3+1 0.490750 0.492270 0.384070 0.995283
H1    H     H_    0.383108 0.402985 0.788210 0.120912
H2    H     H_    0.616892 0.597015 0.211789 0.120912
H3    H     H_    0.665184 0.636955 0.814811 0.140788
H4    H     H_    0.334816 0.363045 0.185189 0.140788
H5    H     H_    0.314541 0.346507 0.970054 0.166584
H6    H     H_    0.685459 0.653493 0.029946 0.166584
H7    H     H_    0.302375 0.790814 0.284859 0.177192
H8    H     H_    0.697631 0.209179 0.715131 0.177192
H9    H     H_    0.204158 0.717578 0.438874 0.147785
H10   H     H_    0.795847 0.282420 0.561120 0.147787
H11   H     H_    0.028559 0.473274 0.176013 0.166732
H12   H     H_    0.971436 0.526724 0.823987 0.166732
H13   H     H_    0.126506 0.547760 0.022788 0.159482
H14   H     H_    0.873488 0.452233 0.977209 0.159483
H15   H     H_    0.871150 0.563712 0.343992 0.158337
H16   H     H_    0.128850 0.436289 0.656009 0.158337
H17   H     H_    0.581791 0.813598 0.379105 0.219123
H18   H     H_    0.418211 0.186402 0.620894 0.219124
N1    N     N_R   0.523180 0.519350 0.790130 -0.190176
N2    N     N_R   0.476820 0.480650 0.209870 -0.190176
O1    O     O_R   0.506570 0.354460 0.582000 -0.605421
O2    O     O_R   0.493430 0.645540 0.418000 -0.605422
O3    O     O_R   0.490940 0.341410 0.386200 -0.532059
O4    O     O_R   0.509060 0.658590 0.613800 -0.532058
O5    O     O_R   0.327460 0.506540 0.597900 -0.573300
O6    O     O_R   0.672540 0.493460 0.402100 -0.573300
O7    O     O_R   0.311830 0.493480 0.402100 -0.592473
O8    O     O_R   0.688170 0.506520 0.597900 -0.592473
Cl1   Cl    Cl    0.293096 0.725099 0.034630 -0.514491
Cl2   Cl    Cl    0.706904 0.274889 0.965361 -0.514485
Cl3   Cl    Cl    0.357449 0.814352 0.732433 -0.441119
Cl4   Cl    Cl    0.642556 0.185649 0.267569 -0.441121
Cl5   Cl    Cl    0.650674 0.942637 0.246945 -0.499058
Cl6   Cl    Cl    0.349330 0.057364 0.753058 -0.499053

loop_
_geom_bond_atom_site_label_1
_geom_bond_atom_site_label_2
_ccdc_geom_bond_type
C8    C13   A    
C27   C29   A    
C1    C8    S    
Cu1   Cu2   S    
C23   O7    A    
C2    C7    S    
Cu1   N1    S    
C19   H4    S    
C24   O8    A    
Cu1   O5    S    
C13   H18   S    
C14   H17   S    
C17   C26   A    
C35   C37   A    
C9    C16   A    
C10   C15   A    
C19   N2    A    
C15   C16   A    
C39   H15   S    
C23   O5    A    
C20   N1    A    
C21   C25   A    
C33   C35   A    
C10   Cl6   S    
C7    C14   A    
C4    C40   A    
Cu2   O3    S    
C1    O3    A    
C31   C33   A    
Cu2   N2    S    
C18   C20   A    
C20   H3    S    
C5    C32   S    
C6    C31   S    
C3    C39   A    
C12   Cl3   S    
Cu2   O6    S    
C3    C24   S    
C18   C25   A    
C28   H8    S    
C1    O1    A    
C2    O2    A    
C33   H11   S    
C7    C12   A    
C38   Cl2   S    
C37   Cl1   S    
C35   H13   S    
C40   H16   S    
C4    C6    A    
C4    C23   S    
C3    C5    A    
C25   C26   A    
Cu2   O7    S    
C32   C34   A    
C36   H14   S    
C21   H2    S    
C22   H1    S    
C28   C38   A    
C9    C11   A    
C21   N2    A    
C10   C12   A    
C34   H12   S    
C13   C15   A    
C14   C16   A    
Cu1   O1    S    
Cu2   O2    S    
C29   H9    S    
C30   H10   S    
C17   H5    S    
C2    O4    A    
C11   Cl4   S    
C18   H6    S    
Cu1   O4    S    
C28   C30   A    
C29   C31   A    
C22   N1    A    
C30   C32   A    
C27   C37   A    
C8    C11   A    
C36   C38   A    
C17   C19   A    
C34   C36   A    
C24   O6    A    
C22   C26   A    
C5    C40   A    
C6    C39   A    
C9    Cl5   S    
C27   H7    S    
Cu1   O8    S    
