data_mof_unit_38574.cif
_audit_creation_date              2012-12-10T17:50:13-0500
_audit_creation_method            fapswitch 2.2
_symmetry_space_group_name_H-M    P1
_symmetry_Int_Tables_number       1
_space_group_crystal_system       triclinic
_cell_length_a                    10.624061
_cell_length_b                    14.756717
_cell_length_c                    14.598394
_cell_angle_alpha                 65.154993
_cell_angle_beta                  104.138547
_cell_angle_gamma                 102.958375
_cell_volume                      1994.62131063

loop_
_atom_site_label
_atom_site_type_symbol
_atom_type_description
_atom_site_fract_x
_atom_site_fract_y
_atom_site_fract_z
_atom_type_partial_charge
C1    C     C_R   0.475368 0.119488 0.311330 0.846187
C2    C     C_R   0.524630 0.880514 0.688667 0.846186
C3    C     C_R   0.526394 0.284317 0.169783 0.087868
C4    C     C_R   0.473424 0.715758 0.830237 0.087743
C5    C     C_R   0.480757 0.359582 0.074699 0.014574
C6    C     C_R   0.518976 0.640474 0.925332 0.014590
C7    C     C_R   0.396535 0.327557 0.999369 -0.032702
C8    C     C_R   0.603302 0.672470 0.000644 -0.032682
C9    C     C_R   0.515739 0.465091 0.051230 0.110160
C10   C     C_R   0.483891 0.534970 0.948809 0.110128
C11   C     C_R   0.425274 0.496897 0.872228 -0.195616
C12   C     C_R   0.574327 0.503171 0.127809 -0.195576
C13   C     C_R   0.375293 0.395823 0.897759 -0.151223
C14   C     C_R   0.624438 0.604225 0.102268 -0.151338
C15   C     C_R   0.733518 0.290572 0.660954 -0.013503
C16   C     C_R   0.266486 0.709428 0.339044 -0.013562
C17   C     C_R   0.696819 0.209626 0.629167 0.767888
C18   C     C_R   0.303181 0.790372 0.370833 0.767862
C19   C     C_R   0.512718 0.282056 0.514471 -0.029581
C20   C     C_R   0.487288 0.717948 0.485525 -0.029541
C21   C     C_R   0.550411 0.371590 0.535062 -0.042814
C22   C     C_R   0.449600 0.628414 0.464931 -0.042815
C23   C     C_R   0.259520 0.000030 0.500032 0.867457
C24   C     C_R   0.740480 0.999969 0.499970 0.867420
C25   C     C_R   0.657444 0.371040 0.615365 -0.039577
C26   C     C_R   0.342565 0.628963 0.384630 -0.039588
C27   C     C_R   0.483872 0.459583 0.481878 -0.091765
C28   C     C_R   0.516141 0.540423 0.518113 -0.091778
C29   C     C_R   0.611444 0.528749 0.607599 0.589742
C30   C     C_R   0.388571 0.471258 0.392391 0.589672
C31   C     C_R   0.684079 0.449045 0.651018 -0.198803
C32   C     C_R   0.315935 0.550960 0.348973 -0.198802
C33   C     C_3   0.009092 0.922963 0.476052 -0.236380
C34   C     C_3   0.990908 0.077034 0.523953 -0.236388
C35   C     C_3   0.930299 0.011651 0.405894 -0.315808
C36   C     C_3   0.069702 0.988346 0.594111 -0.315839
C37   C     C_3   0.877205 0.000668 0.499528 -0.175986
C38   C     C_3   0.122796 0.999329 0.500477 -0.175976
C39   C     C_3   0.954536 0.913518 0.568595 0.688810
C40   C     C_3   0.045464 0.086479 0.431410 0.688843
C41   C     C_R   0.453122 0.186978 0.201270 -0.129653
C42   C     C_R   0.546856 0.813032 0.798724 -0.129562
C43   C     C_R   0.335895 0.227604 0.026066 0.610686
C44   C     C_R   0.664172 0.772368 0.973910 0.610698
C45   C     C_R   0.355172 0.159105 0.128295 -0.044058
C46   C     C_R   0.644938 0.840848 0.871670 -0.044106
Cu1   Cu    Cu3+1 0.465750 0.918270 0.475680 1.007536
Cu2   Cu    Cu3+1 0.534250 0.081730 0.524320 1.007548
H1    H     H_    0.871267 0.022431 0.328887 0.182121
H2    H     H_    0.128734 0.977565 0.671118 0.182123
H3    H     H_    0.576490 0.729863 0.535214 0.249458
H4    H     H_    0.423517 0.270143 0.464779 0.249466
H5    H     H_    0.018609 0.859235 0.457760 0.208429
H6    H     H_    0.981392 0.140762 0.542245 0.208436
H7    H     H_    0.321113 0.371121 0.837185 0.203345
H8    H     H_    0.678662 0.628925 0.162834 0.203328
H9    H     H_    0.415980 0.544441 0.791866 0.194203
H10   H     H_    0.583557 0.455640 0.208174 0.194334
H11   H     H_    0.758908 0.447418 0.716747 0.190005
H12   H     H_    0.241106 0.552587 0.283244 0.190008
N1    N     N_R   0.585750 0.204560 0.560800 -0.265347
N2    N     N_R   0.414250 0.795440 0.439200 -0.265353
O1    O     O_R   0.454850 0.022100 0.338110 -0.567626
O2    O     O_R   0.545150 0.977900 0.661890 -0.567609
O3    O     O_R   0.512700 0.160150 0.379180 -0.568245
O4    O     O_R   0.487300 0.839850 0.620820 -0.568237
O5    O     O_R   0.287930 0.931000 0.479440 -0.536371
O6    O     O_R   0.712070 0.069000 0.520560 -0.536375
O7    O     O_R   0.345780 0.069050 0.520520 -0.578876
O8    O     O_R   0.654220 0.930950 0.479480 -0.578887
F1    F     F_    0.227886 0.865101 0.332666 -0.692133
F2    F     F_    0.772111 0.134894 0.667336 -0.692129
C47   C     C_3   0.853569 0.290269 0.742124 -0.764809
H13   H     H_    0.905178 0.224180 0.766526 0.287000
H14   H     H_    0.924292 0.359084 0.711981 0.231800
H15   H     H_    0.824664 0.288034 0.811248 0.230640
C48   C     C_3   0.146431 0.709727 0.257878 -0.764699
H16   H     H_    0.094815 0.775810 0.233482 0.287013
H17   H     H_    0.175333 0.711967 0.188750 0.230632
H18   H     H_    0.075715 0.640907 0.288022 0.231809
F3    F     F_    0.631962 0.589731 0.659493 -0.675288
F4    F     F_    0.368055 0.410276 0.340497 -0.675373
F5    F     F_    0.903687 0.824020 0.639502 -0.637294
F6    F     F_    0.096314 0.175977 0.360503 -0.637283
C49   C     C_3   0.334414 0.701544 0.774117 -0.792587
H19   H     H_    0.333257 0.690070 0.703536 0.247412
H20   H     H_    0.272726 0.637119 0.823769 0.239925
H21   H     H_    0.286703 0.769191 0.752205 0.224156
C50   C     C_3   0.665375 0.298639 0.225909 -0.792497
H22   H     H_    0.727019 0.363091 0.176245 0.239884
H23   H     H_    0.666457 0.310128 0.296468 0.247422
H24   H     H_    0.713192 0.231034 0.247862 0.224163
C51   C     C_3   0.730132 0.941757 0.842598 -0.597423
H25   H     H_    0.669641 0.002288 0.820791 0.246969
H26   H     H_    0.809370 0.947765 0.906131 0.262153
H27   H     H_    0.778482 0.953110 0.778497 0.261352
C52   C     C_3   0.270143 0.058124 0.157323 -0.597546
H28   H     H_    0.330769 0.997658 0.179193 0.246842
H29   H     H_    0.221657 0.046712 0.221373 0.261496
H30   H     H_    0.191009 0.052051 0.093754 0.262158
F7    F     F_    0.251694 0.198746 0.953406 -0.676339
F8    F     F_    0.748560 0.801171 0.046535 -0.676333

loop_
_geom_bond_atom_site_label_1
_geom_bond_atom_site_label_2
_ccdc_geom_bond_type
C25   C31   A    
C14   H8    S    
C26   C32   A    
C51   H25   S    
C34   C37   S    
C47   H13   S    
C23   O7    A    
Cu2   O7    S    
Cu1   N2    S    
C52   H28   S    
C24   O8    A    
C48   H16   S    
C5    C9    A    
C33   C39   S    
C34   C40   S    
C28   C29   A    
C35   C37   S    
C2    C42   S    
C20   H3    S    
Cu1   O1    S    
Cu2   O2    S    
C31   H11   S    
C16   C48   S    
C42   C46   A    
C23   O5    A    
C40   F6    S    
C17   N1    A    
C19   H4    S    
C44   C46   A    
C35   H1    S    
C1    O3    A    
C7    C43   A    
Cu2   O3    S    
C50   H23   S    
C9    C10   A    
Cu1   O4    S    
C12   H10   S    
C49   H20   S    
C21   C27   A    
C51   H26   S    
C38   C40   S    
C22   C28   A    
C27   C30   A    
C16   C26   A    
C47   H14   S    
C1    O1    A    
Cu1   O5    S    
C52   H29   S    
C2    O2    A    
C48   H17   S    
C33   H5    S    
C4    C6    A    
C5    C7    A    
C44   F8    S    
C18   N2    A    
C6    C8    A    
C4    C49   S    
C3    C5    A    
C49   H19   S    
C30   F4    S    
C43   F7    S    
Cu1   O8    S    
C29   F3    S    
Cu1   Cu2   S    
C24   C37   S    
C16   C18   A    
Cu2   O6    S    
C50   H24   S    
C43   C45   A    
C1    C41   S    
C15   C47   S    
C20   C22   A    
C34   H6    S    
C51   H27   S    
C47   H15   S    
C32   H12   S    
C52   H30   S    
C36   H2    S    
C49   H21   S    
C48   H18   S    
C18   F1    S    
C15   C17   A    
C21   C25   A    
C3    C41   A    
C8    C14   A    
C19   C21   A    
C36   C39   S    
C8    C44   A    
C12   C14   A    
C2    O4    A    
C6    C10   A    
C23   C38   S    
C33   C38   S    
C3    C50   S    
C36   C38   S    
C35   C40   S    
C39   F5    S    
C37   C39   S    
C45   C52   S    
C30   C32   A    
C11   C13   A    
Cu2   N1    S    
C46   C51   S    
C4    C42   A    
C19   N1    A    
C33   C35   S    
C34   C36   S    
C20   N2    A    
C9    C12   A    
C15   C25   A    
C10   C11   A    
C24   O6    A    
C7    C13   A    
C17   F2    S    
C29   C31   A    
C22   C26   A    
C27   C28   A    
C41   C45   A    
C50   H22   S    
C11   H9    S    
C13   H7    S    
