data_mof_unit_54686.cif
_audit_creation_date              2012-12-11T15:45:00-0500
_audit_creation_method            fapswitch 2.2
_symmetry_space_group_name_H-M    P1
_symmetry_Int_Tables_number       1
_space_group_crystal_system       triclinic
_cell_length_a                    19.346794
_cell_length_b                    10.955181
_cell_length_c                    18.70913
_cell_angle_alpha                 90.28462
_cell_angle_beta                  90.470466
_cell_angle_gamma                 89.910174
_cell_volume                      3965.16853817

loop_
_atom_site_label
_atom_site_type_symbol
_atom_type_description
_atom_site_fract_x
_atom_site_fract_y
_atom_site_fract_z
_atom_type_partial_charge
C1    C     C_R   0.760876 0.537128 0.648045 0.535340
C2    C     C_R   0.187662 0.160956 0.563282 0.254369
C3    C     C_R   0.448172 0.948964 0.978000 0.018974
C4    C     C_R   0.965810 0.231890 0.970365 -0.149703
C5    C     C_R   0.983779 0.229316 0.042892 -0.151209
C6    C     C_R   0.465809 0.731890 0.970365 -0.149703
C7    C     C_R   0.483778 0.729316 0.042892 -0.151207
C8    C     C_3   0.996622 0.572997 0.044997 -0.274040
C9    C     C_3   0.975092 0.574971 0.966982 -0.266284
C10   C     C_3   0.496625 0.072996 0.044996 -0.274041
C11   C     C_3   0.475095 0.074970 0.966982 -0.266284
C12   C     C_R   0.760993 0.531664 0.852006 0.535142
C13   C     C_R   0.322005 0.565771 0.454344 0.253473
C14   C     C_R   0.239728 0.533163 0.148518 0.538292
C15   C     C_R   0.260993 0.031664 0.852006 0.535180
C16   C     C_R   0.739728 0.033163 0.148518 0.538292
C17   C     C_R   0.773920 0.129710 0.854533 0.557403
C18   C     C_R   0.225642 0.129066 0.146336 0.547451
C19   C     C_R   0.273920 0.629710 0.854533 0.557405
C20   C     C_R   0.725642 0.629067 0.146336 0.547453
C21   C     C_R   0.938113 0.351310 0.860635 0.560809
C22   C     C_R   0.029484 0.346845 0.146770 0.530955
C23   C     C_R   0.438113 0.851310 0.860635 0.560804
C24   C     C_R   0.687654 0.660959 0.563284 0.254382
C25   C     C_R   0.529484 0.846845 0.146770 0.530953
C26   C     C_R   0.759416 0.097372 0.419358 0.059438
C27   C     C_R   0.250506 0.106992 0.583138 -0.014235
C28   C     C_R   0.259414 0.597364 0.419359 0.059443
C29   C     C_R   0.750503 0.607013 0.583144 -0.014261
C30   C     C_R   0.713264 0.174667 0.453709 -0.018657
C31   C     C_R   0.302386 0.112386 0.533245 -0.045231
C32   C     C_R   0.213262 0.674658 0.453710 -0.018660
C33   C     C_R   0.802385 0.612423 0.533253 -0.045207
C34   C     C_R   0.724856 0.206040 0.525670 -0.046300
C35   C     C_3   0.700545 0.304650 0.432791 0.151935
C36   C     C_R   0.287915 0.114462 0.462626 -0.015084
C37   C     C_R   0.224852 0.706029 0.525671 -0.046313
C38   C     C_R   0.787916 0.614490 0.462633 -0.015112
C39   C     C_3   0.618797 0.310439 0.958855 -0.107166
C40   C     C_3   0.342828 0.959505 0.154317 -0.094840
C41   C     C_3   0.118797 0.810439 0.958855 -0.107167
C42   C     C_3   0.842828 0.459505 0.154316 -0.094840
C43   C     C_3   0.875015 0.882559 0.444607 -0.078055
C44   C     C_3   0.169548 0.290857 0.656956 -0.120363
C45   C     C_3   0.375008 0.382539 0.444609 -0.078054
C46   C     C_3   0.375057 0.074362 0.524327 0.157216
C47   C     C_3   0.669520 0.790714 0.657035 -0.120332
C48   C     C_3   0.737590 0.327938 0.315418 -0.086706
C49   C     C_3   0.415413 0.222198 0.607437 -0.099713
C50   C     C_3   0.237591 0.827934 0.315419 -0.086719
C51   C     C_3   0.915417 0.722218 0.607447 -0.099718
C52   C     C_3   0.200545 0.804641 0.432792 0.151940
C53   C     C_3   0.875055 0.574393 0.524336 0.157220
C54   C     C_3   0.713269 0.337707 0.510033 -0.189872
C55   C     C_3   0.358017 0.068461 0.443533 -0.202796
C56   C     C_3   0.213268 0.837696 0.510034 -0.189869
C57   C     C_R   0.239903 0.534045 0.353547 0.534168
C58   C     C_3   0.858017 0.568484 0.443542 -0.202804
C59   C     C_R   0.782423 0.159648 0.562812 -0.044525
C60   C     C_R   0.223274 0.148338 0.436994 -0.011344
C61   C     C_R   0.282418 0.659634 0.562814 -0.044531
C62   C     C_R   0.723273 0.648342 0.436996 -0.011352
C63   C     C_R   0.010525 0.344227 0.432111 -0.056657
C64   C     C_R   0.012008 0.329570 0.582404 0.005763
C65   C     C_R   0.510522 0.844225 0.432110 -0.056667
C66   C     C_R   0.512003 0.829561 0.582402 0.005778
C67   C     C_R   0.998989 0.118038 0.427779 -0.022081
C68   C     C_R   0.260875 0.037129 0.648045 0.535436
C69   C     C_R   0.013562 0.106405 0.574840 -0.045500
C70   C     C_R   0.498979 0.618037 0.427773 -0.022078
C71   C     C_R   0.513542 0.606395 0.574834 -0.045490
C72   C     C_R   0.015966 0.008171 0.460070 -0.090064
C73   C     C_R   0.022941 0.001960 0.533710 -0.141617
C74   C     C_R   0.515956 0.508167 0.460062 -0.090049
C75   C     C_R   0.522926 0.501953 0.533703 -0.141612
C76   C     C_R   0.005916 0.221757 0.541894 0.024565
C77   C     C_R   0.001952 0.228930 0.466420 -0.029104
C78   C     C_R   0.505903 0.721750 0.541890 0.024583
C79   C     C_R   0.739904 0.034047 0.353548 0.534165
C80   C     C_R   0.501943 0.728927 0.466415 -0.029113
C81   C     C_R   0.036097 0.434818 0.549977 0.017885
C82   C     C_R   0.025378 0.449982 0.476099 0.001765
C83   C     C_R   0.536103 0.934803 0.549976 0.017920
C84   C     C_R   0.525382 0.949974 0.476100 0.001771
C85   C     C_R   0.791904 0.173984 0.639605 0.563173
C86   C     C_R   0.209788 0.169511 0.361381 0.567289
C87   C     C_R   0.291902 0.673981 0.639604 0.563164
C88   C     C_R   0.709789 0.669509 0.361382 0.567295
C89   C     C_R   0.065745 0.528986 0.591869 -0.069796
C90   C     C_R   0.833015 0.098310 0.524970 -0.140382
C91   C     C_R   0.030716 0.571632 0.450401 -0.030190
C92   C     C_R   0.565760 0.028960 0.591870 -0.069751
C93   C     C_R   0.530723 0.071627 0.450405 -0.030178
C94   C     C_R   0.075865 0.643518 0.563493 -0.088016
C95   C     C_R   0.056500 0.665325 0.493370 -0.069520
C96   C     C_R   0.575876 0.143497 0.563499 -0.088026
C97   C     C_R   0.556508 0.165315 0.493378 -0.069530
C98   C     C_R   0.753768 0.088909 0.079823 -0.003001
C99   C     C_R   0.255388 0.061275 0.926508 -0.023971
C100  C     C_R   0.253768 0.588908 0.079823 -0.003001
C101  C     C_R   0.174461 0.182226 0.489386 -0.142170
C102  C     C_R   0.755388 0.561275 0.926508 -0.023965
C103  C     C_R   0.814304 0.058091 0.043426 0.034742
C104  C     C_R   0.203831 0.138277 0.950659 -0.022480
C105  C     C_R   0.314304 0.558091 0.043425 0.034742
C106  C     C_R   0.703831 0.638278 0.950659 -0.022484
C107  C     C_R   0.816908 0.065737 0.970616 -0.014709
C108  C     C_R   0.197301 0.159441 0.022358 -0.020175
C109  C     C_R   0.316907 0.565736 0.970616 -0.014709
C110  C     C_R   0.697301 0.659443 0.022357 -0.020173
C111  C     C_R   0.703792 0.159874 0.966457 0.245787
C112  C     C_R   0.333008 0.598290 0.524973 -0.140386
C113  C     C_R   0.279898 0.000035 0.050216 0.225588
C114  C     C_R   0.203791 0.659873 0.966457 0.245787
C115  C     C_R   0.779898 0.500036 0.050216 0.225587
C116  C     C_R   0.700882 0.149038 0.041921 -0.132233
C117  C     C_R   0.286675 0.981446 0.976185 -0.107041
C118  C     C_R   0.200882 0.649038 0.041921 -0.132234
C119  C     C_R   0.786675 0.481446 0.976185 -0.107035
C120  C     C_3   0.859091 0.945536 0.043653 -0.261824
C121  C     C_3   0.183658 0.265393 0.931430 -0.275650
C122  C     C_3   0.359091 0.445536 0.043653 -0.261825
C123  C     C_R   0.674454 0.682212 0.489386 -0.142132
C124  C     C_3   0.683658 0.765394 0.931429 -0.275666
C125  C     C_3   0.860449 0.953679 0.963005 -0.278820
C126  C     C_3   0.177255 0.289677 0.011388 -0.254845
C127  C     C_3   0.360449 0.453678 0.963005 -0.278820
C128  C     C_3   0.677255 0.789678 0.011387 -0.254839
C129  C     C_R   0.760941 0.107294 0.930063 0.020854
C130  C     C_R   0.238866 0.099951 0.072984 0.018243
C131  C     C_R   0.260941 0.607294 0.930063 0.020855
C132  C     C_R   0.738866 0.599953 0.072984 0.018244
C133  C     C_R   0.973667 0.344118 0.649333 0.529664
C134  C     C_R   0.822010 0.065788 0.454341 0.253478
C135  C     C_R   0.031271 0.347464 0.355424 0.526786
C136  C     C_R   0.473665 0.844117 0.649332 0.529632
C137  C     C_R   0.531270 0.847464 0.355424 0.526784
C138  C     C_R   0.989902 0.339601 0.080982 0.013454
C139  C     C_R   0.952524 0.344029 0.936350 0.006160
C140  C     C_R   0.489902 0.839601 0.080982 0.013455
C141  C     C_R   0.452524 0.844029 0.936351 0.006158
C142  C     C_R   0.966871 0.447117 0.048446 0.045053
C143  C     C_R   0.948171 0.448964 0.978000 0.018973
C144  C     C_R   0.466871 0.947117 0.048446 0.045057
Cr1   Cr    Cr6+3 0.885860 0.491680 0.749630 0.965659
Cr2   Cr    Cr6+3 0.112430 0.179310 0.249850 0.989891
Cr3   Cr    Cr6+3 0.387570 0.679310 0.750150 0.979462
Cr4   Cr    Cr6+3 0.612430 0.679310 0.249850 0.989890
Cr5   Cr    Cr6+3 0.114140 0.491680 0.250370 0.975576
Cr6   Cr    Cr6+3 0.385860 0.991680 0.749630 0.965668
Cr7   Cr    Cr6+3 0.614140 0.991680 0.250370 0.975576
Cr8   Cr    Cr6+3 0.730490 0.332970 0.748720 1.028712
Cr9   Cr    Cr6+3 0.269510 0.332970 0.251280 0.997300
Cr10  Cr    Cr6+3 0.230490 0.832970 0.748720 1.028725
Cr11  Cr    Cr6+3 0.769510 0.832970 0.251280 0.997302
Cr12  Cr    Cr6+3 0.887570 0.179310 0.750150 0.979472
H1    H     H_    0.880216 0.070045 0.551059 0.149799
H2    H     H_    0.314577 0.902197 0.957247 0.129359
H3    H     H_    0.927796 0.655931 0.649540 0.192735
H4    H     H_    0.155059 0.677304 0.070157 0.119191
H5    H     H_    0.814576 0.402197 0.957248 0.129361
H6    H     H_    0.833003 0.861371 0.062257 0.157594
H7    H     H_    0.133080 0.268436 0.902828 0.155063
H8    H     H_    0.333003 0.361370 0.062257 0.157595
H9    H     H_    0.633080 0.768436 0.902827 0.155051
H10   H     H_    0.910412 0.962753 0.068848 0.132268
H11   H     H_    0.225631 0.316913 0.905279 0.128355
H12   H     H_    0.410412 0.462752 0.068848 0.132268
H13   H     H_    0.128961 0.229409 0.472914 0.132176
H14   H     H_    0.725632 0.816914 0.905278 0.128347
H15   H     H_    0.912722 0.971487 0.941811 0.136623
H16   H     H_    0.216257 0.354370 0.032428 0.136949
H17   H     H_    0.412722 0.471486 0.941810 0.136623
H18   H     H_    0.716257 0.854371 0.032428 0.136949
H19   H     H_    0.833195 0.877097 0.936088 0.131237
H20   H     H_    0.123494 0.308884 0.027912 0.149759
H21   H     H_    0.333194 0.377096 0.936088 0.131239
H22   H     H_    0.623493 0.808885 0.027911 0.149758
H23   H     H_    0.968001 0.148186 0.939933 0.134451
H24   H     H_    0.380208 0.570018 0.551063 0.149800
H25   H     H_    0.999797 0.143650 0.066487 0.128748
H26   H     H_    0.467999 0.648186 0.939934 0.134451
H27   H     H_    0.499795 0.643651 0.066487 0.128747
H28   H     H_    0.967860 0.639914 0.078291 0.124310
H29   H     H_    0.932982 0.641411 0.955483 0.136605
H30   H     H_    0.467864 0.139914 0.078290 0.124312
H31   H     H_    0.432986 0.141412 0.955482 0.136605
H32   H     H_    0.053527 0.573283 0.052346 0.158403
H33   H     H_    0.019819 0.578134 0.930111 0.194529
H34   H     H_    0.553529 0.073279 0.052346 0.158403
H35   H     H_    0.628948 0.729370 0.472909 0.132196
H36   H     H_    0.519822 0.078129 0.930111 0.194529
H37   H     H_    0.147104 0.826342 0.414709 0.104151
H38   H     H_    0.888899 0.485387 0.548606 0.139187
H39   H     H_    0.647103 0.326347 0.414709 0.104150
H40   H     H_    0.388902 0.985355 0.548594 0.139171
H41   H     H_    0.761619 0.388849 0.519078 0.145384
H42   H     H_    0.387035 0.132433 0.409646 0.130328
H43   H     H_    0.261621 0.888831 0.519080 0.145383
H44   H     H_    0.887035 0.632452 0.409652 0.130330
H45   H     H_    0.666928 0.375137 0.537104 0.115604
H46   H     H_    0.095093 0.716867 0.597060 0.112077
H47   H     H_    0.357253 0.973590 0.422568 0.158428
H48   H     H_    0.166928 0.875131 0.537105 0.115596
H49   H     H_    0.857251 0.473612 0.422580 0.158423
H50   H     H_    0.019864 0.927169 0.427378 0.097812
H51   H     H_    0.035095 0.916360 0.559168 0.100706
H52   H     H_    0.519856 0.427165 0.427370 0.097816
H53   H     H_    0.535079 0.416352 0.559160 0.100704
H54   H     H_    0.983900 0.113190 0.372239 0.174215
H55   H     H_    0.020932 0.097458 0.631930 0.170801
H56   H     H_    0.483893 0.613192 0.372231 0.174204
H57   H     H_    0.058066 0.756441 0.473231 0.073690
H58   H     H_    0.520909 0.597442 0.631924 0.170801
H59   H     H_    0.009717 0.600981 0.399868 0.132684
H60   H     H_    0.078537 0.515297 0.647711 0.117690
H61   H     H_    0.509724 0.100981 0.399873 0.132686
H62   H     H_    0.578556 0.015260 0.647710 0.117682
H63   H     H_    0.592464 0.364708 0.916762 0.148978
H64   H     H_    0.657707 0.370918 0.984889 0.136763
H65   H     H_    0.578906 0.283093 0.997871 0.095860
H66   H     H_    0.308435 0.972702 0.200461 0.120558
H67   H     H_    0.370057 0.046070 0.141643 0.116136
H68   H     H_    0.595107 0.216841 0.597068 0.112092
H69   H     H_    0.381973 0.891907 0.171837 0.139858
H70   H     H_    0.092463 0.864707 0.916762 0.148978
H71   H     H_    0.157707 0.870917 0.984888 0.136762
H72   H     H_    0.078907 0.783094 0.997871 0.095859
H73   H     H_    0.808437 0.472709 0.200460 0.120560
H74   H     H_    0.870059 0.546066 0.141640 0.116136
H75   H     H_    0.881971 0.391904 0.171837 0.139859
H76   H     H_    0.909708 0.829260 0.409576 0.139158
H77   H     H_    0.823064 0.840111 0.443446 0.145874
H78   H     H_    0.896470 0.880640 0.499449 0.154554
H79   H     H_    0.558072 0.256435 0.473243 0.073692
H80   H     H_    0.129076 0.325614 0.693418 0.137980
H81   H     H_    0.187224 0.368460 0.623508 0.119861
H82   H     H_    0.212633 0.257378 0.691241 0.122878
H83   H     H_    0.409700 0.329241 0.409577 0.139166
H84   H     H_    0.323056 0.340095 0.443446 0.145864
H85   H     H_    0.396462 0.380617 0.499450 0.154541
H86   H     H_    0.628994 0.825548 0.693422 0.137959
H87   H     H_    0.687342 0.868319 0.623647 0.119833
H88   H     H_    0.712508 0.757061 0.691417 0.122944
H89   H     H_    0.735458 0.415486 0.286584 0.170100
H90   H     H_    0.655059 0.177305 0.070157 0.119191
H91   H     H_    0.687880 0.279691 0.304766 0.112268
H92   H     H_    0.780118 0.272862 0.292210 0.131905
H93   H     H_    0.364000 0.264878 0.615816 0.116920
H94   H     H_    0.453697 0.296419 0.613495 0.097179
H95   H     H_    0.427793 0.155920 0.649533 0.192745
H96   H     H_    0.235454 0.915487 0.286590 0.170103
H97   H     H_    0.187883 0.779681 0.304767 0.112274
H98   H     H_    0.280121 0.772868 0.292208 0.131905
H99   H     H_    0.864004 0.764900 0.615831 0.116938
H100  H     H_    0.953702 0.796436 0.613507 0.097186
O1    O     O_R   0.957020 0.451640 0.669920 -0.538841
O2    O     O_R   0.168040 0.093290 0.169870 -0.518170
O3    O     O_R   0.331960 0.593290 0.830130 -0.537099
O4    O     O_R   0.668040 0.593290 0.169870 -0.518170
O5    O     O_R   0.945600 0.250580 0.824860 -0.508070
O6    O     O_R   0.054400 0.250580 0.175140 -0.501702
O7    O     O_R   0.445600 0.750580 0.824860 -0.508076
O8    O     O_R   0.554400 0.750580 0.175140 -0.501703
O9    O     O_3   0.834640 0.334650 0.749500 -0.294579
O10   O     O_3   0.165360 0.334650 0.250500 -0.264867
O11   O     O_3   0.334640 0.834650 0.749500 -0.294581
O12   O     O_R   0.042980 0.451640 0.330080 -0.534400
O13   O     O_3   0.665360 0.834650 0.250500 -0.264866
O14   O     O_R   0.821450 0.543440 0.674610 -0.539541
O15   O     O_R   0.178550 0.543440 0.325390 -0.526003
O16   O     O_R   0.321450 0.043440 0.674610 -0.539544
O17   O     O_R   0.678550 0.043440 0.325390 -0.525999
O18   O     O_R   0.715320 0.458650 0.668100 -0.503319
O19   O     O_R   0.284680 0.458650 0.331900 -0.473875
O20   O     O_R   0.215320 0.958650 0.668100 -0.503311
O21   O     O_R   0.784680 0.958650 0.331900 -0.473877
O22   O     O_R   0.737170 0.209590 0.674530 -0.500601
O23   O     O_R   0.457020 0.951640 0.669920 -0.538840
O24   O     O_R   0.262830 0.209590 0.325470 -0.513038
O25   O     O_R   0.237170 0.709590 0.674530 -0.500605
O26   O     O_R   0.762830 0.709590 0.325470 -0.513032
O27   O     O_R   0.832710 0.092740 0.669580 -0.537202
O28   O     O_R   0.167290 0.092740 0.330420 -0.517050
O29   O     O_R   0.332710 0.592740 0.669580 -0.537206
O30   O     O_R   0.667290 0.592740 0.330420 -0.517047
O31   O     O_R   0.946290 0.250060 0.676040 -0.523613
O32   O     O_R   0.053710 0.250060 0.323960 -0.526845
O33   O     O_R   0.446290 0.750060 0.676040 -0.523618
O34   O     O_R   0.542980 0.951640 0.330080 -0.534400
O35   O     O_R   0.553710 0.750060 0.323960 -0.526847
O36   O     O_R   0.956270 0.452200 0.830470 -0.517938
O37   O     O_R   0.043730 0.452200 0.169530 -0.528842
O38   O     O_R   0.456270 0.952200 0.830470 -0.517942
O39   O     O_R   0.543730 0.952200 0.169530 -0.528842
O40   O     O_R   0.820760 0.543950 0.823440 -0.525071
O41   O     O_R   0.179240 0.543950 0.176560 -0.514570
O42   O     O_R   0.320760 0.043950 0.823440 -0.525065
O43   O     O_R   0.679240 0.043950 0.176560 -0.514571
O44   O     O_R   0.714570 0.459210 0.828640 -0.497937
O45   O     O_R   0.736470 0.210100 0.823360 -0.443563
O46   O     O_R   0.285430 0.459210 0.171360 -0.519188
O47   O     O_R   0.214570 0.959210 0.828640 -0.497927
O48   O     O_R   0.785430 0.959210 0.171360 -0.519188
O49   O     O_3   0.648717 0.206393 0.926540 -0.556213
O50   O     O_3   0.305837 0.910253 0.095568 -0.579103
O51   O     O_3   0.148717 0.706392 0.926540 -0.556213
O52   O     O_3   0.805834 0.410253 0.095569 -0.579104
O53   O     O_3   0.873031 0.002707 0.418993 -0.574501
O54   O     O_3   0.140838 0.196257 0.614618 -0.580938
O55   O     O_3   0.373026 0.502689 0.418997 -0.574494
O56   O     O_R   0.263530 0.210100 0.176640 -0.522675
O57   O     O_3   0.640809 0.696227 0.614608 -0.580952
O58   O     O_3   0.752787 0.351501 0.388278 -0.580179
O59   O     O_3   0.421890 0.171156 0.538221 -0.590714
O60   O     O_3   0.252789 0.851489 0.388280 -0.580185
O61   O     O_3   0.921889 0.671185 0.538229 -0.590714
O62   O     O_R   0.236470 0.710100 0.823360 -0.443567
O63   O     O_R   0.763530 0.710100 0.176640 -0.522676
O64   O     O_R   0.831960 0.093290 0.830130 -0.537101

loop_
_geom_bond_atom_site_label_1
_geom_bond_atom_site_label_2
_ccdc_geom_bond_type
C47   O57   S    
C118  H4    S    
C115  O52   S    
C107  C129  A    
C119  H5    S    
C9    C143  S    
C120  H10   S    
C16   O43   A    
Cr6   O42   S    
C14   O41   A    
Cr7   O39   S    
C39   O49   S    
C68   O16   A    
C13   C112  A    
C136  O33   A    
C44   H80   S    
C19   O3    A    
C90   C134  A    
C97   H79   S    
C29   C33   A    
C11   H36   S    
C89   C94   A    
C32   C52   S    
C91   H59   S    
C27   C68   S    
C37   C56   S    
Cr9   O46   S    
C109  C127  S    
C46   C55   S    
C70   C74   A    
C69   H55   S    
C49   O59   S    
C72   C73   A    
C65   C137  S    
C42   H75   S    
C20   O63   A    
Cr4   O30   S    
C19   C131  S    
C53   H38   S    
Cr4   O4    S    
C9    H33   S    
C51   H100  S    
Cr10  O62   S    
Cr1   O1    S    
Cr6   O38   S    
C28   C32   A    
C136  O23   A    
Cr7   O43   S    
Cr6   O16   S    
C60   C86   S    
C120  C125  S    
Cr7   O13   S    
C72   H50   S    
C40   H67   S    
C58   H49   S    
Cr4   O35   S    
C62   C88   S    
C82   C91   A    
C44   H82   S    
C51   O61   S    
C23   O7    A    
C55   H47   S    
C16   O48   A    
C1    C29   S    
C14   O46   A    
C6    C141  A    
C14   C100  S    
Cr5   O15   S    
C66   C136  S    
C49   H94   S    
C34   C54   S    
C17   O64   A    
C18   C130  S    
C21   C139  S    
C4    H23   S    
Cr3   O7    S    
C50   H96   S    
Cr3   O33   S    
C41   H70   S    
C87   O29   A    
C4    C5    A    
C43   H78   S    
C88   O26   A    
Cr12  O27   S    
C53   C58   S    
C46   H40   S    
C6    C7    A    
C104  C121  S    
C18   O56   A    
C71   H58   S    
C33   C38   A    
C7    H27   S    
Cr9   O10   S    
C48   H92   S    
C36   C55   S    
C16   C98   S    
Cr10  O47   S    
C22   O6    A    
C84   C93   A    
C137  O34   A    
C125  H15   S    
C3    C11   S    
C42   H73   S    
C85   O27   A    
C106  C124  S    
C50   H97   S    
C86   O28   A    
C31   C36   A    
C23   C141  S    
C103  C107  A    
C108  C126  S    
C22   O37   A    
C102  C119  A    
C110  C128  S    
C38   C62   A    
C70   H56   S    
C67   C77   A    
C59   C85   S    
C6    H26   S    
Cr9   O24   S    
C39   H63   S    
C47   H88   S    
C78   C80   A    
C57   O15   A    
C121  H7    S    
C92   C96   A    
C122  H8    S    
C69   C76   A    
C93   H61   S    
C67   C72   A    
C122  C127  S    
Cr6   O23   S    
C61   C87   S    
C139  C143  A    
C31   C46   S    
C48   O58   S    
C86   O24   A    
C23   O38   A    
C108  C130  A    
C120  H6    S    
C112  H24   S    
C41   H72   S    
C25   O39   A    
C40   O50   S    
C115  C132  A    
C113  C130  A    
C30   C34   A    
C63   C82   A    
C126  H16   S    
C107  C125  S    
Cr10  O11   S    
C25   O8    A    
C65   C84   A    
C24   C123  A    
Cr1   O14   S    
C13   O55   S    
Cr10  O20   S    
C45   H83   S    
C26   C134  A    
Cr1   O36   S    
C46   O59   S    
C99   C117  A    
C83   C84   A    
C15   O47   A    
C113  O50   S    
Cr9   O19   S    
C21   O36   A    
C10   C144  S    
C32   C37   A    
Cr4   O8    S    
C110  C132  A    
C1    O18   A    
C2    C27   A    
C89   H60   S    
C113  C117  A    
C116  H90   S    
C26   C30   A    
C115  C119  A    
C135  O12   A    
Cr2   O2    S    
C93   C97   A    
Cr2   O28   S    
C111  O49   S    
C105  C109  A    
C117  H2    S    
C85   O22   A    
Cr4   O13   S    
C52   H37   S    
C47   H86   S    
C54   H45   S    
C128  H18   S    
Cr7   O34   S    
C90   H1    S    
C49   H93   S    
Cr11  O21   S    
C4    C139  A    
Cr11  O63   S    
Cr5   O41   S    
Cr12  O64   S    
C10   H30   S    
C105  C122  S    
Cr3   O3    S    
C64   C81   A    
C10   C11   S    
C91   C95   A    
C124  H9    S    
Cr3   O29   S    
Cr1   O9    S    
C135  O32   A    
C61   C112  A    
Cr12  O31   S    
C12   O40   A    
C114  C131  A    
C103  C120  S    
C51   H99   S    
C8    H32   S    
C54   H41   S    
C20   C132  S    
C63   C77   A    
C7    C140  A    
C98   C103  A    
Cr5   O37   S    
C114  O51   S    
C24   C29   A    
C66   C83   A    
C38   C58   S    
C111  C129  A    
C3    C141  A    
C109  C131  A    
C13   C28   A    
C69   C73   A    
C111  C116  A    
C94   H46   S    
C35   H39   S    
C124  C128  S    
C81   C89   A    
C133  O1    A    
C99   C104  A    
C73   H51   S    
C79   O17   A    
C35   C54   S    
Cr5   O10   S    
C121  H11   S    
C5    H25   S    
C57   O19   A    
C66   C78   A    
C122  H12   S    
C70   C80   A    
C127  H21   S    
C43   H77   S    
C27   C31   A    
C42   O52   S    
C48   H89   S    
C50   H98   S    
C25   C140  S    
C92   H62   S    
Cr7   O17   S    
Cr8   O22   S    
C35   O58   S    
C42   H74   S    
C17   O45   A    
C138  C142  A    
C34   C59   A    
C100  C118  A    
C123  H35   S    
C104  C108  A    
C64   C133  S    
C75   H53   S    
C52   O60   S    
C43   H76   S    
C53   O61   S    
C3    C144  A    
C140  C144  A    
C24   O57   S    
Cr1   O40   S    
Cr8   O9    S    
C22   C138  S    
C26   C79   S    
C47   H87   S    
Cr2   O6    S    
C94   C95   A    
Cr8   O44   S    
C18   O2    A    
Cr2   O32   S    
C134  O53   S    
Cr12  O5    S    
C49   H95   S    
C40   H66   S    
C142  C143  A    
C39   H65   S    
Cr10  O25   S    
C8    C142  S    
Cr5   O12   S    
C127  H17   S    
C41   H71   S    
C44   H81   S    
C81   C82   A    
C5    C138  A    
C74   H52   S    
C28   C57   S    
C83   C92   A    
C58   H44   S    
C100  C105  A    
C10   H34   S    
C30   C35   S    
C11   H31   S    
C48   H91   S    
C9    H29   S    
C55   H42   S    
C67   H54   S    
C137  O35   A    
C40   H69   S    
Cr2   O10   S    
Cr12  O9    S    
C15   O42   A    
C8    C9    S    
C96   H68   S    
Cr11  O48   S    
Cr9   O56   S    
C56   H43   S    
C50   O60   S    
C8    H28   S    
C12   O44   A    
C65   C80   A    
Cr8   O45   S    
C62   C123  A    
Cr11  O13   S    
C33   C53   S    
C74   C75   A    
C17   C129  S    
C44   O54   S    
C39   H64   S    
C76   C77   A    
C45   O55   S    
Cr3   O11   S    
C1    O14   A    
C2    C101  A    
C133  O31   A    
C41   O51   S    
C59   C90   A    
C63   C135  S    
C87   O25   A    
C12   C102  S    
C88   O30   A    
C98   C116  A    
C68   O20   A    
C79   O21   A    
C96   C97   A    
C64   C76   A    
C114  C118  A    
C20   O4    A    
C21   O5    A    
C95   H57   S    
C128  H22   S    
C60   C101  A    
C125  H19   S    
C45   H85   S    
C126  H20   S    
C106  C110  A    
C43   O53   S    
C15   C99   S    
C36   C60   A    
C37   C61   A    
C56   H48   S    
Cr11  O26   S    
C45   H84   S    
C121  C126  S    
Cr8   O18   S    
C71   C75   A    
C51   H3    S    
C102  C106  A    
C101  H13   S    
C124  H14   S    
C2    O54   S    
C19   O62   A    
Cr6   O11   S    
C71   C78   A    
C52   C56   S    
