data_mof_unit_43269.cif
_audit_creation_date              2012-12-10T18:45:08-0500
_audit_creation_method            fapswitch 2.2
_symmetry_space_group_name_H-M    P1
_symmetry_Int_Tables_number       1
_space_group_crystal_system       triclinic
_cell_length_a                    10.653441
_cell_length_b                    9.827008
_cell_length_c                    10.712948
_cell_angle_alpha                 88.341976
_cell_angle_beta                  90.105503
_cell_angle_gamma                 88.705662
_cell_volume                      1120.7949518

loop_
_atom_site_label
_atom_site_type_symbol
_atom_type_description
_atom_site_fract_x
_atom_site_fract_y
_atom_site_fract_z
_atom_type_partial_charge
C1    C     C_R   0.260214 0.501527 0.497803 1.046907
C2    C     C_R   0.487420 0.498672 0.738987 0.897105
C3    C     C_R   0.453105 0.764060 0.102440 -0.085488
C4    C     C_R   0.355618 0.719700 0.867445 -0.132278
C5    C     C_R   0.390614 0.869656 0.036328 -0.147544
C6    C     C_R   0.337035 0.845739 0.921107 -0.119323
C7    C     C_R   0.426487 0.614894 0.930367 0.093513
C8    C     C_R   0.460655 0.630372 0.055182 0.139565
C9    C     C_R   0.500668 0.510723 0.124593 -0.044458
C10   C     C_R   0.468817 0.496502 0.870805 -0.125631
C11   C     C_R   0.524308 0.388080 0.064995 -0.139661
C12   C     C_R   0.739720 0.498146 0.496535 1.054413
C13   C     C_R   0.513129 0.382414 0.938425 -0.221444
C14   C     C_R   0.065116 0.498329 0.611404 0.102984
C15   C     C_R   0.934546 0.503894 0.610745 0.100887
C16   C     C_R   0.872331 0.492865 0.495995 -0.284828
C17   C     C_R   0.127540 0.504586 0.496282 -0.284160
C18   C     C_3   0.165622 0.359216 0.774690 -0.728320
C19   C     C_3   0.834527 0.644009 0.766277 -0.708701
C20   C     C_R   0.936303 0.478643 0.381970 0.307772
C21   C     C_R   0.064156 0.505617 0.380770 0.244043
C22   C     C_R   0.570743 0.067697 0.584400 -0.056560
C23   C     C_R   0.428502 0.076487 0.416289 -0.061767
C24   C     C_R   0.570512 0.923744 0.584549 -0.060035
C25   C     C_R   0.428255 0.932640 0.416616 -0.102959
C26   C     C_R   0.502639 0.503159 0.258984 1.032988
H1    H     H_    0.554983 0.296374 0.115774 0.165402
H2    H     H_    0.370377 0.882131 0.350446 0.152775
H3    H     H_    0.098966 0.557168 0.793255 0.257815
H4    H     H_    0.079118 0.302935 0.797829 0.240000
H5    H     H_    0.222544 0.366573 0.861038 0.261765
H6    H     H_    0.221272 0.301011 0.706089 0.252590
H7    H     H_    0.898452 0.444839 0.795250 0.260180
H8    H     H_    0.919848 0.693231 0.801457 0.234319
H9    H     H_    0.764755 0.637506 0.842998 0.255065
H10   H     H_    0.793785 0.708451 0.689249 0.242466
H11   H     H_    0.755858 0.233239 0.215372 0.362813
H12   H     H_    0.542558 0.289669 0.893367 0.168184
H13   H     H_    0.182960 0.759179 0.288360 0.345114
H14   H     H_    0.498983 0.792965 0.186598 0.162547
H15   H     H_    0.314520 0.705041 0.776511 0.158272
H16   H     H_    0.383358 0.970095 0.075064 0.135432
H17   H     H_    0.285283 0.926318 0.871165 0.140554
H18   H     H_    0.627216 0.118894 0.651851 0.126837
H19   H     H_    0.371296 0.134602 0.349370 0.151073
H20   H     H_    0.626171 0.865924 0.652648 0.126422
N1    N     N_R   0.500000 0.857200 0.500000 -0.084959
N2    N     N_R   0.500000 0.142810 0.500000 -0.081179
N3    N     N_2   0.134483 0.494651 0.725726 -0.328900
N4    N     N_2   0.864652 0.508542 0.724265 -0.309100
O1    O     O_R   0.316770 0.614620 0.499990 -0.607877
O2    O     O_2   0.952534 0.355744 0.158143 -0.242039
O3    O     O_3   0.758266 0.294071 0.287394 -0.568360
O4    O     O_2   0.218516 0.433790 0.194733 -0.290631
O5    O     O_2   0.053207 0.601959 0.138576 -0.222920
O6    O     O_3   0.239360 0.682000 0.266527 -0.580367
O7    O     O_R   0.683230 0.614620 0.500010 -0.635094
O8    O     O_R   0.316800 0.385290 0.500000 -0.632814
O9    O     O_R   0.683200 0.385290 0.500000 -0.566623
O10   O     O_R   0.500010 0.614690 0.316770 -0.626396
O11   O     O_R   0.499990 0.614690 0.683230 -0.639859
O12   O     O_R   0.500040 0.385360 0.316770 -0.603460
O13   O     O_R   0.499960 0.385360 0.683230 -0.639085
O14   O     O_2   0.788880 0.532487 0.181829 -0.320349
S1    S     S_3+6 0.859203 0.416696 0.246937 0.042494
S2    S     S_3+6 0.143001 0.553597 0.239656 0.053706
Zn1   Zn    Zn3+2 0.500000 0.653120 0.500000 0.971139
Zn2   Zn    Zn3+2 0.500000 0.346880 0.500000 0.996030

loop_
_geom_bond_atom_site_label_1
_geom_bond_atom_site_label_2
_ccdc_geom_bond_type
C9    C26   S    
C7    C10   A    
C22   N2    A    
C5    H16   S    
C18   H4    S    
O12   Zn2   S    
C21   S2    S    
O3    S1    S    
C25   N1    A    
C1    C17   S    
H13   O6    S    
C14   C17   A    
C2    O11   A    
C11   H1    S    
C16   C20   A    
H11   O3    S    
O14   S1    D    
C23   C25   A    
C26   O12   A    
H3    N3    S    
C24   H20   S    
C7    C8    A    
O1    Zn1   S    
C1    O8    A    
N2    Zn2   S    
C25   H2    S    
C1    O1    A    
C19   N4    S    
C13   H12   S    
C22   H18   S    
C26   O10   A    
C23   H19   S    
O7    Zn1   S    
C4    C7    A    
O6    S2    S    
C12   O7    A    
N1    Zn1   S    
C18   H5    S    
C3    H14   S    
C6    H17   S    
C9    C11   A    
C5    C6    A    
O9    Zn2   S    
C22   C24   A    
C12   O9    A    
C14   N3    S    
C18   H6    S    
C4    H15   S    
C15   C16   A    
C2    C10   S    
C12   C16   S    
C20   S1    S    
C11   C13   A    
O5    S2    D    
C20   C21   A    
C18   N3    S    
C4    C6    A    
C3    C8    A    
C15   N4    S    
O8    Zn2   S    
O11   Zn1   S    
C2    O13   A    
C19   H9    S    
C23   N2    A    
O13   Zn2   S    
C19   H10   S    
O4    S2    D    
C24   N1    A    
H7    N4    S    
C10   C13   A    
C17   C21   A    
O2    S1    D    
C14   C15   A    
O10   Zn1   S    
C8    C9    A    
C3    C5    A    
C19   H8    S    
