data_mof_unit_37076.cif
_audit_creation_date              2012-12-10T17:58:18-0500
_audit_creation_method            fapswitch 2.2
_symmetry_space_group_name_H-M    P1
_symmetry_Int_Tables_number       1
_space_group_crystal_system       triclinic
_cell_length_a                    9.522772
_cell_length_b                    10.844035
_cell_length_c                    15.603926
_cell_angle_alpha                 88.191532
_cell_angle_beta                  73.482043
_cell_angle_gamma                 89.211918
_cell_volume                      1544.05591059

loop_
_atom_site_label
_atom_site_type_symbol
_atom_type_description
_atom_site_fract_x
_atom_site_fract_y
_atom_site_fract_z
_atom_type_partial_charge
C1    C     C_R   0.003060 0.262370 0.495645 0.904763
C2    C     C_R   0.997764 0.737466 0.502237 0.908965
C3    C     C_R   0.603615 0.550057 0.097658 0.574849
C4    C     C_R   0.440471 0.633002 0.915734 0.560498
C5    C     C_R   0.749400 0.529950 0.049743 -0.311712
C6    C     C_R   0.294525 0.651876 0.963675 -0.307144
C7    C     C_R   0.923248 0.065539 0.444490 -0.161555
C8    C     C_R   0.074943 0.934478 0.550843 -0.164245
C9    C     C_R   0.921242 0.936402 0.448576 0.383567
C10   C     C_R   0.095169 0.061060 0.535093 0.385371
C11   C     C_R   0.994318 0.871281 0.503114 -0.208778
C12   C     C_R   0.008317 0.128144 0.490198 -0.217892
C13   C     C_R   0.550787 0.419643 0.555049 0.641149
C14   C     C_R   0.449212 0.582112 0.446434 0.652882
C15   C     C_R   0.400494 0.421814 0.555872 -0.245257
C16   C     C_R   0.599392 0.579244 0.445067 -0.194422
C17   C     C_R   0.917001 0.497713 0.672368 0.855126
C18   C     C_R   0.083323 0.502891 0.327820 0.839273
C19   C     C_R   0.871726 0.501106 0.770879 -0.164636
C20   C     C_R   0.132948 0.526154 0.230490 -0.156551
C21   C     C_R   0.937404 0.505709 0.909944 -0.187448
C22   C     C_R   0.093868 0.625777 0.098184 -0.207812
C23   C     C_R   0.978504 0.500358 0.817165 -0.221181
C24   C     C_R   0.039619 0.584222 0.186639 -0.285096
C25   C     C_R   0.722408 0.507615 0.819554 0.499518
C26   C     C_R   0.281135 0.505509 0.183627 0.523446
C27   C     C_R   0.683281 0.538499 0.910699 -0.028396
C28   C     C_R   0.340834 0.560718 0.097717 -0.020872
C29   C     C_R   0.790272 0.523930 0.957072 0.013393
C30   C     C_R   0.242838 0.612840 0.053032 0.016327
C31   C     C_R   0.538518 0.574133 0.958162 -0.129990
C32   C     C_R   0.493382 0.558568 0.052524 -0.118565
Cu1   Cu    Cu3+1 0.140660 0.500020 0.500000 1.039033
Cu2   Cu    Cu3+1 0.859340 0.499980 0.500000 1.048511
H1    H     H_    0.830740 0.521211 0.085839 0.172630
H2    H     H_    0.220988 0.695691 0.930022 0.169762
H3    H     H_    0.925238 0.599659 0.221275 0.183387
H4    H     H_    0.093845 0.492226 0.781959 0.192309
H5    H     H_    0.021073 0.498517 0.944602 0.159551
H6    H     H_    0.019843 0.670459 0.065381 0.148361
H7    H     H_    0.322291 0.362135 0.601858 0.184625
H8    H     H_    0.676866 0.640998 0.400487 0.176733
N1    N     N_R   0.352080 0.500030 0.499980 -0.222299
N2    N     N_R   0.647920 0.499970 0.500020 -0.220863
O1    O     O_R   0.118740 0.319660 0.500000 -0.557331
O2    O     O_R   0.881260 0.680340 0.500000 -0.560330
O3    O     O_R   0.881170 0.319630 0.500010 -0.542373
O4    O     O_R   0.118830 0.680370 0.499990 -0.545364
O5    O     O_R   0.055570 0.500030 0.629830 -0.581250
O6    O     O_R   0.944430 0.499970 0.370170 -0.572945
O7    O     O_R   0.818000 0.500000 0.629840 -0.497566
O8    O     O_R   0.182000 0.500000 0.370160 -0.508900
O9    O     O_3   0.364858 0.426495 0.220703 -0.516124
C33   C     C_3   0.343395 0.304861 0.197853 -0.322466
H9    H     H_    0.378153 0.294370 0.124023 0.144134
H10   H     H_    0.227341 0.275974 0.226609 0.168172
H11   H     H_    0.412058 0.241752 0.226513 0.188838
O10   O     O_3   0.616049 0.475147 0.779683 -0.501586
C34   C     C_3   0.563566 0.356339 0.812076 -0.225121
H12   H     H_    0.520865 0.350447 0.886238 0.115068
H13   H     H_    0.470309 0.334583 0.785916 0.203222
H14   H     H_    0.650480 0.285511 0.788412 0.146402
O11   O     O_3   0.575029 0.578565 0.186602 -0.516442
C35   C     C_3   0.597140 0.706371 0.191955 -0.282127
H15   H     H_    0.687534 0.745644 0.135899 0.111305
H16   H     H_    0.629196 0.721925 0.253453 0.192129
H17   H     H_    0.493690 0.757407 0.195733 0.177340
O12   O     O_3   0.486640 0.679469 0.828761 -0.527698
C36   C     C_3   0.549340 0.796451 0.829035 -0.306551
H18   H     H_    0.648256 0.790168 0.853492 0.158310
H19   H     H_    0.468284 0.862116 0.869654 0.141782
H20   H     H_    0.584477 0.834264 0.759362 0.194737
C37   C     C_2   0.844984 0.130219 0.385933 0.386637
H21   H     H_    0.744610 0.091769 0.378456 0.090243
O13   O     O_2   0.895674 0.222475 0.341700 -0.561242
C38   C     C_2   0.134183 0.873472 0.620305 0.394374
H22   H     H_    0.225774 0.913489 0.637771 0.103021
O14   O     O_2   0.076457 0.781827 0.662451 -0.557560
O15   O     O_3   0.844906 0.873593 0.400194 -0.595961
C39   C     C_3   0.939806 0.851849 0.314393 -0.352157
H23   H     H_    0.875872 0.808752 0.274118 0.173806
H24   H     H_    0.029732 0.787284 0.318182 0.162700
H25   H     H_    0.986437 0.938932 0.278570 0.168089
O16   O     O_3   0.202063 0.119606 0.562703 -0.583810
C40   C     C_3   0.337557 0.105916 0.495964 -0.349113
H26   H     H_    0.329144 0.078888 0.429063 0.144756
H27   H     H_    0.406631 0.036981 0.519410 0.149139
H28   H     H_    0.394931 0.195438 0.484436 0.196322
O17   O     O_3   0.599196 0.345951 0.614969 -0.530070
C41   C     C_3   0.571050 0.220593 0.605706 -0.392667
H29   H     H_    0.454029 0.198543 0.637784 0.174484
H30   H     H_    0.636285 0.163902 0.641032 0.185972
H31   H     H_    0.606109 0.193642 0.534590 0.154926
O18   O     O_3   0.400206 0.664700 0.391874 -0.532369
C42   C     C_3   0.419398 0.786620 0.415865 -0.375861
H32   H     H_    0.535483 0.815749 0.390272 0.164487
H33   H     H_    0.380820 0.798234 0.489465 0.166201
H34   H     H_    0.353573 0.849643 0.385031 0.179075

loop_
_geom_bond_atom_site_label_1
_geom_bond_atom_site_label_2
_ccdc_geom_bond_type
C27   C29   A    
Cu1   O1    S    
C37   H21   S    
C42   H32   S    
C17   O7    A    
C42   H34   S    
C18   O8    A    
C7    C37   S    
O9    C33   S    
C2    O2    A    
Cu1   O8    S    
Cu2   O7    S    
C38   O14   D    
C36   H18   S    
Cu1   O5    S    
C8    C38   S    
C9    O15   S    
C10   O16   S    
C36   H19   S    
C20   C24   A    
O12   C36   S    
Cu2   O2    S    
C16   N2    A    
C18   C20   S    
C34   H12   S    
C37   O13   D    
C3    C32   A    
C1    C12   S    
C39   H25   S    
C2    C11   S    
C24   H3    S    
C5    C29   A    
C40   H27   S    
C7    C12   A    
C33   H10   S    
Cu2   O6    S    
C34   H13   S    
C27   C31   A    
Cu1   N1    S    
C35   H17   S    
C28   C32   A    
Cu2   N2    S    
C38   H22   S    
C15   H7    S    
C4    C6    A    
C17   O5    A    
C4    O12   S    
C1    O3    A    
C2    O4    A    
O10   C34   S    
C40   H26   S    
C21   C29   A    
O15   C39   S    
C35   H16   S    
C36   H20   S    
C19   C23   A    
C41   H30   S    
C31   C32   A    
C21   H5    S    
C22   H6    S    
Cu1   Cu2   S    
O16   C40   S    
C9    C11   A    
C10   C12   A    
C39   H24   S    
C6    C30   A    
C13   C15   A    
C14   C16   A    
C25   O10   S    
C26   O9    S    
C16   H8    S    
C18   O6    A    
C41   H31   S    
C40   H28   S    
C7    C9    A    
C33   H9    S    
C34   H14   S    
C22   C30   A    
C13   O17   S    
C39   H23   S    
C3    C5    A    
C42   H33   S    
C3    O11   S    
C25   C27   A    
C23   H4    S    
C26   C28   A    
C35   H15   S    
C21   C23   A    
C15   N1    A    
C1    O1    A    
C41   H29   S    
C20   C26   A    
C8    C11   A    
C5    H1    S    
C28   C30   A    
C17   C19   S    
C6    H2    S    
C22   C24   A    
O18   C42   S    
C19   C25   A    
C4    C31   A    
O11   C35   S    
C8    C10   A    
Cu1   O4    S    
Cu2   O3    S    
O17   C41   S    
C14   O18   S    
C13   N2    A    
C14   N1    A    
C33   H11   S    
