data_mof_unit_27656.cif
_audit_creation_date              2012-12-11T15:12:23-0500
_audit_creation_method            fapswitch 2.2
_symmetry_space_group_name_H-M    P1
_symmetry_Int_Tables_number       1
_space_group_crystal_system       triclinic
_cell_length_a                    31.069503
_cell_length_b                    22.711576
_cell_length_c                    18.153069
_cell_angle_alpha                 90.008002
_cell_angle_beta                  124.656539
_cell_angle_gamma                 89.977308
_cell_volume                      10536.7684353

loop_
_atom_site_label
_atom_site_type_symbol
_atom_type_description
_atom_site_fract_x
_atom_site_fract_y
_atom_site_fract_z
_atom_type_partial_charge
C1    C     C_R   0.546614 0.583001 0.744038 -0.145135
C2    C     C_R   0.466276 0.390395 0.293633 -0.139864
C3    C     C_R   0.453350 0.582912 0.255893 -0.145251
C4    C     C_R   0.533734 0.390384 0.706334 -0.139647
C5    C     C_R   0.046617 0.082996 0.744042 -0.145161
C6    C     C_R   0.966277 0.890395 0.293633 -0.139883
C7    C     C_R   0.953350 0.082911 0.255892 -0.145262
C8    C     C_R   0.033732 0.890382 0.706329 -0.139656
C9    C     C_R   0.748264 0.355191 0.475269 0.119497
C10   C     C_R   0.287969 0.698145 0.530400 0.119206
C11   C     C_R   0.253107 0.354555 0.527962 0.119640
C12   C     C_R   0.710025 0.699070 0.464683 0.119572
C13   C     C_R   0.248535 0.855292 0.475938 0.119472
C14   C     C_R   0.788296 0.198294 0.531155 0.119272
C15   C     C_R   0.752971 0.854615 0.527641 0.119615
C16   C     C_R   0.209839 0.199166 0.464224 0.119609
C17   C     C_R   0.751688 0.296347 0.504142 0.010011
C18   C     C_R   0.286388 0.757401 0.504884 0.008751
C19   C     C_R   0.247963 0.296557 0.495071 0.009859
C20   C     C_R   0.713284 0.757573 0.494270 0.008773
C21   C     C_R   0.251643 0.796310 0.504078 0.010050
C22   C     C_R   0.786430 0.257434 0.504956 0.008748
C23   C     C_R   0.748000 0.796527 0.495148 0.009879
C24   C     C_R   0.213254 0.257593 0.494188 0.008771
C25   C     C_R   0.719944 0.276131 0.531562 0.147617
C26   C     C_R   0.318912 0.777456 0.478890 0.147025
C27   C     C_R   0.278035 0.277175 0.463861 0.148199
C28   C     C_R   0.682572 0.776757 0.524422 0.147200
C29   C     C_R   0.219590 0.775958 0.530786 0.147505
C30   C     C_R   0.818655 0.277359 0.478268 0.147055
C31   C     C_R   0.778241 0.777053 0.464315 0.148143
C32   C     C_R   0.182715 0.276683 0.524727 0.147216
C33   C     C_R   0.780770 0.374417 0.449391 -0.193869
C34   C     C_R   0.256022 0.678999 0.557415 -0.198332
C35   C     C_R   0.222201 0.372995 0.557530 -0.193949
C36   C     C_R   0.740138 0.680831 0.433512 -0.198625
C37   C     C_R   0.281338 0.874645 0.450752 -0.193878
C38   C     C_R   0.756655 0.179283 0.558869 -0.198377
C39   C     C_R   0.721900 0.873144 0.556837 -0.193931
C40   C     C_R   0.239779 0.181024 0.432670 -0.198654
C41   C     C_R   0.316479 0.835876 0.452534 -0.212221
C42   C     C_R   0.722844 0.218250 0.559566 -0.220823
C43   C     C_R   0.686730 0.834379 0.554891 -0.212296
C44   C     C_R   0.273502 0.220093 0.431993 -0.220688
C45   C     C_R   0.815922 0.335653 0.451206 -0.212223
C46   C     C_R   0.222194 0.717948 0.558095 -0.220860
C47   C     C_R   0.187031 0.334224 0.555574 -0.212299
C48   C     C_R   0.773870 0.719885 0.432831 -0.220711
C49   C     C_R   0.366156 0.612859 0.108759 0.110649
C50   C     C_R   0.593367 0.297887 0.769941 0.111137
C51   C     C_R   0.633766 0.613116 0.891085 0.110652
C52   C     C_R   0.406614 0.297969 0.229909 0.111181
C53   C     C_R   0.866155 0.112859 0.108762 0.110645
C54   C     C_R   0.093364 0.797882 0.769926 0.111137
C55   C     C_R   0.133768 0.113113 0.891087 0.110648
C56   C     C_R   0.906614 0.797969 0.229907 0.111190
C57   C     C_R   0.355370 0.629061 0.966609 -0.215416
C58   C     C_R   0.572937 0.209143 0.819452 -0.213992
C59   C     C_R   0.644514 0.629544 0.033168 -0.215442
C60   C     C_R   0.427023 0.209124 0.180512 -0.213953
C61   C     C_R   0.855357 0.129038 0.966597 -0.215417
C62   C     C_R   0.072927 0.709122 0.819392 -0.213996
C63   C     C_R   0.144513 0.129545 0.033167 -0.215440
C64   C     C_R   0.927022 0.709125 0.180506 -0.213964
C65   C     C_R   0.385943 0.610749 0.055705 -0.200834
C66   C     C_R   0.557687 0.263351 0.775436 -0.198850
C67   C     C_R   0.613963 0.611134 0.944122 -0.200876
C68   C     C_R   0.442300 0.263331 0.224520 -0.199024
C69   C     C_R   0.885936 0.110734 0.055698 -0.200838
C70   C     C_R   0.057679 0.763336 0.775393 -0.198879
C71   C     C_R   0.113964 0.111133 0.944123 -0.200870
C72   C     C_R   0.942299 0.763332 0.224515 -0.199066
C73   C     C_R   0.313471 0.630043 0.068796 -0.059952
C74   C     C_R   0.643704 0.274807 0.803433 -0.059916
C75   C     C_R   0.686439 0.630285 0.931023 -0.059951
C76   C     C_R   0.356231 0.275028 0.196264 -0.059993
C77   C     C_R   0.813475 0.130053 0.068809 -0.059959
C78   C     C_R   0.143705 0.774810 0.803431 -0.059917
C79   C     C_R   0.186442 0.130281 0.931027 -0.059951
C80   C     C_R   0.856232 0.775027 0.196264 -0.059993
C81   C     C_R   0.280280 0.638460 0.975081 0.026996
C82   C     C_R   0.655114 0.215720 0.832508 0.027365
C83   C     C_R   0.719615 0.638783 0.024718 0.027008
C84   C     C_R   0.344789 0.215944 0.167243 0.027351
C85   C     C_R   0.780277 0.138460 0.975092 0.026995
C86   C     C_R   0.155115 0.715719 0.832488 0.027364
C87   C     C_R   0.219616 0.138782 0.024721 0.027010
C88   C     C_R   0.844790 0.715942 0.167242 0.027345
C89   C     C_R   0.626479 0.608802 0.574340 -0.146789
C90   C     C_R   0.355142 0.419756 0.426359 -0.168697
C91   C     C_R   0.373748 0.608972 0.425571 -0.146939
C92   C     C_R   0.644865 0.419671 0.573647 -0.167642
C93   C     C_R   0.126508 0.108781 0.574334 -0.146792
C94   C     C_R   0.855145 0.919737 0.426358 -0.168574
C95   C     C_R   0.873729 0.108961 0.425580 -0.146895
C96   C     C_R   0.144864 0.919657 0.573648 -0.167470
C97   C     C_R   0.303291 0.645589 0.927156 0.179997
C98   C     C_R   0.622610 0.186501 0.852110 0.178617
C99   C     C_R   0.696589 0.646035 0.072603 0.180469
C100  C     C_R   0.377317 0.186593 0.147778 0.178582
C101  C     C_R   0.803280 0.145571 0.927151 0.180070
C102  C     C_R   0.122603 0.686486 0.852061 0.178624
C103  C     C_R   0.196588 0.146037 0.072604 0.180518
C104  C     C_R   0.877316 0.686593 0.147772 0.178593
C105  C     C_R   0.226237 0.649704 0.930344 0.072400
C106  C     C_R   0.702551 0.188787 0.857714 0.074068
C107  C     C_R   0.773658 0.649975 0.069450 0.072205
C108  C     C_R   0.297325 0.189121 0.142012 0.074518
C109  C     C_R   0.726236 0.149706 0.930367 0.072373
C110  C     C_R   0.202557 0.688794 0.857704 0.073992
C111  C     C_R   0.273659 0.149974 0.069454 0.072187
C112  C     C_R   0.797326 0.689119 0.142011 0.074472
C113  C     C_R   0.725722 0.197086 0.810626 -0.222824
C114  C     C_R   0.194450 0.621233 0.951892 -0.222245
C115  C     C_R   0.274120 0.197579 0.189023 -0.222679
C116  C     C_R   0.805456 0.621395 0.047986 -0.222175
C117  C     C_R   0.225736 0.697109 0.810632 -0.222853
C118  C     C_R   0.694457 0.121249 0.951940 -0.222244
C119  C     C_R   0.774123 0.697573 0.189026 -0.222705
C120  C     C_R   0.305458 0.121392 0.047995 -0.222168
C121  C     C_R   0.774595 0.172484 0.842694 -0.221674
C122  C     C_R   0.141917 0.637294 0.908741 -0.218652
C123  C     C_R   0.225246 0.173042 0.156984 -0.222407
C124  C     C_R   0.857998 0.637381 0.091152 -0.218686
C125  C     C_R   0.274612 0.672512 0.842707 -0.221539
C126  C     C_R   0.641926 0.137316 0.908803 -0.218657
C127  C     C_R   0.725248 0.673036 0.156986 -0.222337
C128  C     C_R   0.358000 0.137378 0.091161 -0.218683
C129  C     C_R   0.574102 0.609585 0.424344 -0.147370
C130  C     C_R   0.405464 0.418646 0.575182 -0.151406
C131  C     C_R   0.425847 0.609649 0.575563 -0.147504
C132  C     C_R   0.594557 0.418682 0.424825 -0.151660
C133  C     C_R   0.074103 0.109576 0.424335 -0.147363
C134  C     C_R   0.905464 0.918642 0.575181 -0.151459
C135  C     C_R   0.925871 0.109656 0.575570 -0.147470
C136  C     C_R   0.094557 0.918683 0.424826 -0.151712
C137  C     C_R   0.381966 0.581187 0.256865 -0.119113
C138  C     C_R   0.604705 0.390395 0.702378 -0.117945
C139  C     C_R   0.618008 0.581265 0.743068 -0.119208
C140  C     C_R   0.395307 0.390417 0.297603 -0.117731
C141  C     C_R   0.881967 0.081191 0.256868 -0.119126
C142  C     C_R   0.104705 0.890395 0.702378 -0.117960
C143  C     C_R   0.118009 0.081266 0.743066 -0.119195
C144  C     C_R   0.895307 0.890418 0.297601 -0.117748
C145  C     C_R   0.599777 0.597579 0.794399 0.070827
C146  C     C_R   0.421624 0.357912 0.269713 0.065988
C147  C     C_R   0.400171 0.597442 0.205492 0.070985
C148  C     C_R   0.578387 0.357871 0.730225 0.065975
C149  C     C_R   0.099780 0.097576 0.794401 0.070840
C150  C     C_R   0.921624 0.857912 0.269711 0.065982
C151  C     C_R   0.900171 0.097444 0.205494 0.070991
C152  C     C_R   0.078385 0.857869 0.730219 0.065971
C153  C     C_R   0.611925 0.640379 0.498620 0.086062
C154  C     C_R   0.356691 0.406270 0.501035 0.081047
C155  C     C_R   0.388272 0.640633 0.501177 0.086259
C156  C     C_R   0.643322 0.406296 0.498960 0.079998
C157  C     C_R   0.111954 0.140346 0.498603 0.086076
C158  C     C_R   0.856695 0.906255 0.501035 0.080947
C159  C     C_R   0.888266 0.140619 0.501198 0.086237
C160  C     C_R   0.143320 0.906294 0.498958 0.079806
C161  C     C_R   0.685097 0.313987 0.529671 -0.280874
C162  C     C_R   0.353131 0.738466 0.479189 -0.282550
C163  C     C_R   0.312958 0.314983 0.466018 -0.280857
C164  C     C_R   0.648456 0.737676 0.524181 -0.282980
C165  C     C_R   0.184745 0.813818 0.528907 -0.280880
C166  C     C_R   0.852874 0.238362 0.478586 -0.282625
C167  C     C_R   0.813157 0.814862 0.466446 -0.280869
C168  C     C_R   0.148613 0.237588 0.524496 -0.283023
C169  C     C_R   0.681110 0.371223 0.500031 0.058558
C170  C     C_R   0.354139 0.680377 0.503763 0.054120
C171  C     C_R   0.318751 0.371333 0.499747 0.058839
C172  C     C_R   0.645810 0.680293 0.495638 0.054609
C173  C     C_R   0.181083 0.871196 0.500000 0.058510
C174  C     C_R   0.854164 0.180383 0.503835 0.054193
C175  C     C_R   0.818769 0.871306 0.499770 0.058807
C176  C     C_R   0.145814 0.180277 0.495585 0.054646
C177  C     C_R   0.712176 0.393071 0.472902 -0.057429
C178  C     C_R   0.321254 0.659103 0.527861 -0.050322
C179  C     C_R   0.289336 0.392360 0.530702 -0.057453
C180  C     C_R   0.676980 0.659817 0.467455 -0.050301
C181  C     C_R   0.212462 0.893182 0.473602 -0.057426
C182  C     C_R   0.821550 0.159223 0.528582 -0.050316
C183  C     C_R   0.789188 0.892424 0.530346 -0.057441
C184  C     C_R   0.176818 0.159887 0.467015 -0.050295
H1    H     H_    0.522043 0.580707 0.768432 0.085726
H2    H     H_    0.496204 0.377809 0.283913 0.096464
H3    H     H_    0.477913 0.580559 0.231484 0.085629
H4    H     H_    0.503809 0.377808 0.716043 0.096403
H5    H     H_    0.022049 0.080695 0.768442 0.085712
H6    H     H_    0.996206 0.877809 0.283915 0.096466
H7    H     H_    0.977910 0.080555 0.231479 0.085625
H8    H     H_    0.003805 0.877804 0.716033 0.096413
H9    H     H_    0.518821 0.279355 0.750009 0.125978
H10   H     H_    0.425873 0.597766 0.083668 0.120995
H11   H     H_    0.481194 0.279249 0.250048 0.125948
H12   H     H_    0.574038 0.598176 0.916177 0.121025
H13   H     H_    0.018810 0.779335 0.749955 0.125980
H14   H     H_    0.925863 0.097743 0.083654 0.120998
H15   H     H_    0.981193 0.779250 0.250042 0.125937
H16   H     H_    0.074039 0.098176 0.916177 0.121024
H17   H     H_    0.372838 0.631711 0.929315 0.125556
H18   H     H_    0.546475 0.185756 0.830001 0.127755
H19   H     H_    0.627033 0.632289 0.070436 0.125555
H20   H     H_    0.453497 0.185641 0.170061 0.127744
H21   H     H_    0.872820 0.131675 0.929293 0.125552
H22   H     H_    0.046461 0.685724 0.829919 0.127759
H23   H     H_    0.127031 0.132293 0.070433 0.125554
H24   H     H_    0.953496 0.685644 0.170051 0.127741
H25   H     H_    0.704989 0.219658 0.746816 0.131869
H26   H     H_    0.209078 0.584357 0.997686 0.133803
H27   H     H_    0.294834 0.220224 0.252764 0.130800
H28   H     H_    0.790832 0.584490 0.002255 0.133839
H29   H     H_    0.205008 0.719690 0.746829 0.132061
H30   H     H_    0.709087 0.084379 0.997745 0.133807
H31   H     H_    0.794838 0.720214 0.252771 0.130911
H32   H     H_    0.290835 0.084485 0.002268 0.133842
H33   H     H_    0.657534 0.618606 0.643098 0.107059
H34   H     H_    0.321142 0.419757 0.357762 0.100107
H35   H     H_    0.342763 0.618819 0.356781 0.107180
H36   H     H_    0.678865 0.419596 0.642241 0.099915
H37   H     H_    0.157572 0.118579 0.643089 0.107042
H38   H     H_    0.821145 0.919729 0.357762 0.100090
H39   H     H_    0.842736 0.118804 0.356793 0.107172
H40   H     H_    0.178864 0.919571 0.642241 0.099870
H41   H     H_    0.557051 0.620099 0.354897 0.102434
H42   H     H_    0.418336 0.417041 0.644423 0.092027
H43   H     H_    0.442623 0.620057 0.644952 0.102643
H44   H     H_    0.581746 0.417186 0.355608 0.092811
H45   H     H_    0.057025 0.120101 0.354884 0.102414
H46   H     H_    0.918328 0.917050 0.644419 0.092111
H47   H     H_    0.942688 0.120085 0.644966 0.102610
H48   H     H_    0.081754 0.917200 0.355612 0.092947
H49   H     H_    0.341851 0.573690 0.233494 0.097477
H50   H     H_    0.638055 0.377595 0.702863 0.109004
H51   H     H_    0.658130 0.573809 0.766429 0.097570
H52   H     H_    0.361964 0.377611 0.297126 0.108743
H53   H     H_    0.841851 0.073699 0.233498 0.097480
H54   H     H_    0.138056 0.877594 0.702865 0.109027
H55   H     H_    0.158130 0.073813 0.766422 0.097571
H56   H     H_    0.861963 0.877611 0.297119 0.108760
H57   H     H_    0.660199 0.298829 0.550146 0.137698
H58   H     H_    0.378631 0.752826 0.459690 0.138715
H59   H     H_    0.336620 0.300371 0.442735 0.137092
H60   H     H_    0.624335 0.751389 0.546851 0.138663
H61   H     H_    0.159617 0.798569 0.548853 0.137802
H62   H     H_    0.878150 0.252626 0.458568 0.138718
H63   H     H_    0.836942 0.800189 0.443439 0.137150
H64   H     H_    0.124623 0.251230 0.547462 0.138670
H65   H     H_    0.779079 0.419209 0.427427 0.144668
H66   H     H_    0.256966 0.634041 0.578180 0.144171
H67   H     H_    0.225194 0.417150 0.582565 0.144535
H68   H     H_    0.737845 0.636501 0.409521 0.143957
H69   H     H_    0.279888 0.919540 0.429354 0.144691
H70   H     H_    0.757827 0.134421 0.580174 0.144122
H71   H     H_    0.724762 0.917367 0.581567 0.144551
H72   H     H_    0.237361 0.136758 0.408383 0.143934
H73   H     H_    0.341435 0.851405 0.432635 0.132384
H74   H     H_    0.698555 0.202986 0.581031 0.130540
H75   H     H_    0.663154 0.849244 0.577972 0.132315
H76   H     H_    0.296513 0.205480 0.407637 0.130031
H77   H     H_    0.840649 0.351082 0.430770 0.132378
H78   H     H_    0.197668 0.702580 0.579017 0.130646
H79   H     H_    0.163586 0.349018 0.578950 0.132313
H80   H     H_    0.797010 0.705200 0.408761 0.130093
H81   H     H_    0.791378 0.178245 0.804676 0.134181
H82   H     H_    0.117707 0.614085 0.924631 0.129580
H83   H     H_    0.208444 0.178917 0.194958 0.134015
H84   H     H_    0.882217 0.614084 0.075335 0.129593
H85   H     H_    0.291401 0.678286 0.804703 0.134211
H86   H     H_    0.617720 0.114118 0.924714 0.129579
H87   H     H_    0.708448 0.678909 0.194963 0.134042
H88   H     H_    0.382220 0.114080 0.075348 0.129592
N1    N     N_R   0.532970 0.559900 0.665210 -0.036834
N2    N     N_R   0.467030 0.440100 0.334790 -0.039851
N3    N     N_R   0.467030 0.559900 0.334790 -0.036839
N4    N     N_R   0.532970 0.440100 0.665210 -0.039879
N5    N     N_R   0.032970 0.059900 0.665210 -0.036836
N6    N     N_R   0.967030 0.940100 0.334790 -0.039848
N7    N     N_R   0.967030 0.059900 0.334790 -0.036842
N8    N     N_R   0.032970 0.940100 0.665210 -0.039876
N9    N     N_R   0.597900 0.559930 0.545530 -0.041901
N10   N     N_R   0.402100 0.440070 0.454470 -0.038152
N11   N     N_R   0.402100 0.559930 0.454470 -0.042062
N12   N     N_R   0.597900 0.440070 0.545530 -0.038268
N13   N     N_R   0.097900 0.059930 0.545530 -0.041888
N14   N     N_R   0.902100 0.940070 0.454470 -0.038166
N15   N     N_R   0.902100 0.059930 0.454470 -0.042049
N16   N     N_R   0.097900 0.940070 0.545530 -0.038287
N17   N     N_R   0.567170 0.559950 0.454460 -0.042741
N18   N     N_R   0.432830 0.440050 0.545540 -0.036559
N19   N     N_R   0.432830 0.559950 0.545540 -0.042769
N20   N     N_R   0.567170 0.440050 0.454460 -0.036653
N21   N     N_R   0.067170 0.059950 0.454460 -0.042735
N22   N     N_R   0.932830 0.940050 0.545540 -0.036569
N23   N     N_R   0.932830 0.059950 0.545540 -0.042779
N24   N     N_R   0.067170 0.940050 0.454460 -0.036669
N25   N     N_R   0.421470 0.559970 0.334770 -0.041180
N26   N     N_R   0.578530 0.440030 0.665230 -0.044676
N27   N     N_R   0.578530 0.559970 0.665230 -0.041213
N28   N     N_R   0.421470 0.440030 0.334770 -0.044649
N29   N     N_R   0.921470 0.059970 0.334770 -0.041181
N30   N     N_R   0.078530 0.940030 0.665230 -0.044678
N31   N     N_R   0.078530 0.059970 0.665230 -0.041213
N32   N     N_R   0.921470 0.940030 0.334770 -0.044649
Ni1   Ni    Ni4+2 0.483030 0.500000 0.604430 0.206591
Ni2   Ni    Ni4+2 0.516970 0.500000 0.395570 0.206564
Ni3   Ni    Ni4+2 0.983030 0.000000 0.604430 0.206577
Ni4   Ni    Ni4+2 0.016970 0.000000 0.395570 0.206562
Ni5   Ni    Ni4+2 0.587400 0.500000 0.604430 0.206480
Ni6   Ni    Ni4+2 0.412600 0.500000 0.395570 0.206374
Ni7   Ni    Ni4+2 0.087400 0.000000 0.604430 0.206476
Ni8   Ni    Ni4+2 0.912600 0.000000 0.395570 0.206392
N33   N     N_3   0.685961 0.314683 0.828642 -0.222003
H89   H     H_    0.716287 0.308219 0.895996 0.121241
H90   H     H_    0.700055 0.307908 0.789174 0.097069
N34   N     N_3   0.298214 0.652405 0.124981 -0.219883
H91   H     H_    0.282492 0.694658 0.103700 0.121907
H92   H     H_    0.270502 0.625013 0.122372 0.094373
N35   N     N_3   0.313992 0.315031 0.170844 -0.221912
H93   H     H_    0.283736 0.308589 0.103446 0.121188
H94   H     H_    0.299773 0.308356 0.210138 0.096834
N36   N     N_3   0.701692 0.652561 0.874804 -0.219986
H95   H     H_    0.717373 0.694826 0.895986 0.121712
H96   H     H_    0.729437 0.625149 0.877503 0.094402
N37   N     N_3   0.185962 0.814694 0.828672 -0.221997
H97   H     H_    0.216280 0.808225 0.896030 0.121243
H98   H     H_    0.200069 0.807929 0.789222 0.097105
N38   N     N_3   0.798230 0.152435 0.125001 -0.219889
H99   H     H_    0.782513 0.194689 0.103713 0.121883
H100  H     H_    0.770517 0.125054 0.122408 0.094380
N39   N     N_3   0.813992 0.815028 0.170846 -0.221913
H101  H     H_    0.783736 0.808587 0.103448 0.121192
H102  H     H_    0.799773 0.808350 0.210139 0.096860
N40   N     N_3   0.201696 0.152554 0.874809 -0.219995
H103  H     H_    0.217379 0.194819 0.895989 0.121698
H104  H     H_    0.229441 0.125140 0.877510 0.094400
N41   N     N_3   0.708287 0.453264 0.445742 -0.221185
H105  H     H_    0.669879 0.461484 0.391475 0.104484
H106  H     H_    0.716659 0.479985 0.499206 0.109815
N42   N     N_3   0.319844 0.597765 0.546226 -0.226301
H107  H     H_    0.355136 0.585950 0.605472 0.103934
H108  H     H_    0.314115 0.572632 0.493115 0.116012
N43   N     N_3   0.294973 0.451710 0.562098 -0.221520
H109  H     H_    0.333751 0.458287 0.616105 0.103463
H110  H     H_    0.286672 0.479957 0.510173 0.110473
N44   N     N_3   0.677132 0.598959 0.445510 -0.225750
H111  H     H_    0.641475 0.588606 0.385948 0.102451
H112  H     H_    0.682743 0.572529 0.497404 0.116172
N45   N     N_3   0.208877 0.953506 0.447178 -0.221147
H113  H     H_    0.170551 0.961982 0.392815 0.104649
H114  H     H_    0.217193 0.979964 0.500851 0.109719
N46   N     N_3   0.820339 0.097953 0.547504 -0.226221
H115  H     H_    0.855687 0.086360 0.606810 0.103709
H116  H     H_    0.814630 0.072617 0.494577 0.116057
N47   N     N_3   0.794647 0.951864 0.561319 -0.221471
H117  H     H_    0.833392 0.958608 0.615345 0.103578
H118  H     H_    0.786324 0.979958 0.509226 0.110395
N48   N     N_3   0.176842 0.099083 0.444713 -0.225692
H119  H     H_    0.141150 0.088873 0.385126 0.102301
H120  H     H_    0.182446 0.072519 0.496480 0.116181

loop_
_geom_bond_atom_site_label_1
_geom_bond_atom_site_label_2
_ccdc_geom_bond_type
N36   H96   S    
C105  C110  A    
C78   N37   S    
C90   N10   A    
C18   C21   A    
C33   C45   A    
C107  C112  A    
C30   C45   A    
C103  C123  A    
C79   C87   A    
N41   H105  S    
C140  N28   A    
C141  N29   A    
C170  C178  A    
C175  C183  A    
C86   C110  A    
C39   H71   S    
C51   C145  S    
C4    C148  A    
C75   N36   S    
C5    C149  A    
C62   C70   A    
N32   Ni8   S    
N27   Ni5   S    
C56   C72   A    
C161  H57   S    
C53   C69   A    
C141  C151  A    
C163  H59   S    
C82   C98   A    
C10   C178  A    
C7    N7    A    
C137  H49   S    
C73   C81   A    
C14   C182  A    
C109  C118  A    
C129  C153  A    
C166  C174  A    
C80   N39   S    
C115  C123  A    
C84   C100  A    
C143  H55   S    
N42   H107  S    
C121  H81   S    
C54   C152  S    
C20   C28   A    
N24   Ni4   S    
C21   C29   A    
C124  H84   S    
C96   C160  A    
N34   H91   S    
C23   C31   A    
C24   C32   A    
C14   C38   A    
N47   H117  S    
C54   C70   A    
C57   C97   A    
N46   H115  S    
C12   C20   A    
C13   C21   A    
C34   H66   S    
C117  H29   S    
C15   C39   A    
C16   C40   A    
C87   C103  A    
C38   H70   S    
C31   C167  A    
C31   C48   A    
C32   C168  A    
C139  H51   S    
C32   C47   A    
C49   C73   A    
C11   C179  A    
N1    Ni1   S    
C6    N6    A    
C9    C177  A    
N2    Ni2   S    
N31   Ni7   S    
C65   H10   S    
C176  C184  A    
C52   C146  S    
C126  H86   S    
N9    Ni5   S    
C60   C100  A    
C3    H3    S    
N12   Ni5   S    
C16   C184  A    
C1    H1    S    
C108  C111  A    
C131  N19   A    
C17   C25   A    
C4    H4    S    
C11   C35   A    
C5    H5    S    
C80   C88   A    
C123  H83   S    
N3    Ni2   S    
C10   C18   A    
C36   H68   S    
N15   N23   A    
C68   H11   S    
N16   N24   A    
N25   Ni6   S    
C40   H72   S    
C143  C149  A    
C130  H42   S    
N48   H120  S    
C168  C176  A    
C62   H22   S    
C55   C71   A    
N3    N25   A    
C58   H18   S    
N35   H94   S    
C3    C147  A    
N45   H113  S    
C160  C173  S    
C137  N25   A    
C58   C98   A    
C174  C182  A    
N33   H89   S    
N11   Ni6   S    
C71   H16   S    
C95   C159  A    
C108  C115  A    
C8    C152  A    
C8    H8    S    
C50   C74   A    
N33   H90   S    
C29   C165  A    
N14   N22   A    
C183  N47   S    
N37   H98   S    
C135  N23   A    
C144  C150  A    
C136  N24   A    
C27   C163  A    
C45   H77   S    
C27   C44   A    
N10   N18   A    
C25   C161  A    
N30   Ni7   S    
C91   N11   A    
C34   C46   A    
C138  N26   A    
C180  N44   S    
C161  C169  A    
C77   C85   A    
C127  H87   S    
C128  H88   S    
C171  C179  A    
C169  C177  A    
C88   C104  A    
C55   C149  S    
C81   C105  A    
C106  C113  A    
C166  H62   S    
C92   C156  A    
N40   H103  S    
N13   Ni7   S    
N14   Ni8   S    
C95   H39   S    
C15   C183  A    
C88   C112  A    
C61   C101  A    
C134  N22   A    
C131  H43   S    
C44   H76   S    
N39   H102  S    
N44   H112  S    
C20   C23   A    
C130  C154  A    
C51   C67   A    
C41   H73   S    
N12   N20   A    
N47   H118  S    
C13   C181  A    
N43   H110  S    
C69   H14   S    
C164  C172  A    
C90   C154  A    
C56   C150  S    
C67   H12   S    
C86   C102  A    
C122  H82   S    
C167  C175  A    
C50   C148  S    
C64   C104  A    
C22   C30   A    
C134  C158  A    
C100  C128  A    
N38   H99   S    
C52   C76   A    
N4    N26   A    
C3    N3    A    
C104  C124  A    
C56   C80   A    
C115  H27   S    
C14   C22   A    
C113  H25   S    
C92   N12   A    
C72   H15   S    
C93   N13   A    
C95   N15   A    
C153  C172  S    
C132  C156  A    
C154  C171  S    
C36   C48   A    
C133  C157  A    
C134  H46   S    
C37   C41   A    
C107  C116  A    
C90   H34   S    
C157  C176  S    
C178  N42   S    
C136  C160  A    
C158  C175  S    
C40   C44   A    
C113  C121  A    
C142  N30   A    
C57   H17   S    
C94   H38   S    
C135  H47   S    
N5    N31   A    
C35   C47   A    
C117  C125  A    
C61   H21   S    
C62   C102  A    
C106  C109  A    
C119  C127  A    
N23   Ni3   S    
C18   C26   A    
C76   C84   A    
C184  N48   S    
C76   N35   S    
C11   C19   A    
N42   H108  S    
C85   C109  A    
C132  H44   S    
C87   C111  A    
C61   C69   A    
N34   H92   S    
C142  C152  A    
C1    C145  A    
N29   Ni8   S    
C159  C174  S    
N46   H116  S    
C120  H32   S    
N15   Ni8   S    
C162  H58   S    
C163  C171  A    
N16   Ni7   S    
C172  C180  A    
N8    Ni3   S    
N36   H95   S    
C173  C181  A    
C94   C158  A    
C83   C99   A    
C9    C33   A    
C7    H7    S    
C74   C82   A    
C110  C117  A    
N41   H106  S    
C73   N34   S    
C135  C159  A    
C97   C125  A    
C177  N41   S    
N21   Ni4   S    
C99   C127  A    
N22   Ni3   S    
N11   N19   A    
N17   Ni2   S    
C26   C162  A    
C101  C121  A    
C53   C77   A    
N39   H101  S    
N1    N27   A    
C139  N27   A    
N4    Ni1   S    
N2    N28   A    
C136  H48   S    
C182  N46   S    
C162  C170  A    
C35   H67   S    
C118  H30   S    
C33   H65   S    
C7    C151  A    
C63   C103  A    
C37   H69   S    
C77   N38   S    
C138  H50   S    
C2    C146  A    
C140  C146  A    
C164  H60   S    
N5    Ni3   S    
C66   H9    S    
N20   Ni2   S    
N6    Ni4   S    
C142  H54   S    
C116  C124  A    
C137  C147  A    
C12   C180  A    
C57   C65   A    
C25   C42   A    
C112  C119  A    
C120  C128  A    
C28   C43   A    
C89   N9    A    
C17   C22   A    
C29   C46   A    
N8    N30   A    
C131  C155  A    
C19   C24   A    
C116  H28   S    
C155  C170  S    
C75   C83   A    
N7    Ni4   S    
C167  H63   S    
C84   C108  A    
N37   H97   S    
C133  H45   S    
N35   H93   S    
C6    C150  A    
C59   H19   S    
C98   C126  A    
C60   C68   A    
C42   H74   S    
C140  H52   S    
C102  C122  A    
C54   C78   A    
N6    N32   A    
N43   H109  S    
C119  H31   S    
N7    N29   A    
C79   N40   S    
C59   C99   A    
C74   N33   S    
C43   H75   S    
C94   N14   A    
C64   H24   S    
C144  H56   S    
C49   C65   A    
C51   C75   A    
C38   C42   A    
N26   Ni5   S    
N40   H104  S    
C2    N2    A    
C165  C173  A    
C156  C169  S    
C55   C79   A    
C49   C147  S    
C92   H36   S    
C58   C66   A    
C96   H40   S    
N19   Ni1   S    
C132  N20   A    
C133  N21   A    
C12   C36   A    
C19   C27   A    
C1    N1    A    
C52   C68   A    
C143  N31   A    
C96   N16   A    
C59   C67   A    
C144  N32   A    
C82   C106  A    
C129  N17   A    
C16   C24   A    
N10   Ni6   S    
C8    N8    A    
C60   H20   S    
C4    N4    A    
C105  C114  A    
C165  H61   S    
C30   C166  A    
N38   H100  S    
C138  C148  A    
C39   C43   A    
C47   H79   S    
C48   H80   S    
C125  H85   S    
C111  C120  A    
C63   H23   S    
C2    H2    S    
C91   C155  A    
C89   C153  A    
C6    H6    S    
C10   C34   A    
C93   C157  A    
C50   C66   A    
C9    C17   A    
C168  H64   S    
C70   H13   S    
C129  H41   S    
C85   C101  A    
C28   C164  A    
C53   C151  S    
C179  N43   S    
C139  C145  A    
N18   Ni1   S    
C141  H53   S    
C13   C37   A    
C63   C71   A    
C46   H78   S    
C114  H26   S    
C78   C86   A    
N44   H111  S    
C81   C97   A    
C15   C23   A    
C83   C107  A    
C64   C72   A    
C91   H35   S    
N48   H119  S    
C89   H33   S    
C114  C122  A    
N28   Ni6   S    
N45   H114  S    
N13   N21   A    
C130  N18   A    
C5    N5    A    
C93   H37   S    
C118  C126  A    
C181  N45   S    
C26   C41   A    
N9    N17   A    
