data_mof_unit_21201.cif
_audit_creation_date              2012-12-10T18:05:12-0500
_audit_creation_method            fapswitch 2.2
_symmetry_space_group_name_H-M    P1
_symmetry_Int_Tables_number       1
_space_group_crystal_system       triclinic
_cell_length_a                    9.577218
_cell_length_b                    10.785768
_cell_length_c                    17.113632
_cell_angle_alpha                 87.832845
_cell_angle_beta                  93.111159
_cell_angle_gamma                 90.752019
_cell_volume                      1763.82132261

loop_
_atom_site_label
_atom_site_type_symbol
_atom_type_description
_atom_site_fract_x
_atom_site_fract_y
_atom_site_fract_z
_atom_type_partial_charge
C1    C     C_R   0.499101 0.262672 0.497761 0.769620
C2    C     C_R   0.500899 0.737327 0.502240 0.769582
C3    C     C_R   0.419741 0.934189 0.555462 -0.001294
C4    C     C_R   0.580267 0.065811 0.444544 -0.001278
C5    C     C_R   0.502107 0.871247 0.504052 -0.143745
C6    C     C_R   0.497895 0.128752 0.495951 -0.143752
C7    C     C_R   0.076298 0.429975 0.555121 0.086979
C8    C     C_R   0.923703 0.570036 0.444884 0.086880
C9    C     C_R   0.927917 0.431233 0.554372 0.010800
C10   C     C_R   0.072084 0.568768 0.445628 0.010817
C11   C     C_R   0.516660 0.498342 0.650762 0.787858
C12   C     C_R   0.483342 0.501674 0.349239 0.787843
C13   C     C_R   0.525156 0.497823 0.736554 -0.047905
C14   C     C_R   0.474859 0.502250 0.263448 -0.047858
C15   C     C_R   0.402809 0.503922 0.777640 -0.208826
C16   C     C_R   0.597173 0.495673 0.222378 -0.208789
C17   C     C_R   0.410543 0.503730 0.858986 -0.129122
C18   C     C_R   0.589453 0.495925 0.141032 -0.129105
C19   C     C_R   0.541652 0.497414 0.900738 0.376552
C20   C     C_R   0.458394 0.502810 0.099261 0.376543
C21   C     C_R   0.663253 0.491272 0.859584 -0.174808
C22   C     C_R   0.336827 0.509421 0.140400 -0.174811
C23   C     C_R   0.655530 0.491487 0.778122 -0.190551
C24   C     C_R   0.344536 0.509134 0.221863 -0.190583
C25   C     C_R   0.417808 0.063345 0.549975 -0.131710
C26   C     C_R   0.582197 0.936654 0.450030 -0.131726
Cu1   Cu    Cu3+1 0.640660 0.500020 0.500000 0.943698
Cu2   Cu    Cu3+1 0.359340 0.499980 0.500000 0.943711
H1    H     H_    0.699002 0.489952 0.252988 0.183869
H2    H     H_    0.300939 0.509198 0.747048 0.184053
H3    H     H_    0.685983 0.490617 0.111276 0.163563
H4    H     H_    0.313982 0.508611 0.888755 0.163587
H5    H     H_    0.764499 0.486334 0.890919 0.153391
H6    H     H_    0.235621 0.514794 0.109050 0.153416
H7    H     H_    0.751607 0.486548 0.747840 0.177823
H8    H     H_    0.248490 0.514468 0.252133 0.177829
H9    H     H_    0.357637 0.113895 0.589877 0.172991
H10   H     H_    0.642371 0.886106 0.410128 0.172996
H11   H     H_    0.872471 0.375689 0.596917 0.176748
H12   H     H_    0.127533 0.624311 0.403086 0.176712
N1    N     N_2   0.556339 0.496997 0.983611 -0.254199
N2    N     N_2   0.443716 0.503269 0.016388 -0.254219
N3    N     N_R   0.852070 0.500030 0.499980 -0.228116
N4    N     N_R   0.147930 0.499970 0.500020 -0.228102
O1    O     O_R   0.618740 0.319660 0.500000 -0.580553
O2    O     O_R   0.381260 0.680340 0.500000 -0.580569
O3    O     O_R   0.381170 0.319630 0.500010 -0.597123
O4    O     O_R   0.618830 0.680370 0.499990 -0.597144
O5    O     O_R   0.631780 0.498870 0.613920 -0.577946
O6    O     O_R   0.368220 0.501130 0.386080 -0.577939
O7    O     O_R   0.394210 0.498840 0.613930 -0.616298
O8    O     O_R   0.605790 0.501160 0.386070 -0.616310
C27   C     C_2   0.341491 0.867594 0.617380 0.387671
H13   H     H_    0.359093 0.770010 0.631417 0.080544
O9    O     O_2   0.256984 0.921605 0.654404 -0.521502
C28   C     C_2   0.658529 0.132406 0.382632 0.387684
H14   H     H_    0.640888 0.229978 0.368575 0.080461
O10   O     O_2   0.743092 0.078409 0.345638 -0.521499
C29   C     C_2   0.148971 0.349703 0.616345 0.360173
H15   H     H_    0.253586 0.318181 0.610956 0.135761
O11   O     O_2   0.090212 0.315343 0.675091 -0.564484
C30   C     C_2   0.851034 0.650328 0.383669 0.360349
H16   H     H_    0.746393 0.681799 0.389043 0.135783
O12   O     O_2   0.909825 0.684769 0.324951 -0.564420

loop_
_geom_bond_atom_site_label_1
_geom_bond_atom_site_label_2
_ccdc_geom_bond_type
Cu1   O4    S    
C4    C26   A    
Cu2   O3    S    
C15   C17   A    
C30   H16   S    
C11   O5    A    
C14   C16   A    
C11   C13   S    
N1    N2    D    
C2    O2    A    
C20   N2    S    
C8    N3    A    
C9    H11   S    
C3    C5    A    
C1    O1    A    
Cu1   O1    S    
C21   C23   A    
C12   C14   S    
C9    N3    A    
C29   H15   S    
C7    N4    A    
C4    C28   S    
C3    C27   S    
Cu2   O2    S    
C24   H8    S    
C15   H2    S    
Cu1   O5    S    
C7    C29   S    
C12   O8    A    
C28   O10   D    
C23   H7    S    
C27   O9    D    
C13   C15   A    
Cu1   O8    S    
C22   H6    S    
Cu2   O7    S    
C22   C24   A    
C29   O11   D    
C6    C25   A    
C11   O7    A    
C10   N4    A    
C5    C26   A    
C2    C5    S    
C17   C19   A    
Cu1   N3    S    
C3    C25   A    
C21   H5    S    
C28   H14   S    
C13   C23   A    
C18   C20   A    
C16   C18   A    
C4    C6    A    
C14   C24   A    
Cu1   Cu2   S    
C7    C9    A    
C17   H4    S    
C26   H10   S    
C10   H12   S    
C30   O12   D    
C18   H3    S    
C1    C6    S    
C2    O4    A    
C16   H1    S    
C27   H13   S    
Cu2   O6    S    
Cu2   N4    S    
C8    C10   A    
C1    O3    A    
C19   N1    S    
C8    C30   S    
C20   C22   A    
C12   O6    A    
C19   C21   A    
C25   H9    S    
