data_mof_unit_18250.cif
_audit_creation_date              2013-03-05T15:50:05-0500
_audit_creation_method            fapswitch 2.2
_symmetry_space_group_name_H-M    P1
_symmetry_Int_Tables_number       1
_space_group_crystal_system       triclinic
_cell_length_a                    18.447545
_cell_length_b                    25.877729
_cell_length_c                    18.258592
_cell_angle_alpha                 90.18687
_cell_angle_beta                  90.000022
_cell_angle_gamma                 89.964729
_cell_volume                      8716.24904976

loop_
_atom_site_label
_atom_site_type_symbol
_atom_site_description
_atom_site_fract_x
_atom_site_fract_y
_atom_site_fract_z
_atom_type_partial_charge
Zn1   Zn    Zn3+2 0.249990 0.293780 0.913250 1.062644
Zn2   Zn    Zn3+2 0.249990 0.706220 0.086750 1.049376
Zn3   Zn    Zn3+2 0.249990 0.706220 0.913250 1.065203
Zn4   Zn    Zn3+2 0.249990 0.293780 0.086750 1.033343
Zn5   Zn    Zn3+2 0.749990 0.793780 0.413250 1.040735
Zn6   Zn    Zn3+2 0.749990 0.206220 0.586750 1.031477
Zn7   Zn    Zn3+2 0.749990 0.206220 0.413250 1.059164
Zn8   Zn    Zn3+2 0.749990 0.793780 0.586750 1.045189
Zn9   Zn    Zn3+2 0.336760 0.206240 0.000000 1.066503
Zn10  Zn    Zn3+2 0.336760 0.793760 0.000000 1.055450
Zn11  Zn    Zn3+2 0.836760 0.706240 0.500000 1.073310
Zn12  Zn    Zn3+2 0.836760 0.293760 0.500000 1.065193
Zn13  Zn    Zn3+2 0.163250 0.206230 0.000000 1.007904
Zn14  Zn    Zn3+2 0.163250 0.793770 0.000000 0.992978
Zn15  Zn    Zn3+2 0.663250 0.706230 0.500000 1.016847
Zn16  Zn    Zn3+2 0.663250 0.293770 0.500000 1.013459
O1    O     O_3   0.249990 0.250010 0.000000 -0.494741
O2    O     O_3   0.249990 0.749990 0.000000 -0.496338
O3    O     O_3   0.749990 0.750010 0.500000 -0.494139
O4    O     O_3   0.749990 0.249990 0.500000 -0.493888
O5    O     O_R   0.335430 0.280650 0.146160 -0.598356
O6    O     O_R   0.335430 0.719350 0.853840 -0.564652
O7    O     O_R   0.335430 0.719350 0.146160 -0.581184
O8    O     O_R   0.335430 0.280650 0.853840 -0.565005
O9    O     O_R   0.835430 0.780650 0.646160 -0.587664
O10   O     O_R   0.835430 0.219350 0.353840 -0.568357
O11   O     O_R   0.835430 0.219350 0.646160 -0.600133
O12   O     O_R   0.835430 0.780650 0.353840 -0.591992
O13   O     O_R   0.164550 0.280640 0.853840 -0.615824
O14   O     O_R   0.164550 0.719360 0.146160 -0.620448
O15   O     O_R   0.164550 0.719360 0.853840 -0.611766
O16   O     O_R   0.164550 0.280640 0.146160 -0.644075
O17   O     O_R   0.664550 0.780640 0.353840 -0.627039
O18   O     O_R   0.664550 0.219360 0.646160 -0.645604
O19   O     O_R   0.664550 0.219360 0.353840 -0.620265
O20   O     O_R   0.664550 0.780640 0.646160 -0.644393
O21   O     O_R   0.396160 0.219380 0.914560 -0.624506
O22   O     O_R   0.396160 0.780620 0.085440 -0.619033
O23   O     O_R   0.396160 0.780620 0.914560 -0.623594
O24   O     O_R   0.396160 0.219380 0.085440 -0.603447
O25   O     O_R   0.896160 0.719380 0.414560 -0.614730
O26   O     O_R   0.896160 0.280620 0.585440 -0.599201
O27   O     O_R   0.896160 0.280620 0.414560 -0.627030
O28   O     O_R   0.896160 0.719380 0.585440 -0.595878
O29   O     O_R   0.103840 0.219370 0.085450 -0.621165
O30   O     O_R   0.103840 0.780630 0.914550 -0.641273
O31   O     O_R   0.103840 0.780630 0.085450 -0.649547
O32   O     O_R   0.103840 0.219370 0.914550 -0.644076
O33   O     O_R   0.603840 0.719370 0.585450 -0.615906
O34   O     O_R   0.603840 0.280630 0.414550 -0.641273
O35   O     O_R   0.603840 0.280630 0.585450 -0.617764
O36   O     O_R   0.603840 0.719370 0.414550 -0.637520
O37   O     O_R   0.310730 0.133160 0.000000 -0.607057
O38   O     O_R   0.310730 0.866840 0.000000 -0.616723
O39   O     O_R   0.810730 0.633160 0.500000 -0.616916
O40   O     O_R   0.810730 0.366840 0.500000 -0.615036
O41   O     O_R   0.249970 0.366860 0.060720 -0.628363
O42   O     O_R   0.249970 0.633140 0.939280 -0.622896
O43   O     O_R   0.249970 0.633140 0.060720 -0.629730
O44   O     O_R   0.249970 0.366860 0.939280 -0.623261
O45   O     O_R   0.749970 0.866860 0.560720 -0.612290
O46   O     O_R   0.749970 0.133140 0.439280 -0.623727
O47   O     O_R   0.749970 0.133140 0.560720 -0.627517
O48   O     O_R   0.749970 0.866860 0.439280 -0.636370
O49   O     O_R   0.189290 0.133150 0.000000 -0.639665
O50   O     O_R   0.189290 0.866850 0.000000 -0.640764
O51   O     O_R   0.689290 0.633150 0.500000 -0.637971
O52   O     O_R   0.689290 0.366850 0.500000 -0.639740
C1    C     C_R   0.390480 0.250974 0.139418 0.947764
C2    C     C_R   0.389963 0.749130 0.859880 0.925535
C3    C     C_R   0.390659 0.748678 0.139125 0.937444
C4    C     C_R   0.389850 0.250732 0.859899 0.923430
C5    C     C_R   0.891563 0.752572 0.638268 0.945751
C6    C     C_R   0.889582 0.249525 0.359606 0.931015
C7    C     C_R   0.890131 0.249403 0.639642 0.945676
C8    C     C_R   0.889501 0.750067 0.359699 0.944647
C9    C     C_R   0.110105 0.250250 0.860262 0.800879
C10   C     C_R   0.110417 0.750255 0.140131 0.802928
C11   C     C_R   0.109782 0.749242 0.860673 0.796813
C12   C     C_R   0.110277 0.250527 0.139976 0.794214
C13   C     C_R   0.610318 0.750165 0.360088 0.795515
C14   C     C_R   0.610308 0.249622 0.639903 0.789440
C15   C     C_R   0.610402 0.249994 0.359944 0.803253
C16   C     C_R   0.610663 0.750172 0.640261 0.793300
C17   C     C_R   0.249791 0.109450 0.000088 0.813773
C18   C     C_R   0.250021 0.890561 0.000745 0.799684
C19   C     C_R   0.750142 0.609378 0.499724 0.823878
C20   C     C_R   0.749940 0.390520 0.500586 0.824212
C21   C     C_R   0.249694 0.391424 0.999966 0.821362
C22   C     C_R   0.249706 0.608585 0.999811 0.820811
C23   C     C_R   0.749471 0.891418 0.500156 0.826402
C24   C     C_R   0.749652 0.108578 0.499994 0.822168
C25   C     C_3   0.181644 0.470261 0.040032 -0.366933
C26   C     C_3   0.248492 0.529519 0.919745 -0.352083
C27   C     C_3   0.181591 0.530069 0.039809 -0.355042
C28   C     C_3   0.248427 0.470111 0.919863 -0.349964
C29   C     C_3   0.747232 0.970568 0.580082 -0.364756
C30   C     C_3   0.681675 0.029846 0.459443 -0.350658
C31   C     C_3   0.747854 0.029939 0.579948 -0.374093
C32   C     C_3   0.681820 0.970024 0.459221 -0.355163
H1    H     H_    0.180925 0.456261 0.097594 0.191457
H2    H     H_    0.296817 0.543533 0.889171 0.225750
H3    H     H_    0.180627 0.544548 0.097265 0.196908
H4    H     H_    0.296680 0.455840 0.889243 0.225510
H5    H     H_    0.794826 0.956431 0.611567 0.224442
H6    H     H_    0.680983 0.044074 0.401990 0.205875
H7    H     H_    0.796231 0.043930 0.610623 0.207807
H8    H     H_    0.681747 0.955761 0.401649 0.204549
H9    H     H_    0.131535 0.455742 0.012964 0.217618
H10   H     H_    0.199442 0.543667 0.890437 0.204374
H11   H     H_    0.131544 0.544359 0.012470 0.228880
H12   H     H_    0.199311 0.455891 0.890644 0.206204
H13   H     H_    0.697609 0.956711 0.608617 0.186567
H14   H     H_    0.631492 0.044223 0.486540 0.209404
H15   H     H_    0.698859 0.044474 0.609087 0.188692
H16   H     H_    0.631423 0.955591 0.485675 0.207670
H17   H     H_    0.239485 0.905780 0.138171 0.197836
H18   H     H_    0.210634 0.095221 0.132257 0.208181
H19   H     H_    0.682045 0.405129 0.621413 0.210119
H20   H     H_    0.682604 0.595752 0.620965 0.211668
H21   H     H_    0.320642 0.456106 0.095733 0.201651
H22   H     H_    0.367710 0.544119 0.009587 0.225937
H23   H     H_    0.320639 0.544380 0.095582 0.203433
H24   H     H_    0.367694 0.455767 0.009744 0.225342
H25   H     H_    0.867596 0.955829 0.491512 0.221399
H26   H     H_    0.820497 0.043476 0.404296 0.216700
H27   H     H_    0.867607 0.044233 0.490322 0.220787
H28   H     H_    0.821476 0.955295 0.405097 0.198834
C33   C     C_3   0.318322 0.470198 0.038255 -0.369542
C34   C     C_3   0.318321 0.529945 0.038145 -0.365959
C35   C     C_3   0.818464 0.969923 0.462410 -0.372779
C36   C     C_3   0.818291 0.029664 0.461901 -0.352194
C37   C     C_3   0.249509 0.449170 0.999596 0.112729
C38   C     C_3   0.249522 0.550854 0.999380 0.106875
C39   C     C_3   0.749255 0.949151 0.500494 0.115285
C40   C     C_3   0.749357 0.050834 0.500249 0.105810
H29   H     H_    0.114997 0.083684 0.740114 0.161224
H30   H     H_    0.086273 0.924016 0.241815 0.192932
H31   H     H_    0.134626 0.908960 0.730173 0.162778
H32   H     H_    0.197517 0.166943 0.362151 0.216844
H33   H     H_    0.625703 0.586867 0.231253 0.167203
H34   H     H_    0.693630 0.342923 0.855953 0.197356
H35   H     H_    0.616784 0.416027 0.239100 0.165135
H36   H     H_    0.694421 0.658315 0.856832 0.186084
C41   C     C_R   0.022522 0.339269 0.836708 -0.217254
C42   C     C_R   0.018225 0.662475 0.158900 -0.229378
C43   C     C_R   0.013982 0.664298 0.843229 -0.235848
C44   C     C_R   0.976313 0.302853 0.113312 -0.223104
C45   C     C_R   0.520427 0.838291 0.336000 -0.231249
C46   C     C_R   0.477771 0.195650 0.614323 -0.224547
C47   C     C_R   0.521764 0.161601 0.336628 -0.226531
C48   C     C_R   0.479132 0.805226 0.615470 -0.227371
C49   C     C_R   0.978948 0.382529 0.829843 0.448335
C50   C     C_R   0.967310 0.623043 0.157528 0.413058
C51   C     C_R   0.966226 0.623182 0.839660 0.418291
C52   C     C_R   0.912521 0.329238 0.098754 0.419374
C53   C     C_R   0.472786 0.879556 0.331379 0.445570
C54   C     C_R   0.414129 0.169103 0.599720 0.417315
C55   C     C_R   0.476597 0.119124 0.330762 0.449218
C56   C     C_R   0.415913 0.832406 0.601347 0.419081
C57   C     C_R   0.409838 0.874790 0.290632 -0.127792
C58   C     C_R   0.359702 0.167499 0.651752 -0.188881
C59   C     C_R   0.416354 0.121215 0.285839 -0.137150
C60   C     C_R   0.361366 0.833890 0.653234 -0.182908
C61   C     C_R   0.919520 0.381207 0.783759 -0.153278
C62   C     C_R   0.903656 0.628196 0.197076 -0.213800
C63   C     C_R   0.908787 0.624556 0.791137 -0.180514
C64   C     C_R   0.858631 0.331786 0.151398 -0.185857
C65   C     C_R   0.395697 0.829741 0.250845 0.187929
C66   C     C_R   0.367005 0.193146 0.718783 0.184554
C67   C     C_R   0.401891 0.165167 0.244135 0.179259
C68   C     C_R   0.368263 0.807539 0.719553 0.184231
C69   C     C_R   0.903994 0.337255 0.741973 0.180116
C70   C     C_R   0.892525 0.670547 0.243342 0.172137
C71   C     C_R   0.898261 0.666824 0.744881 0.182875
C72   C     C_R   0.866595 0.307172 0.218949 0.173038
C73   C     C_R   0.449386 0.789765 0.246199 0.000060
C74   C     C_R   0.431774 0.221962 0.735104 0.025432
C75   C     C_R   0.451806 0.207872 0.243585 0.006184
C76   C     C_R   0.432511 0.778251 0.735505 0.027615
C77   C     C_R   0.952327 0.293355 0.742917 0.008954
C78   C     C_R   0.947647 0.709326 0.251185 0.020792
C79   C     C_R   0.949079 0.709310 0.744880 0.016643
C80   C     C_R   0.931241 0.278147 0.234872 0.019429
C81   C     C_R   0.010378 0.294308 0.793938 -0.014665
C82   C     C_R   0.007963 0.706955 0.203157 -0.009476
C83   C     C_R   0.006387 0.707710 0.796814 -0.016260
C84   C     C_R   0.987061 0.277410 0.180899 -0.014392
C85   C     C_R   0.509254 0.792717 0.294449 -0.012255
C86   C     C_R   0.487854 0.222183 0.681434 -0.014592
C87   C     C_R   0.510281 0.206452 0.293875 -0.014014
C88   C     C_R   0.488688 0.778118 0.682040 -0.013744
C89   C     C_R   0.445329 0.747313 0.196434 -0.128338
C90   C     C_R   0.442658 0.251697 0.800455 -0.123541
C91   C     C_R   0.445469 0.251591 0.196265 -0.135862
C92   C     C_R   0.442844 0.748114 0.800381 -0.123575
C93   C     C_R   0.945117 0.248993 0.696375 -0.138098
C94   C     C_R   0.944001 0.751026 0.302335 -0.129942
C95   C     C_R   0.944390 0.753302 0.697477 -0.138133
C96   C     C_R   0.942484 0.248873 0.300311 -0.121323
C97   C     C_R   0.494062 0.704280 0.201922 0.001950
C98   C     C_R   0.505590 0.282801 0.809166 -0.015239
C99   C     C_R   0.492288 0.295528 0.203610 -0.001267
C100  C     C_R   0.505894 0.717154 0.809094 -0.015247
C101  C     C_R   0.991057 0.204540 0.704369 -0.003740
C102  C     C_R   0.989389 0.795373 0.294624 -0.000815
C103  C     C_R   0.991404 0.797383 0.706822 -0.013647
C104  C     C_R   0.006675 0.219382 0.310058 -0.009539
C105  C     C_R   0.043792 0.205076 0.761013 0.053515
C106  C     C_R   0.040038 0.796185 0.236251 0.044275
C107  C     C_R   0.047740 0.793995 0.759481 0.051227
C108  C     C_R   0.065929 0.228413 0.263487 0.031415
C109  C     C_R   0.547207 0.705236 0.258291 0.046597
C110  C     C_R   0.564965 0.274445 0.762217 0.043924
C111  C     C_R   0.544801 0.295120 0.260455 0.049971
C112  C     C_R   0.565408 0.725703 0.762527 0.044741
C113  C     C_R   0.054069 0.250053 0.803670 -0.079668
C114  C     C_R   0.053557 0.750483 0.195842 -0.081712
C115  C     C_R   0.054352 0.749810 0.803665 -0.076731
C116  C     C_R   0.053890 0.252887 0.195996 -0.078966
C117  C     C_R   0.555187 0.749616 0.302712 -0.075819
C118  C     C_R   0.553966 0.247821 0.695937 -0.074620
C119  C     C_R   0.554658 0.250310 0.303212 -0.079407
C120  C     C_R   0.554515 0.752203 0.696366 -0.075896
C121  C     C_R   0.492890 0.659718 0.154430 0.237462
C122  C     C_R   0.511726 0.323248 0.861910 0.269620
C123  C     C_R   0.490052 0.340399 0.157058 0.238898
C124  C     C_R   0.512197 0.676894 0.861731 0.269726
C125  C     C_R   0.987959 0.159049 0.658511 0.242746
C126  C     C_R   0.985306 0.840291 0.340806 0.236228
C127  C     C_R   0.986485 0.845340 0.666744 0.273245
C128  C     C_R   0.014392 0.180137 0.363898 0.250721
C129  C     C_R   0.539876 0.618216 0.166375 -0.134221
C130  C     C_R   0.579885 0.342772 0.880605 -0.072173
C131  C     C_R   0.534188 0.383092 0.171417 -0.131986
C132  C     C_R   0.580486 0.657741 0.880689 -0.070797
C133  C     C_R   0.031885 0.116283 0.673003 -0.127792
C134  C     C_R   0.018827 0.886236 0.319993 -0.101452
C135  C     C_R   0.039822 0.883397 0.673587 -0.112467
C136  C     C_R   0.083355 0.163025 0.384154 -0.094335
C137  C     C_R   0.080861 0.116974 0.729984 -0.182237
C138  C     C_R   0.061918 0.887934 0.258277 -0.113372
C139  C     C_R   0.095084 0.878376 0.723560 -0.181160
C140  C     C_R   0.144090 0.180334 0.346626 -0.090350
C141  C     C_R   0.589455 0.619254 0.222930 -0.166414
C142  C     C_R   0.641052 0.327058 0.842205 -0.107158
C143  C     C_R   0.582573 0.382771 0.228977 -0.174695
C144  C     C_R   0.641690 0.673772 0.842780 -0.115162
C145  C     C_R   0.087639 0.160792 0.772847 -0.110544
C146  C     C_R   0.076568 0.842937 0.219743 -0.115251
C147  C     C_R   0.097642 0.835306 0.767694 -0.108056
C148  C     C_R   0.135302 0.210506 0.284322 -0.142367
C149  C     C_R   0.593780 0.662208 0.267935 -0.108382
C150  C     C_R   0.633356 0.295244 0.781154 -0.132626
C151  C     C_R   0.588753 0.339309 0.272349 -0.109879
C152  C     C_R   0.633935 0.705456 0.781876 -0.130508
H37   H     H_    0.065731 0.341685 0.876503 0.164397
H38   H     H_    0.064463 0.658277 0.123036 0.166350
H39   H     H_    0.056661 0.661763 0.883660 0.160497
H40   H     H_    0.017537 0.302998 0.071141 0.156468
H41   H     H_    0.566024 0.842749 0.372609 0.168001
H42   H     H_    0.519211 0.195048 0.572372 0.155252
H43   H     H_    0.565482 0.158738 0.375772 0.165255
H44   H     H_    0.520752 0.805963 0.573707 0.154574
H45   H     H_    0.370360 0.905628 0.292293 0.243257
H46   H     H_    0.310503 0.146318 0.639472 0.201078
H47   H     H_    0.379088 0.088863 0.285100 0.229180
H48   H     H_    0.312460 0.855556 0.641444 0.202655
H49   H     H_    0.883801 0.414429 0.781870 0.211764
H50   H     H_    0.861418 0.599552 0.190182 0.196430
H51   H     H_    0.870584 0.592763 0.790819 0.212282
H52   H     H_    0.809571 0.353196 0.139426 0.204869
H53   H     H_    0.028965 0.082047 0.638808 0.176010
H54   H     H_    0.012918 0.920841 0.353011 0.187703
H55   H     H_    0.036509 0.918911 0.642452 0.177744
H56   H     H_    0.089579 0.133836 0.426050 0.197296
H57   H     H_    0.538490 0.584617 0.130841 0.175309
H58   H     H_    0.584872 0.372942 0.921528 0.191387
H59   H     H_    0.531872 0.416934 0.136707 0.174632
H60   H     H_    0.585616 0.627717 0.921539 0.189061
H61   H     H_    0.128488 0.159187 0.815080 0.172245
H62   H     H_    0.115666 0.846123 0.176041 0.171271
H63   H     H_    0.139702 0.835138 0.808566 0.174958
H64   H     H_    0.183083 0.219964 0.253103 0.191783
H65   H     H_    0.634831 0.661148 0.310065 0.172147
H66   H     H_    0.681230 0.287128 0.749094 0.181370
H67   H     H_    0.629097 0.341070 0.315081 0.175695
H68   H     H_    0.681856 0.714141 0.750381 0.182076
C153  C     C_R   0.266764 0.053201 0.866101 -0.152820
C154  C     C_R   0.265479 0.945801 0.866374 -0.148618
C155  C     C_R   0.823465 0.552395 0.385956 -0.143844
C156  C     C_R   0.818122 0.445303 0.383912 -0.143965
C157  C     C_R   0.274317 0.026070 0.800492 -0.120909
C158  C     C_R   0.273549 0.972369 0.800613 -0.126672
C159  C     C_R   0.858291 0.524884 0.330513 -0.115145
C160  C     C_R   0.854862 0.471450 0.328933 -0.106587
C161  C     C_R   0.258070 0.972601 0.933594 0.065632
C162  C     C_R   0.258370 0.026922 0.933391 0.061252
C163  C     C_R   0.785130 0.472289 0.442976 0.058946
C164  C     C_R   0.786681 0.526580 0.443448 0.059132
C165  C     C_R   0.250017 0.946282 0.000697 -0.098423
C166  C     C_R   0.248472 0.053750 0.999980 -0.103242
C167  C     C_R   0.749837 0.446143 0.500592 -0.105296
C168  C     C_R   0.750713 0.553609 0.500436 -0.106635
C169  C     C_R   0.240298 0.973201 0.067379 0.018611
C170  C     C_R   0.236207 0.027398 0.066378 0.010478
C171  C     C_R   0.715378 0.473008 0.558502 0.011972
C172  C     C_R   0.715566 0.527328 0.558305 0.014111
C173  C     C_R   0.235104 0.947265 0.135310 -0.305796
C174  C     C_R   0.219987 0.054059 0.132064 -0.257994
C175  C     C_R   0.681842 0.446776 0.617600 -0.252580
C176  C     C_R   0.682085 0.554096 0.617244 -0.252091
C177  C     C_R   0.225173 0.974657 0.200651 0.355704
C178  C     C_R   0.215057 0.028037 0.198615 0.410097
C179  C     C_R   0.647289 0.473759 0.673806 0.396149
C180  C     C_R   0.647358 0.527636 0.673593 0.393505
H69   H     H_    0.266734 0.094814 0.863661 0.162957
H70   H     H_    0.264625 0.904208 0.864201 0.164703
H71   H     H_    0.826285 0.593883 0.382889 0.180321
H72   H     H_    0.816156 0.403813 0.379190 0.177391
H73   H     H_    0.280362 0.046800 0.749451 0.167501
H74   H     H_    0.279041 0.951203 0.749668 0.165636
H75   H     H_    0.887888 0.544994 0.288419 0.161131
H76   H     H_    0.880720 0.450133 0.284978 0.169642
Br1   Br    Br    0.433951 0.649129 0.069395 -0.551624
Br2   Br    Br    0.432019 0.367759 0.886311 -0.441405
Br3   Br    Br    0.435195 0.349312 0.068917 -0.549643
Br4   Br    Br    0.432674 0.632397 0.886110 -0.440186
Br5   Br    Br    0.931988 0.148825 0.571286 -0.537722
Br6   Br    Br    0.944455 0.843654 0.437036 -0.509607
Br7   Br    Br    0.906610 0.871818 0.612373 -0.523054
Br8   Br    Br    0.936625 0.134254 0.388239 -0.488669
Cl1   Cl    Cl    0.196020 0.063130 0.278925 -0.537044
Cl2   Cl    Cl    0.226306 0.941774 0.284831 -0.518983
Cl3   Cl    Cl    0.604404 0.563088 0.743494 -0.516601
Cl4   Cl    Cl    0.604381 0.438948 0.744046 -0.514431
Cl5   Cl    Cl    0.997298 0.437888 0.882309 -0.492957
Cl6   Cl    Cl    0.980807 0.568724 0.101328 -0.552501
Cl7   Cl    Cl    0.976694 0.570654 0.899135 -0.480550
Cl8   Cl    Cl    0.900304 0.359905 0.014088 -0.550296
Cl9   Cl    Cl    0.489638 0.935926 0.381790 -0.480093
Cl10  Cl    Cl    0.402142 0.137759 0.515325 -0.542336
Cl11  Cl    Cl    0.493570 0.064212 0.383818 -0.488252
Cl12  Cl    Cl    0.404719 0.864849 0.517918 -0.517940
Br9   Br    Br    0.296228 0.823006 0.220167 -0.495564
Br10  Br    Br    0.282279 0.185751 0.779107 -0.605418
Br11  Br    Br    0.307156 0.163682 0.200698 -0.562409
Br12  Br    Br    0.284064 0.814723 0.779921 -0.609910
Br13  Br    Br    0.810625 0.342054 0.694807 -0.571889
Br14  Br    Br    0.794638 0.675227 0.279636 -0.603930
Br15  Br    Br    0.807556 0.661739 0.692791 -0.573867
Br16  Br    Br    0.784056 0.317568 0.281747 -0.610274

loop_
_geom_bond_atom_site_label_1
_geom_bond_atom_site_label_2
_geom_bond_distance
_ccdc_geom_bond_type
C94   C102  1.428328 A    
C146  H62   1.078992 S    
C109  C149  1.417419 A    
C99   C123  1.441813 A    
C75   C91   1.430497 A    
C97   C121  1.440706 A    
O26   C7    1.284406 A    
C170  C174  1.413605 A    
C73   C89   1.425364 A    
C66   C74   1.439490 A    
C128  Br8   1.915977 S    
C99   C111  1.419818 A    
C4    C90   1.458717 S    
O30   C11   1.278349 A    
C22   C38   1.493938 S    
C30   H14   1.112928 S    
C91   C99   1.434204 A    
C136  C140  1.388556 A    
C89   C97   1.434522 A    
C162  C166  1.409931 A    
C71   Br15  1.929045 S    
Zn12  O26   1.937266 S    
C110  C118  1.405386 A    
C158  H74   1.082639 S    
C51   C63   1.381716 A    
H34   C142  1.082668 S    
C92   C100  1.421155 A    
C43   C51   1.383169 A    
C76   C92   1.433022 A    
C32   C39   1.552099 S    
H29   C137  1.083171 S    
C96   C104  1.419907 A    
C34   C38   1.551196 S    
C154  C161  1.414343 A    
C44   H40   1.082236 S    
O11   C7    1.280163 A    
C45   H41   1.080379 S    
O34   C15   1.277491 A    
C150  H66   1.079689 S    
C62   C70   1.396631 A    
C41   H37   1.080272 S    
C137  C145  1.381395 A    
C98   C122  1.424560 A    
Zn1   O44   1.948447 S    
C25   H1    1.112884 S    
C173  C177  1.397745 A    
Zn2   O43   1.948448 S    
C108  C116  1.404942 A    
C141  C149  1.382508 A    
C153  C157  1.393480 A    
Zn5   O48   1.948447 S    
H32   C140  1.082598 S    
Zn6   O47   1.948448 S    
C155  C159  1.392516 A    
C112  C120  1.405409 A    
Zn7   O46   1.951454 S    
O16   C12   1.273894 A    
C60   H48   1.083887 S    
C11   C115  1.459222 S    
C42   C50   1.387462 A    
C165  C169  1.412125 A    
Zn16  O4    1.960034 S    
Zn12  O4    1.961478 S    
Zn1   O13   1.942888 S    
C98   C110  1.407050 A    
C26   C28   1.537359 S    
Zn4   O16   1.944127 S    
C61   H49   1.083508 S    
C104  C128  1.422793 A    
C9    C113  1.461602 S    
C33   C37   1.550521 S    
C6    C96   1.457617 S    
C28   H4    1.113362 S    
C55   Cl11  1.750465 S    
C125  C133  1.397203 A    
C87   C119  1.409677 A    
C31   H7    1.113686 S    
C71   C79   1.445310 A    
C174  C178  1.394162 A    
C72   C80   1.439160 A    
C159  H75   1.078233 S    
C30   H6    1.112954 S    
C14   C118  1.459300 S    
C44   C84   1.414505 A    
C166  C170  1.411235 A    
C45   C85   1.415424 A    
C70   Br14  1.927126 S    
Zn10  O22   1.937266 S    
C131  H59   1.083494 S    
C105  C113  1.411231 A    
C48   C88   1.416325 A    
O25   C8    1.286134 A    
Zn13  O29   1.935732 S    
C129  C141  1.379637 A    
C69   Br13  1.929841 S    
Zn10  O2    1.961478 S    
C31   C40   1.554317 S    
O29   C12   1.284605 A    
Zn15  O33   1.935732 S    
C176  C180  1.393877 A    
C75   C87   1.417144 A    
C26   H2    1.113380 S    
C41   C81   1.417083 A    
C156  C163  1.419749 A    
C135  C139  1.374516 A    
C72   Br16  1.924323 S    
O48   C23   1.278585 A    
C130  C142  1.388433 A    
C130  H58   1.082866 S    
C175  C179  1.393484 A    
C132  C144  1.388687 A    
C101  C125  1.443549 A    
Zn16  O35   1.937756 S    
C154  H70   1.077039 S    
C77   C93   1.432318 A    
C70   C78   1.435928 A    
C82   C114  1.412867 A    
Zn7   O10   1.944083 S    
O33   C16   1.283614 A    
C25   C37   1.551413 S    
C86   C118  1.413360 A    
Zn8   O20   1.944127 S    
O40   C20   1.277627 A    
C52   C64   1.384222 A    
C1    C91   1.451380 S    
C102  C106  1.417583 A    
H35   C143  1.082941 S    
C80   C96   1.431852 A    
Zn5   O17   1.942888 S    
H33   C141  1.082929 S    
C52   Cl8   1.754466 S    
H31   C139  1.083129 S    
C57   C65   1.396286 A    
C154  C158  1.393583 A    
C145  H61   1.079079 S    
C25   C27   1.547716 S    
C103  C107  1.418669 A    
C67   C75   1.438942 A    
C65   C73   1.434033 A    
C27   H3    1.112947 S    
H17   C173  1.077942 S    
C32   H8    1.112968 S    
Zn8   O3    1.944241 S    
C21   C37   1.494385 S    
C56   Cl12  1.753860 S    
C121  Br1   1.914549 S    
C156  C160  1.389198 A    
O38   C18   1.276857 A    
O5    C1    1.278535 A    
C47   C55   1.383613 A    
O32   C9    1.280511 A    
C157  C158  1.389734 A    
H25   C35   1.112527 S    
H26   C36   1.112724 S    
C36   C40   1.550521 S    
Zn15  O51   1.950914 S    
C111  C151  1.418351 A    
Zn11  O28   1.935716 S    
C147  H63   1.076576 S    
C155  C164  1.419090 A    
C169  C170  1.404650 A    
H23   C34   1.112942 S    
C42   H38   1.080555 S    
C29   C39   1.554017 S    
H28   C35   1.113011 S    
O8    C4    1.272439 A    
C63   C71   1.397553 A    
C33   C34   1.546127 S    
C64   C72   1.397706 A    
C49   C61   1.382348 A    
C132  H60   1.082880 S    
C177  Cl2   1.759372 S    
C133  H53   1.083548 S    
C66   Br10  1.922104 S    
O50   C18   1.277741 A    
O37   C17   1.281044 A    
C123  C131  1.396949 A    
C107  C115  1.406739 A    
C100  C112  1.406692 A    
Zn1   O1    1.950252 S    
C122  C130  1.397284 A    
C133  C137  1.378018 A    
Zn2   O14   1.942549 S    
C29   H5    1.111829 S    
C125  Br5   1.915757 S    
C68   C76   1.436775 A    
C163  C167  1.411927 A    
C169  C173  1.415478 A    
O9    C5    1.272554 A    
C43   H39   1.081388 S    
O36   C13   1.281973 A    
C60   C68   1.397408 A    
C168  C172  1.415830 A    
O13   C9    1.281632 A    
C13   C117  1.460108 S    
Zn1   O8    1.942507 S    
C2    C92   1.460250 S    
Zn2   O7    1.942845 S    
C161  C165  1.411598 A    
Zn3   O6    1.944083 S    
O18   C14   1.275620 A    
O31   C10   1.278433 A    
C106  C146  1.418480 A    
C172  C176  1.419164 A    
C25   H9    1.113165 S    
C180  Cl3   1.757823 S    
C110  C150  1.414427 A    
C93   C101  1.436217 A    
C32   H16   1.112991 S    
C51   Cl7   1.753159 S    
Zn14  O30   1.935970 S    
Zn15  O3    1.961173 S    
C74   C90   1.431921 A    
Zn11  O3    1.960339 S    
O41   C21   1.280300 A    
C56   C60   1.382486 A    
Zn16  O34   1.935970 S    
C135  H55   1.083889 S    
C31   H15   1.113434 S    
C74   C86   1.424992 A    
C3    C89   1.453794 S    
Zn2   O2    1.950251 S    
C90   C98   1.421699 A    
C151  H67   1.079137 S    
C152  H68   1.078806 S    
C78   C82   1.417885 A    
C109  C117  1.411585 A    
C157  H73   1.082629 S    
C15   C119  1.459658 S    
C108  C148  1.413383 A    
C59   C67   1.396386 A    
C47   H43   1.080276 S    
C48   H44   1.082333 S    
C7    C93   1.449869 S    
C17   C166  1.441610 S    
C69   C77   1.443852 A    
C179  C180  1.394244 A    
C112  C152  1.413438 A    
H19   C175  1.080209 S    
Zn8   O9    1.943743 S    
H20   C176  1.079921 S    
C24   C40   1.494319 S    
C84   C116  1.413779 A    
C127  Br7   1.905104 S    
C171  C172  1.405696 A    
C138  C146  1.384975 A    
C149  H65   1.079864 S    
O7    C3    1.277552 A    
C88   C120  1.411699 A    
C95   C103  1.443076 A    
C16   C120  1.457600 S    
C123  Br3   1.915564 S    
C159  C160  1.384448 A    
O19   C15   1.279488 A    
C83   C115  1.409188 A    
C142  C150  1.390921 A    
C43   C83   1.416295 A    
C58   H46   1.083629 S    
Zn9   O24   1.935716 S    
Zn6   O18   1.942549 S    
Zn10  O23   1.935481 S    
C163  C164  1.405217 A    
C79   C83   1.420812 A    
C54   Cl10  1.753103 S    
C58   C66   1.396902 A    
C50   Cl6   1.755279 S    
Zn15  O36   1.937520 S    
O15   C11   1.277770 A    
O42   C22   1.276665 A    
C97   C109  1.421599 A    
C28   C37   1.555179 S    
C46   H42   1.082249 S    
Zn4   O1    1.944241 S    
C124  Br4   1.918733 S    
C30   C32   1.548053 S    
H18   C174  1.078951 S    
Zn9   O37   1.951445 S    
C35   C36   1.546024 S    
O12   C8    1.277630 A    
C53   C57   1.384484 A    
Zn11  O39   1.951445 S    
C46   C54   1.386061 A    
C59   H47   1.083656 S    
C42   C82   1.416830 A    
H21   C33   1.112952 S    
C179  Cl4   1.758179 S    
Zn5   O3    1.950252 S    
Zn13  O1    1.961173 S    
Zn6   O4    1.950251 S    
C121  C129  1.397393 A    
C139  C147  1.378274 A    
C148  H64   1.078396 S    
C8    C94   1.452105 S    
C10   C114  1.461142 S    
C177  C178  1.394411 A    
C134  H54   1.083317 S    
C26   H10   1.113554 S    
H24   C33   1.112804 S    
C171  C175  1.418877 A    
C27   C38   1.551776 S    
O28   C5    1.292218 A    
C122  Br2   1.918832 S    
Zn3   O42   1.951454 S    
C23   C39   1.494002 S    
C153  H69   1.077916 S    
Zn7   O4    1.944242 S    
O21   C4    1.293453 A    
C50   C62   1.384641 A    
C155  H71   1.076529 S    
C44   C52   1.386322 A    
C156  H72   1.077472 S    
C45   C53   1.385358 A    
C164  C168  1.416631 A    
C105  C145  1.419384 A    
C143  C151  1.382285 A    
C48   C56   1.386170 A    
C102  C126  1.435724 A    
C161  C162  1.405733 A    
Zn14  O2    1.960034 S    
C78   C94   1.426379 A    
Zn13  O49   1.950914 S    
O44   C21   1.275631 A    
C28   H12   1.113610 S    
C81   C113  1.411723 A    
C153  C162  1.414766 A    
C63   H51   1.083640 S    
Zn12  O27   1.935481 S    
C35   C39   1.551062 S    
C64   H52   1.083508 S    
C85   C117  1.408800 A    
C46   C86   1.414997 A    
C61   C69   1.397334 A    
C30   C40   1.551527 S    
Zn3   O2    1.944242 S    
C127  C135  1.397862 A    
H27   C36   1.112759 S    
C178  Cl1   1.757594 S    
C26   C38   1.553738 S    
C53   Cl9   1.750293 S    
O46   C24   1.279660 A    
O47   C24   1.276248 A    
Zn16  O52   1.951487 S    
C100  C124  1.424447 A    
H30   C138  1.080015 S    
C104  C108  1.405042 A    
Zn8   O45   1.951454 S    
C41   C49   1.383786 A    
O27   C6    1.289907 A    
C47   C87   1.416647 A    
O39   C19   1.276259 A    
C19   C168  1.443313 S    
C62   H50   1.082835 S    
C20   C167  1.439379 S    
C131  C143  1.378897 A    
C29   C31   1.536441 S    
C73   C85   1.414698 A    
O24   C1    1.282726 A    
C49   Cl5   1.753889 S    
C76   C88   1.423694 A    
C57   H45   1.080396 S    
C77   C81   1.419556 A    
C167  C171  1.414252 A    
C79   C95   1.434874 A    
C80   C84   1.425392 A    
O43   C22   1.279058 A    
Zn4   O41   1.951454 S    
Zn3   O15   1.943787 S    
Zn5   O12   1.942507 S    
C65   Br9   1.926390 S    
Zn6   O11   1.942845 S    
C68   Br12  1.913233 S    
C101  C105  1.419911 A    
C18   C165  1.441918 S    
Zn9   O21   1.937505 S    
Zn14  O50   1.951487 S    
O35   C14   1.285187 A    
Zn12  O40   1.950872 S    
Zn9   O1    1.960339 S    
H36   C144  1.082710 S    
O52   C20   1.275909 A    
C55   C59   1.382385 A    
C126  C134  1.394360 A    
C29   H13   1.113390 S    
O22   C3    1.288300 A    
C140  C148  1.391276 A    
Zn7   O19   1.943787 S    
C67   Br11  1.919522 S    
C111  C119  1.411659 A    
C12   C116  1.459948 S    
Zn13  O32   1.937520 S    
C144  C152  1.391078 A    
O49   C17   1.273170 A    
Zn14  O31   1.937756 S    
C129  H57   1.083473 S    
C134  C138  1.379858 A    
O51   C19   1.279748 A    
C106  C114  1.413935 A    
C136  H56   1.082845 S    
C27   H11   1.113147 S    
Zn4   O5    1.943743 S    
C103  C127  1.445565 A    
O20   C16   1.273517 A    
C5    C95   1.455573 S    
O10   C6    1.272475 A    
O23   C2    1.291776 A    
O6    C2    1.272192 A    
Zn11  O25   1.937505 S    
C126  Br6   1.913528 S    
Zn10  O38   1.950872 S    
C124  C132  1.397417 A    
C54   C58   1.383009 A    
O14   C10   1.283795 A    
C160  H76   1.082916 S    
C128  C136  1.397040 A    
C107  C147  1.418764 A    
O17   C13   1.279609 A    
H22   C34   1.112746 S    
O45   C23   1.277247 A    
