data_mof_unit_20824.cif
_audit_creation_date              2012-12-10T19:09:03-0500
_audit_creation_method            fapswitch 2.2
_symmetry_space_group_name_H-M    P1
_symmetry_Int_Tables_number       1
_space_group_crystal_system       triclinic
_cell_length_a                    17.665477
_cell_length_b                    10.82235
_cell_length_c                    9.621213
_cell_angle_alpha                 89.971665
_cell_angle_beta                  91.343518
_cell_angle_gamma                 91.31345
_cell_volume                      1838.4136709

loop_
_atom_site_label
_atom_site_type_symbol
_atom_type_description
_atom_site_fract_x
_atom_site_fract_y
_atom_site_fract_z
_atom_type_partial_charge
C1    C     C_R   0.500108 0.262665 0.499978 0.775173
C2    C     C_R   0.884703 0.509246 0.500598 0.033640
C3    C     C_1   0.965725 0.521374 0.502517 -0.070020
C4    C     C_1   0.033607 0.526205 0.504484 -0.078460
C5    C     C_R   0.154513 0.480271 0.626365 0.114971
C6    C     C_R   0.233573 0.470151 0.619015 -0.195832
C7    C     C_R   0.272493 0.509410 0.500427 -0.057323
C8    C     C_R   0.232001 0.561613 0.389067 -0.218857
C9    C     C_R   0.153469 0.566957 0.391902 -0.179374
C10   C     C_R   0.114704 0.525447 0.508611 0.103182
C11   C     C_R   0.521395 0.064594 0.620236 0.133739
C12   C     C_R   0.355622 0.502413 0.499191 0.778134
C13   C     C_R   0.503788 0.129538 0.498806 -0.099839
C14   C     C_R   0.493024 0.064204 0.373583 -0.252533
C15   C     C_R   0.491908 0.935802 0.374010 -0.159076
C16   C     C_R   0.503020 0.871033 0.499088 -0.088721
C17   C     C_R   0.521263 0.937174 0.620400 0.116356
C18   C     C_3   0.486174 0.930136 0.760186 -0.474034
C19   C     C_3   0.486424 0.070336 0.759832 -0.459626
C20   C     C_R   0.565555 0.519572 0.075555 0.144214
C21   C     C_R   0.436939 0.460039 0.066569 0.158009
C22   C     C_R   0.438794 0.461160 0.919176 -0.110581
C23   C     C_R   0.499742 0.737423 0.499957 0.815412
C24   C     C_R   0.565596 0.517874 0.929484 0.241623
C25   C     C_3   0.621624 0.622139 0.921358 -0.566452
C26   C     C_3   0.621573 0.625957 0.080148 -0.224096
C27   C     C_R   0.643928 0.496795 0.501221 0.797113
C28   C     C_R   0.844266 0.595847 0.573883 -0.149855
C29   C     C_R   0.765896 0.588667 0.574299 -0.215568
C30   C     C_R   0.726631 0.493544 0.503325 -0.072545
C31   C     C_R   0.766498 0.400390 0.433039 0.063801
C32   C     C_R   0.846975 0.411561 0.427719 0.016969
Cu1   Cu    Cu3+1 0.500000 0.499980 0.640670 0.934915
Cu2   Cu    Cu3+1 0.500000 0.500020 0.359330 0.939135
H1    H     H_    0.873534 0.670458 0.629607 0.146937
H2    H     H_    0.478979 0.887863 0.277520 0.159931
H3    H     H_    0.428287 0.887443 0.756492 0.202392
H4    H     H_    0.525151 0.891625 0.840561 0.188883
H5    H     H_    0.428669 0.109224 0.755829 0.197155
H6    H     H_    0.525696 0.112231 0.839540 0.200603
H7    H     H_    0.390254 0.430650 0.857007 0.143299
H8    H     H_    0.676386 0.591753 0.879975 0.203353
H9    H     H_    0.597824 0.704224 0.868031 0.197784
H10   H     H_    0.676805 0.600183 0.128681 0.187333
H11   H     H_    0.735483 0.658999 0.628802 0.144706
H12   H     H_    0.265534 0.431530 0.705040 0.132575
H13   H     H_    0.260699 0.601305 0.301328 0.136657
H14   H     H_    0.122850 0.604444 0.303114 0.145960
H15   H     H_    0.482519 0.111540 0.276216 0.162920
N1    N     N_R   0.500470 0.500930 0.147930 -0.202689
N2    N     N_R   0.500480 0.500890 0.852020 -0.190941
O1    O     O_R   0.500000 0.319640 0.618810 -0.571957
O2    O     O_R   0.500010 0.319680 0.381230 -0.602928
O3    O     O_R   0.391250 0.499990 0.618840 -0.592149
O4    O     O_R   0.391260 0.500020 0.381250 -0.592437
O5    O     O_R   0.499990 0.680320 0.618770 -0.578601
O6    O     O_R   0.500000 0.680360 0.381190 -0.571995
O7    O     O_R   0.608740 0.499980 0.618750 -0.572409
O8    O     O_R   0.608750 0.500010 0.381160 -0.574107
C33   C     C_3   0.359773 0.416005 0.118246 -0.344311
C34   C     C_3   0.358952 0.285804 0.182281 -0.300960
C35   C     C_3   0.279129 0.228695 0.184509 -0.902405
H16   H     H_    0.241778 0.287311 0.246680 0.265527
H17   H     H_    0.255263 0.218403 0.077237 0.257313
H18   H     H_    0.281112 0.135683 0.233098 0.248080
H19   H     H_    0.395529 0.224419 0.121773 0.199647
H20   H     H_    0.379210 0.288778 0.290924 0.256477
H21   H     H_    0.332374 0.486703 0.178545 0.200938
H22   H     H_    0.318243 0.410604 0.029680 0.145804
C36   C     C_2   0.590770 0.744003 0.134333 0.480847
H23   H     H_    0.536226 0.775983 0.096695 0.033737
O9    O     O_2   0.627477 0.805407 0.219468 -0.566918
C37   C     C_3   0.724505 0.285679 0.375486 -0.374358
C38   C     C_3   0.741531 0.170871 0.464017 -0.393831
C39   C     C_3   0.710947 0.053046 0.393694 -0.721637
H24   H     H_    0.649400 0.059811 0.371174 0.266990
H25   H     H_    0.740553 0.037518 0.294826 0.273712
H26   H     H_    0.720388 0.972657 0.463250 0.241060
H27   H     H_    0.803353 0.161333 0.482566 0.232737
H28   H     H_    0.714737 0.180433 0.566797 0.213903
H29   H     H_    0.662316 0.295433 0.373878 0.190350
H30   H     H_    0.738395 0.271197 0.265101 0.250058
C40   C     C_2   0.893313 0.322822 0.349221 0.327171
H31   H     H_    0.949486 0.299829 0.387649 0.078343
O10   O     O_2   0.871170 0.278685 0.238542 -0.552774
C41   C     C_3   0.111272 0.443565 0.756042 -0.396935
C42   C     C_3   0.160005 0.425218 0.888682 -0.388656
C43   C     C_3   0.110663 0.407575 0.015721 -0.814931
H32   H     H_    0.074678 0.489184 0.030350 0.253272
H33   H     H_    0.073937 0.323425 0.003394 0.265942
H34   H     H_    0.147208 0.397197 0.110119 0.243192
H35   H     H_    0.195101 0.342064 0.877487 0.212386
H36   H     H_    0.197778 0.507574 0.906522 0.218788
H37   H     H_    0.070824 0.518027 0.777868 0.209259
H38   H     H_    0.077688 0.357479 0.733490 0.198306

loop_
_geom_bond_atom_site_label_1
_geom_bond_atom_site_label_2
_ccdc_geom_bond_type
C42   C43   S    
Cu1   O7    S    
C37   C38   S    
C15   H2    S    
C25   H9    S    
C26   H10   S    
C7    C8    A    
Cu1   O1    S    
C11   C19   S    
C35   H16   S    
C21   C22   A    
C28   C29   A    
C18   H3    S    
C30   C31   A    
C31   C37   S    
C22   H7    S    
C15   C16   A    
C2    C32   A    
C18   C19   S    
C1    O2    A    
C20   N1    A    
C41   H37   S    
C34   H19   S    
C31   C32   A    
C28   H1    S    
C16   C17   A    
Cu2   O6    S    
C35   H17   S    
C36   H23   S    
C9    C10   A    
C24   N2    A    
Cu2   O4    S    
C38   H28   S    
C13   C14   A    
C27   C30   S    
C37   H29   S    
C21   N1    A    
C1    O1    A    
Cu1   Cu2   S    
C7    C12   S    
Cu2   N1    S    
C38   C39   S    
C20   C24   A    
C23   O5    A    
C24   C25   S    
C21   C33   S    
C41   H38   S    
C41   C42   S    
C8    C9    A    
C25   C26   S    
C29   H11   S    
C33   C34   S    
C39   H24   S    
C29   C30   A    
C34   H20   S    
C40   H31   S    
C43   H34   S    
C17   C18   S    
C39   H25   S    
C19   H5    S    
Cu2   O2    S    
C5    C41   S    
C40   O10   D    
C43   H33   S    
C16   C23   S    
C38   H27   S    
Cu2   O8    S    
C26   C36   S    
C1    C13   S    
C4    C10   S    
C3    C4    T    
C37   H30   S    
Cu1   O3    S    
C23   O6    A    
C32   C40   S    
C11   C17   A    
C6    H12   S    
C35   H18   S    
C27   O7    A    
C25   H8    S    
C36   O9    D    
C6    C7    A    
Cu1   N2    S    
C2    C3    S    
C18   H4    S    
C8    H13   S    
C5    C10   A    
C27   O8    A    
C11   C13   A    
C5    C6    A    
C20   C26   S    
C33   H22   S    
Cu1   O5    S    
C42   H36   S    
C34   C35   S    
C39   H26   S    
C12   O4    A    
C19   H6    S    
C14   H15   S    
C43   H32   S    
C33   H21   S    
C9    H14   S    
C14   C15   A    
C2    C28   A    
C42   H35   S    
C12   O3    A    
C22   N2    A    
