data_mof_unit_15353.cif
_audit_creation_date              2013-03-05T15:46:10-0500
_audit_creation_method            fapswitch 2.2
_symmetry_space_group_name_H-M    P1
_symmetry_Int_Tables_number       1
_space_group_crystal_system       triclinic
_cell_length_a                    10.326031
_cell_length_b                    10.62031
_cell_length_c                    12.907446
_cell_angle_alpha                 89.535027
_cell_angle_beta                  92.194215
_cell_angle_gamma                 95.469303
_cell_volume                      1408.01191537

loop_
_atom_site_label
_atom_site_type_symbol
_atom_site_description
_atom_site_fract_x
_atom_site_fract_y
_atom_site_fract_z
_atom_type_partial_charge
O1    O     O_R   0.567930 0.307680 0.508550 -0.603414
O2    O     O_R   0.432070 0.692320 0.491450 -0.592491
O3    O     O_R   0.351090 0.340020 0.481290 -0.546418
O4    O     O_R   0.648910 0.659980 0.518710 -0.547230
C1    C     C_R   0.445903 0.266472 0.489261 0.807914
C2    C     C_R   0.555246 0.733315 0.502563 0.831418
O5    O     O_R   0.590490 0.486480 0.665020 -0.619798
O6    O     O_R   0.409510 0.513520 0.334980 -0.566614
O7    O     O_R   0.373660 0.518820 0.637760 -0.580326
O8    O     O_R   0.626340 0.481180 0.362240 -0.602992
C3    C     C_R   0.475858 0.503838 0.697943 0.910594
C4    C     C_R   0.524400 0.495308 0.301890 0.882794
Zn1   Zn    Zn3+2 0.644780 0.478400 0.518200 1.106289
Zn2   Zn    Zn3+2 0.355220 0.521600 0.481800 1.146097
C5    C     C_R   0.538091 0.488562 0.191532 -0.126072
C6    C     C_R   0.463556 0.508314 0.808150 -0.127727
C7    C     C_R   0.352380 0.574725 0.955574 0.317813
C8    C     C_R   0.652671 0.424114 0.044371 0.319978
C9    C     C_R   0.361484 0.565730 0.849377 -0.146914
C10   C     C_R   0.645444 0.438323 0.150852 -0.187278
C11   C     C_R   0.559618 0.461081 0.872036 -0.158558
C12   C     C_R   0.439649 0.528982 0.126746 -0.152332
C13   C     C_R   0.553879 0.468506 0.978625 0.014514
C14   C     C_R   0.448242 0.524929 0.020644 -0.004447
H1    H     H_    0.355068 0.562743 0.159152 0.250457
H2    H     H_    0.640118 0.420782 0.837804 0.220239
H3    H     H_    0.720688 0.404676 0.201846 0.213157
H4    H     H_    0.292733 0.609850 0.799196 0.232392
H5    H     H_    0.419224 0.885927 0.394605 0.216650
H6    H     H_    0.609314 0.119889 0.420054 0.234603
C15   C     C_2   0.418054 0.131112 0.470868 0.117235
C16   C     C_2   0.589689 0.867811 0.487942 0.153370
C17   C     C_2   0.515916 0.069392 0.436767 -0.215731
C18   C     C_2   0.506920 0.933056 0.431436 -0.192885
N1    N     N_2   0.162330 0.550370 0.457540 -0.008964
N2    N     N_2   0.837670 0.449630 0.542460 -0.038429
C19   C     C_2   0.074807 0.517011 0.526122 0.294908
C20   C     C_2   0.930526 0.533242 0.512423 0.278635
N3    N     N_R   0.249795 0.640421 0.995360 0.218608
O9    O     O_R   0.278538 0.740060 0.052715 -0.351372
O10   O     O_R   0.131560 0.617655 0.957037 -0.242766
N4    N     N_R   0.759345 0.363639 0.005149 0.215881
O11   O     O_R   0.736518 0.264356 0.946437 -0.330275
O12   O     O_R   0.876526 0.391608 0.044182 -0.266412
N5    N     N_R   0.707526 0.927300 0.535664 0.262670
O13   O     O_R   0.738084 0.901764 0.631763 -0.269503
O14   O     O_R   0.793311 0.990140 0.479064 -0.221595
N6    N     N_R   0.292214 0.067722 0.492695 0.241103
O15   O     O_R   0.187118 0.121776 0.469141 -0.233067
O16   O     O_R   0.282625 0.962428 0.545341 -0.298796
N7    N     N_R   0.894808 0.654801 0.482224 0.231106
O17   O     O_R   0.922849 0.750087 0.544431 -0.236464
O18   O     O_R   0.835596 0.671336 0.392977 -0.296973
N8    N     N_R   0.118869 0.472221 0.624597 0.214353
O19   O     O_R   0.088713 0.528573 0.708242 -0.327935
O20   O     O_R   0.171302 0.365627 0.632064 -0.266649
S1    S     S_3+6 0.870395 0.303020 0.594182 0.205272
O21   O     O_2   0.964185 0.244004 0.527686 -0.160065
O22   O     O_2   0.926760 0.318203 0.702920 -0.174499
O23   O     O_3   0.737123 0.200880 0.602460 -0.465416
H7    H     H_    0.699712 0.218587 0.669809 0.376323
S2    S     S_3+6 0.133243 0.652520 0.355135 0.179120
O24   O     O_2   0.028934 0.592145 0.282173 -0.215714
O25   O     O_2   0.094834 0.775709 0.394813 -0.183501
O26   O     O_3   0.268501 0.689279 0.289466 -0.531482
H8    H     H_    0.256508 0.771465 0.255399 0.397609

loop_
_geom_bond_atom_site_label_1
_geom_bond_atom_site_label_2
_geom_bond_distance
_ccdc_geom_bond_type
C1    C15   1.458483 S    
C2    C16   1.451320 S    
O7    Zn2   2.015001 S    
C15   C17   1.345204 D    
C6    C11   1.393215 A    
C10   H3    1.083775 S    
C8    N4    1.437001 S    
C11   H2    1.080922 S    
C16   N5    1.435802 S    
S2    O25   1.502195 D    
S2    O26   1.674184 S    
C4    C5    1.439846 S    
O6    C4    1.308112 A    
S2    O24   1.502881 D    
N6    O16   1.301443 A    
C17   C18   1.444080 S    
N3    O10   1.301205 A    
N5    O13   1.300990 A    
O5    C3    1.302723 A    
C9    H4    1.079976 S    
O7    C3    1.307524 A    
S1    O21   1.501852 D    
O2    C2    1.307437 A    
O3    Zn2   1.924899 S    
N4    O12   1.301318 A    
C6    C9    1.391628 A    
O1    C1    1.309149 A    
C19   N8    1.426894 S    
O8    C4    1.304900 A    
C12   C14   1.377035 A    
N2    C20   1.311016 D    
N6    O15   1.300135 A    
C7    C9    1.382238 A    
C19   C20   1.519515 S    
O26   H8    0.990328 S    
N1    S2    1.738596 S    
C8    C10   1.389494 A    
C15   N6    1.441980 S    
C11   C13   1.382541 A    
C7    N3    1.435620 S    
C5    C10   1.396803 A    
O2    Zn2   1.911650 S    
N8    O20   1.301952 A    
S1    O22   1.502628 D    
C7    C14   1.412044 A    
O1    Zn1   1.911648 S    
N4    O11   1.301375 A    
C13   C14   1.420669 A    
C8    C13   1.414907 A    
O5    Zn1   2.001524 S    
N1    C19   1.311893 D    
Zn1   N2    2.055561 S    
O4    C2    1.308048 A    
N2    S1    1.746547 S    
C3    C6    1.434566 S    
N5    O14   1.301053 A    
N3    O9    1.300753 A    
N8    O19   1.300975 A    
S1    O23   1.675341 S    
O6    Zn2   2.001524 S    
C20   N7    1.423459 S    
H6    C17   1.086152 S    
N7    O18   1.301886 A    
C12   H1    1.075381 S    
H5    C18   1.086750 S    
Zn2   N1    2.055560 S    
C5    C12   1.388924 A    
N7    O17   1.300828 A    
O4    Zn1   1.924899 S    
O23   H7    0.991214 S    
O3    C1    1.309957 A    
O8    Zn1   2.015003 S    
C16   C18   1.341467 D    
