data_mof_unit_49352.cif
_audit_creation_date              2012-12-10T17:07:08-0500
_audit_creation_method            fapswitch 2.2
_symmetry_space_group_name_H-M    P1
_symmetry_Int_Tables_number       1
_space_group_crystal_system       triclinic
_cell_length_a                    18.382222
_cell_length_b                    18.226011
_cell_length_c                    18.359879
_cell_angle_alpha                 120.039722
_cell_angle_beta                  119.844282
_cell_angle_gamma                 59.601905
_cell_volume                      4340.06381819

loop_
_atom_site_label
_atom_site_type_symbol
_atom_type_description
_atom_site_fract_x
_atom_site_fract_y
_atom_site_fract_z
_atom_type_partial_charge
C1    C     C_R   0.139773 0.857778 0.637717 0.862393
C2    C     C_R   0.681459 0.155770 0.765271 -0.234995
C3    C     C_R   0.720669 0.207369 0.768323 -0.026714
C4    C     C_R   0.801244 0.161282 0.749301 -0.001615
C5    C     C_R   0.680829 0.301999 0.786005 -0.132702
C6    C     C_R   0.706053 0.343293 0.758224 0.065815
C7    C     C_R   0.783501 0.294998 0.733138 0.019761
C8    C     C_R   0.823520 0.200578 0.717275 -0.136568
C9    C     C_R   0.654695 0.431155 0.752362 -0.167270
C10   C     C_R   0.687039 0.475120 0.737290 -0.167852
C11   C     C_R   0.770882 0.432620 0.727786 0.316824
C12   C     C_R   0.859065 0.140193 0.360405 0.777444
C13   C     C_R   0.818987 0.343484 0.725977 -0.167744
C14   C     C_R   0.932923 0.241340 0.351147 -0.225009
C15   C     C_R   0.965967 0.296117 0.352679 0.313331
C16   C     C_R   0.909101 0.359651 0.309507 -0.192884
C17   C     C_R   0.821054 0.363352 0.257860 -0.243342
C18   C     C_R   0.787088 0.305968 0.252402 0.098841
C19   C     C_R   0.842561 0.247788 0.303668 0.048233
C20   C     C_R   0.806499 0.196527 0.305076 -0.036014
C21   C     C_R   0.718217 0.200642 0.255039 -0.195083
C22   C     C_R   0.664712 0.255421 0.202648 -0.231832
C23   C     C_R   0.139753 0.140565 0.635580 0.855508
C24   C     C_R   0.699227 0.305287 0.198039 -0.040346
C25   C     C_R   0.951079 0.663350 0.318544 0.231983
C26   C     C_R   0.990302 0.572667 0.307961 -0.195103
C27   C     C_R   0.940532 0.516917 0.256552 -0.326223
C28   C     C_R   0.847827 0.549258 0.210654 0.504595
C29   C     C_R   0.802910 0.644896 0.230472 -0.083367
C30   C     C_R   0.855953 0.702732 0.285301 -0.013739
C31   C     C_R   0.811843 0.797210 0.303562 -0.093551
C32   C     C_R   0.720244 0.833352 0.265061 -0.308288
C33   C     C_R   0.668702 0.778386 0.208860 0.459378
C34   C     C_R   0.858962 0.861180 0.360056 0.873402
C35   C     C_R   0.707589 0.685399 0.194740 -0.175150
C36   C     C_R   0.114410 0.689055 0.583968 -0.182869
C37   C     C_R   0.102005 0.609570 0.558654 -0.293313
C38   C     C_R   0.161594 0.550022 0.606508 0.548574
C39   C     C_R   0.237138 0.568243 0.677515 0.189047
C40   C     C_R   0.243358 0.655600 0.712447 -0.101479
C41   C     C_R   0.183392 0.714556 0.661665 0.072318
C42   C     C_R   0.195402 0.796613 0.688912 -0.096859
C43   C     C_R   0.260636 0.823035 0.767989 -0.295215
C44   C     C_R   0.310425 0.772942 0.824605 0.475761
C45   C     C_R   0.139948 0.860118 0.360100 0.912790
C46   C     C_R   0.305080 0.687838 0.796161 -0.163634
C47   C     C_R   0.256169 0.678273 0.362187 -0.167099
C48   C     C_R   0.309801 0.589983 0.361199 0.330431
C49   C     C_R   0.363003 0.535763 0.306802 -0.166756
C50   C     C_R   0.362178 0.569223 0.252631 -0.193659
C51   C     C_R   0.307573 0.658305 0.251918 0.047811
C52   C     C_R   0.253645 0.713519 0.307305 -0.022185
C53   C     C_R   0.195939 0.801134 0.303693 -0.211265
C54   C     C_R   0.189439 0.832565 0.243956 0.386897
C55   C     C_R   0.247058 0.780101 0.193576 0.146996
C56   C     C_R   0.867598 0.141008 0.647860 0.847222
C57   C     C_R   0.304267 0.692965 0.196087 -0.180634
C58   C     C_R   0.325071 0.072200 0.639917 0.355341
C59   C     C_R   0.404820 0.012713 0.678732 0.254503
C60   C     C_R   0.455601 0.046669 0.766559 0.083888
C61   C     C_R   0.434479 0.141817 0.810745 0.354625
C62   C     C_R   0.346530 0.200181 0.774574 -0.093756
C63   C     C_R   0.288295 0.157355 0.697282 -0.103969
C64   C     C_R   0.195861 0.197004 0.684450 0.009298
C65   C     C_R   0.160415 0.287788 0.731459 -0.201657
C66   C     C_R   0.216012 0.338073 0.791175 -0.212185
C67   C     C_R   0.855274 0.075992 0.760965 0.271974
C68   C     C_R   0.309034 0.296887 0.812160 0.002381
C69   C     C_R   0.645541 0.634385 0.139658 0.976950
C70   C     C_R   0.361113 0.358060 0.863716 0.868350
C71   C     C_R   0.640595 0.359932 0.140147 0.775269
C72   C     C_R   0.360187 0.638474 0.858586 0.898928
C73   C     C_R   0.360149 0.639017 0.139830 0.878092
C74   C     C_R   0.630791 0.359553 0.850619 0.810718
C75   C     C_R   0.817237 0.026954 0.761503 -0.290125
C76   C     C_R   0.726944 0.063606 0.753827 0.449933
H1    H     H_    0.978622 0.193599 0.386673 0.159007
H2    H     H_    0.933871 0.405108 0.314803 0.165715
H3    H     H_    0.780073 0.411674 0.223008 0.194827
H4    H     H_    0.595690 0.259378 0.165807 0.145456
H5    H     H_    0.688202 0.905497 0.277959 0.144564
H6    H     H_    0.061974 0.543305 0.336162 0.221702
H7    H     H_    0.978231 0.446628 0.249348 0.155042
H8    H     H_    0.268514 0.886570 0.789114 0.164579
H9    H     H_    0.067610 0.730762 0.542754 0.209288
H10   H     H_    0.046577 0.593371 0.500449 0.172409
H11   H     H_    0.215436 0.717799 0.404833 0.183702
H12   H     H_    0.857225 0.960022 0.766285 0.178525
H13   H     H_    0.404426 0.467080 0.305626 0.168687
H14   H     H_    0.403491 0.524049 0.210396 0.141188
H15   H     H_    0.089693 0.319934 0.722456 0.176362
H16   H     H_    0.185956 0.409373 0.823238 0.171534
H17   H     H_    0.613335 0.184409 0.764534 0.173062
H18   H     H_    0.588110 0.465811 0.756790 0.188934
H19   H     H_    0.647475 0.542893 0.734695 0.177889
H20   H     H_    0.885335 0.314384 0.722190 0.189927
H21   H     H_    0.690428 0.162029 0.257417 0.144257
O1    O     O_3   0.000000 0.000000 0.500000 -0.484725
O2    O     O_R   0.055100 0.176520 0.615800 -0.657292
O3    O     O_R   0.884180 0.884200 0.444920 -0.631668
O4    O     O_R   0.176510 0.884190 0.615800 -0.671725
O5    O     O_R   0.884210 0.055080 0.323480 -0.649403
O6    O     O_3   0.499970 0.500030 0.999970 -0.490639
O7    O     O_R   0.615800 0.615830 0.055050 -0.640320
O8    O     O_R   0.444880 0.323510 0.884180 -0.631879
O9    O     O_R   0.615760 0.444950 0.176490 -0.637590
O10   O     O_R   0.323460 0.615830 0.884170 -0.624904
O11   O     O_R   0.444880 0.615840 0.176480 -0.640606
O12   O     O_R   0.055060 0.884200 0.615800 -0.607096
O13   O     O_R   0.615800 0.444940 0.884180 -0.643248
O14   O     O_R   0.323440 0.615840 0.055040 -0.618616
O15   O     O_R   0.615780 0.323500 0.884180 -0.676084
O16   O     O_R   0.615760 0.323500 0.055050 -0.665574
O17   O     O_R   0.444910 0.615830 0.884180 -0.616278
O18   O     O_R   0.615780 0.615830 0.176490 -0.628473
O19   O     O_R   0.323430 0.444950 0.884170 -0.641493
O20   O     O_R   0.884210 0.176520 0.444920 -0.626951
O21   O     O_R   0.176540 0.055080 0.615800 -0.633059
O22   O     O_R   0.884190 0.884200 0.323480 -0.613728
O23   O     O_R   0.176540 0.884190 0.444930 -0.661368
O24   O     O_R   0.884180 0.055090 0.615790 -0.610174
O25   O     O_R   0.055100 0.884190 0.323490 -0.617063
O26   O     O_R   0.884190 0.176530 0.615790 -0.658114
Zn1   Zn    Zn3+2 0.956630 0.130130 0.543370 0.991592
Zn2   Zn    Zn3+2 0.130140 0.956620 0.543380 0.977780
Zn3   Zn    Zn3+2 0.956630 0.956620 0.369870 1.004925
Zn4   Zn    Zn3+2 0.956610 0.956630 0.543370 1.017732
Zn5   Zn    Zn3+2 0.543340 0.369890 0.956600 0.949746
Zn6   Zn    Zn3+2 0.543340 0.543410 0.130100 1.001527
Zn7   Zn    Zn3+2 0.369830 0.543410 0.956590 1.011890
Zn8   Zn    Zn3+2 0.543370 0.543400 0.956600 1.014824
Br1   Br    Br    0.818902 0.495206 0.714493 -0.539857
Br2   Br    Br    0.089584 0.282182 0.411621 -0.542253
Br3   Br    Br    0.038546 0.719834 0.370346 -0.565956
O27   O     O_3   0.800402 0.490281 0.146349 -0.678533
C77   C     C_3   0.856394 0.402306 0.109777 0.010863
H22   H     H_    0.894110 0.365894 0.158232 0.164104
H23   H     H_    0.903568 0.404874 0.090410 0.162476
C78   C     C_3   0.801228 0.347907 0.027121 -0.301624
H24   H     H_    0.742582 0.358200 0.039040 0.231652
H25   H     H_    0.779245 0.372166 0.972548 0.225407
C79   C     C_3   0.856225 0.247390 0.001298 -0.941090
H26   H     H_    0.913291 0.235269 0.985636 0.283199
H27   H     H_    0.813892 0.209110 0.941852 0.277170
H28   H     H_    0.881736 0.221835 0.056279 0.262589
Br4   Br    Br    0.983179 0.031237 0.792269 -0.561472
O28   O     O_3   0.578378 0.816544 0.168086 -0.657254
C80   C     C_3   0.565487 0.833823 0.094459 0.099473
H29   H     H_    0.523245 0.795925 0.033888 0.211068
H30   H     H_    0.628070 0.811085 0.081045 0.136074
C81   C     C_3   0.517333 0.934693 0.107945 -0.372530
H31   H     H_    0.452876 0.956934 0.116772 0.236331
H32   H     H_    0.558689 0.973218 0.169130 0.218618
C82   C     C_3   0.499907 0.955905 0.028891 -0.871044
H33   H     H_    0.459209 0.917774 0.966416 0.294203
H34   H     H_    0.563997 0.937963 0.021728 0.281500
H35   H     H_    0.463096 0.029120 0.039764 0.262547
O29   O     O_3   0.148793 0.471213 0.582505 -0.574151
C83   C     C_3   0.073162 0.491713 0.601325 0.126394
H36   H     H_    0.061501 0.427595 0.575061 0.219522
H37   H     H_    0.011495 0.536814 0.566072 0.119682
C84   C     C_3   0.088110 0.531830 0.701907 -0.435244
H38   H     H_    0.153345 0.489542 0.736335 0.268138
H39   H     H_    0.089744 0.601002 0.728708 0.217884
C85   C     C_3   0.013912 0.536989 0.721630 -0.845775
H40   H     H_    0.948503 0.581307 0.689530 0.278838
H41   H     H_    0.027132 0.565298 0.794655 0.272553
H42   H     H_    0.010897 0.468768 0.696557 0.275368
Br5   Br    Br    0.332581 0.465277 0.711518 -0.478746
O30   O     O_3   0.363979 0.808627 0.909060 -0.672450
C86   C     C_3   0.316838 0.852723 0.970140 0.066974
H43   H     H_    0.366857 0.849395 0.036390 0.195919
H44   H     H_    0.271714 0.818955 0.954176 0.162116
C87   C     C_3   0.263745 0.952153 0.977004 -0.384429
H45   H     H_    0.308321 0.984826 0.990415 0.233852
H46   H     H_    0.209024 0.956976 0.913212 0.245290
C88   C     C_3   0.222620 0.003159 0.051021 -0.835865
H47   H     H_    0.174498 0.974119 0.036648 0.293404
H48   H     H_    0.186273 0.075042 0.055246 0.263021
H49   H     H_    0.275435 0.999774 0.116166 0.269065
O31   O     O_3   0.132955 0.918941 0.242197 -0.647088
C89   C     C_3   0.059269 0.914932 0.162353 0.141937
H50   H     H_    0.004658 0.914850 0.172705 0.156647
H51   H     H_    0.075316 0.853267 0.105039 0.164531
C90   C     C_3   0.025970 0.998411 0.138310 -0.309009
H52   H     H_    0.987009 0.057802 0.181595 0.211791
H53   H     H_    0.083789 0.012607 0.150107 0.267134
C91   C     C_3   0.967977 0.984912 0.040762 -0.947434
H54   H     H_    0.008820 0.931921 0.996893 0.289052
H55   H     H_    0.939220 0.048762 0.027189 0.277772
H56   H     H_    0.913039 0.964220 0.025076 0.268651
Br6   Br    Br    0.307465 0.542355 0.431818 -0.516128
Br7   Br    Br    0.251294 0.830749 0.125680 -0.606768
O32   O     O_3   0.276477 0.045844 0.549903 -0.616936
C92   C     C_3   0.329601 0.009571 0.496470 0.110501
H57   H     H_    0.352781 0.934698 0.474029 0.186909
H58   H     H_    0.388897 0.031565 0.531497 0.122222
C93   C     C_3   0.272649 0.040365 0.415182 -0.334246
H59   H     H_    0.210525 0.024127 0.381643 0.274634
H60   H     H_    0.253860 0.114644 0.437179 0.265502
C94   C     C_3   0.322855 0.995165 0.349525 -0.840578
H61   H     H_    0.383269 0.014038 0.381080 0.252400
H62   H     H_    0.278910 0.017458 0.290379 0.292237
H63   H     H_    0.343201 0.920672 0.327385 0.279849
O33   O     O_3   0.432747 0.921393 0.632045 -0.644181
C95   C     C_3   0.385785 0.880213 0.633082 0.163627
H64   H     H_    0.315837 0.897998 0.587880 0.206349
H65   H     H_    0.385449 0.901441 0.701501 0.162605
C96   C     C_3   0.431194 0.777976 0.600620 -0.369508
H66   H     H_    0.424981 0.754699 0.529693 0.224882
H67   H     H_    0.503315 0.760226 0.640608 0.263186
C97   C     C_3   0.389991 0.729500 0.609545 -0.854338
H68   H     H_    0.396215 0.751251 0.680129 0.267678
H69   H     H_    0.425595 0.655672 0.586766 0.288680
H70   H     H_    0.318457 0.743942 0.568149 0.283363
Br8   Br    Br    0.546684 0.960195 0.826089 -0.550424
O34   O     O_3   0.490348 0.173697 0.895661 -0.609244
C98   C     C_3   0.577694 0.146512 0.894898 0.170707
H71   H     H_    0.585507 0.203427 0.896213 0.207986
H72   H     H_    0.592769 0.090150 0.834979 0.179393
C99   C     C_3   0.647684 0.119844 0.977014 -0.286087
H73   H     H_    0.626654 0.170428 0.035184 0.241603
H74   H     H_    0.652341 0.054391 0.971424 0.253142
C100  C     C_3   0.739814 0.113557 0.992242 -0.943765
H75   H     H_    0.764407 0.057967 0.936652 0.290082
H76   H     H_    0.786735 0.100299 0.055747 0.270191
H77   H     H_    0.737725 0.177665 0.997086 0.282467
O35   O     O_3   0.683266 0.012064 0.739954 -0.662205
C101  C     C_3   0.686954 0.937918 0.660050 0.049527
H78   H     H_    0.679099 0.956777 0.606574 0.144107
H79   H     H_    0.751603 0.882240 0.672842 0.158666
C102  C     C_3   0.611089 0.904530 0.626730 -0.263762
H80   H     H_    0.619515 0.881650 0.677142 0.283160
H81   H     H_    0.546790 0.961134 0.617362 0.228617
C103  C     C_3   0.608704 0.826721 0.538539 -0.921449
H82   H     H_    0.598013 0.848678 0.486341 0.260458
H83   H     H_    0.552882 0.804296 0.516888 0.283035
H84   H     H_    0.672248 0.768919 0.546302 0.268693

loop_
_geom_bond_atom_site_label_1
_geom_bond_atom_site_label_2
_ccdc_geom_bond_type
O9    Zn6   S    
C66   C68   A    
C86   H43   S    
O25   Zn3   S    
C85   H40   S    
C76   O35   S    
C28   O27   S    
C94   H62   S    
C41   C42   A    
C23   O2    A    
O28   C80   S    
C80   C81   S    
C4    C8    A    
C11   Br1   S    
C8    C56   S    
C6    C9    A    
C90   H52   S    
C7    C8    A    
O16   Zn5   S    
O31   C89   S    
C65   C66   A    
C40   C46   A    
C32   H5    S    
C86   H44   S    
C26   C27   A    
C29   C30   A    
C91   H56   S    
C18   C24   A    
C22   C24   A    
C28   C29   A    
O20   Zn1   S    
C61   O34   S    
O24   Zn4   S    
C99   C100  S    
O10   Zn7   S    
C74   O15   A    
C5    C6    A    
C78   C79   S    
C95   H65   S    
C90   H53   S    
C11   C13   A    
O30   C86   S    
C15   C16   A    
O3    Zn4   S    
C72   O17   A    
C17   H3    S    
C96   C97   S    
C71   O16   A    
C91   H55   S    
C18   C19   A    
C94   H61   S    
C14   H1    S    
C57   C73   S    
C5    C74   S    
C87   H45   S    
C33   O28   S    
C1    O12   A    
C89   H50   S    
C50   H14   S    
O1    Zn2   S    
C69   O18   A    
C83   H36   S    
C16   C17   A    
C88   H48   S    
O7    Zn8   S    
C47   C48   A    
C34   O3    A    
C103  H82   S    
C72   O10   A    
C93   H59   S    
C51   C57   A    
O21   Zn2   S    
C9    C10   A    
C82   H34   S    
C3    C5    A    
C92   C93   S    
C54   O31   S    
C59   O33   S    
O27   C77   S    
O32   C92   S    
C45   C53   S    
C59   C60   A    
C26   H6    S    
C21   C22   A    
C100  H75   S    
C43   H8    S    
C103  H83   S    
C79   H28   S    
C36   C41   A    
C23   O21   A    
C77   C78   S    
O35   C101  S    
C44   C46   A    
C73   O14   A    
C84   H39   S    
C38   C39   A    
C86   C87   S    
C83   C84   S    
C48   Br6   S    
C13   H20   S    
C51   C52   A    
C56   O26   A    
C23   C64   S    
C37   H10   S    
O26   Zn1   S    
C80   H29   S    
C38   O29   S    
C82   H35   S    
C96   H66   S    
C49   H13   S    
C39   C40   A    
C95   H64   S    
C25   C30   A    
C90   C91   S    
C66   H16   S    
C50   C51   A    
C25   C26   A    
O33   C95   S    
C58   O32   S    
C102  C103  S    
C92   H57   S    
C91   H54   S    
C89   C90   S    
C47   H11   S    
C37   C38   A    
O1    Zn1   S    
C75   C76   A    
O17   Zn8   S    
C12   O5    A    
C101  H78   S    
O6    Zn5   S    
C4    C67   A    
C99   H73   S    
C21   H21   S    
C1    C42   S    
O14   Zn7   S    
C98   H72   S    
C31   C32   A    
C14   C15   A    
C97   H70   S    
C7    C13   A    
C81   H31   S    
C88   H49   S    
C12   C20   S    
C62   C63   A    
C102  H81   S    
C17   C18   A    
C82   H33   S    
C31   C34   S    
O13   Zn8   S    
C20   C21   A    
C25   Br3   S    
O6    Zn6   S    
C87   C88   S    
O11   Zn6   S    
C47   C52   A    
C81   C82   S    
C73   O11   A    
C45   O23   A    
C77   H23   S    
O1    Zn4   S    
C55   Br7   S    
C97   H69   S    
C49   C50   A    
C85   H42   S    
C55   C57   A    
C43   C44   A    
O29   C83   S    
C36   H9    S    
C103  H84   S    
C79   H27   S    
C44   O30   S    
C67   C75   A    
C42   C43   A    
C3    C4    A    
C100  H77   S    
C1    O4    A    
C2    C76   A    
C52   C53   A    
C101  H79   S    
C98   C99   S    
C84   H38   S    
O18   Zn6   S    
C69   O7    A    
C34   O22   A    
C65   H15   S    
C54   C55   A    
C36   C37   A    
O8    Zn5   S    
C94   H63   S    
O23   Zn2   S    
C84   C85   S    
C46   C72   S    
C14   C19   A    
C2    H17   S    
O4    Zn2   S    
C58   C63   A    
C80   H30   S    
C77   H22   S    
O5    Zn3   S    
C70   O8    A    
C100  H76   S    
C74   O13   A    
C67   Br4   S    
C93   H60   S    
C78   H24   S    
C53   C54   A    
C6    C7    A    
C15   Br2   S    
C45   O25   A    
C101  C102  S    
C29   C35   A    
C62   C68   A    
C99   H74   S    
C70   O19   A    
C32   C33   A    
C19   C20   A    
C27   H7    S    
C2    C3    A    
C58   C59   A    
C22   H4    S    
C39   Br5   S    
C56   O24   A    
C78   H25   S    
C95   C96   S    
C98   H71   S    
C30   C31   A    
C10   H19   S    
C48   C49   A    
C64   C65   A    
C102  H80   S    
C33   C35   A    
C87   H46   S    
O12   Zn4   S    
C93   C94   S    
C16   H2    S    
C81   H32   S    
C60   Br8   S    
C61   C62   A    
O6    Zn7   S    
C89   H51   S    
O15   Zn5   S    
O34   C98   S    
C10   C11   A    
C63   C64   A    
O22   Zn3   S    
C75   H12   S    
O1    Zn3   S    
O19   Zn7   S    
C97   H68   S    
C35   C69   S    
C85   H41   S    
C88   H47   S    
C71   O9    A    
C27   C28   A    
C68   C70   S    
C96   H67   S    
C79   H26   S    
C60   C61   A    
C40   C41   A    
C12   O20   A    
C83   H37   S    
O6    Zn8   S    
C9    H18   S    
C24   C71   S    
O2    Zn1   S    
C92   H58   S    
