data_mof_unit_27052.cif
_audit_creation_date              2012-12-10T18:50:01-0500
_audit_creation_method            fapswitch 2.2
_symmetry_space_group_name_H-M    P1
_symmetry_Int_Tables_number       1
_space_group_crystal_system       triclinic
_cell_length_a                    10.742749
_cell_length_b                    9.874523
_cell_length_c                    10.680277
_cell_angle_alpha                 89.68418
_cell_angle_beta                  91.005013
_cell_angle_gamma                 89.502069
_cell_volume                      1132.72343372

loop_
_atom_site_label
_atom_site_type_symbol
_atom_type_description
_atom_site_fract_x
_atom_site_fract_y
_atom_site_fract_z
_atom_type_partial_charge
C1    C     C_R   0.260069 0.500536 0.501025 0.882200
C2    C     C_R   0.578992 0.927001 0.577081 -0.059553
C3    C     C_R   0.422739 0.929206 0.419465 0.047946
C4    C     C_R   0.416569 0.073439 0.426194 0.033314
C5    C     C_R   0.502507 0.499943 0.257775 0.806821
C6    C     C_R   0.739577 0.499356 0.488560 0.853426
C7    C     C_R   0.505604 0.499662 0.742041 0.857853
C8    C     C_3   0.512942 0.645796 0.069799 -0.407481
C9    C     C_3   0.391241 0.431882 0.068190 -0.360862
C10   C     C_3   0.497483 0.645431 0.928187 -0.420278
C11   C     C_3   0.402530 0.415027 0.926762 -0.402100
C12   C     C_3   0.644920 0.437007 0.928601 0.338607
C13   C     C_3   0.633443 0.417147 0.077771 -0.038504
C14   C     C_3   0.511762 0.497769 0.121299 -0.022774
C15   C     C_3   0.514677 0.498074 0.878498 0.099772
C16   C     C_2   0.352512 0.858493 0.318750 0.459950
C17   C     C_2   0.314454 0.147521 0.359810 0.512152
C18   C     C_2   0.748433 0.471018 0.147362 0.280976
C19   C     C_2   0.625918 0.267072 0.118046 0.454831
C20   C     C_3   0.751649 0.536891 0.892703 -0.868761
C21   C     C_3   0.681694 0.302039 0.862211 -0.816852
C22   C     C_2   0.886688 0.235449 0.481731 0.490157
C23   C     C_R   0.066248 0.378625 0.504113 -0.243297
C24   C     C_2   0.879565 0.753404 0.414371 0.454822
C25   C     C_R   0.064384 0.621274 0.467881 -0.269008
C26   C     C_R   0.939914 0.373548 0.485567 -0.003524
C27   C     C_R   0.937009 0.621312 0.451799 -0.023283
C28   C     C_R   0.872458 0.497413 0.469754 -0.079270
C29   C     C_R   0.127791 0.501084 0.494764 -0.028379
C30   C     C_R   0.581110 0.070430 0.574771 -0.044783
H1    H     H_    0.599941 0.698637 0.097505 0.206541
H2    H     H_    0.114553 0.715194 0.455726 0.151018
H3    H     H_    0.646660 0.123373 0.634265 0.124886
H4    H     H_    0.642338 0.871860 0.638988 0.127855
H5    H     H_    0.314511 0.759592 0.332267 0.102127
H6    H     H_    0.330182 0.242097 0.312986 0.110117
H7    H     H_    0.742467 0.561049 0.203940 0.138247
H8    H     H_    0.689326 0.226556 0.189268 0.172686
H9    H     H_    0.750372 0.631388 0.948135 0.234043
H10   H     H_    0.844905 0.489465 0.908017 0.279758
H11   H     H_    0.745285 0.565538 0.792035 0.212073
H12   H     H_    0.370566 0.332967 0.112407 0.223052
H13   H     H_    0.712119 0.320703 0.764747 0.224329
H14   H     H_    0.762137 0.252794 0.911553 0.247982
H15   H     H_    0.604353 0.228911 0.856970 0.260289
H16   H     H_    0.915185 0.160835 0.551816 0.017352
H17   H     H_    0.917910 0.846726 0.451320 0.068128
H18   H     H_    0.434382 0.705524 0.107942 0.239126
H19   H     H_    0.309461 0.498077 0.088018 0.175318
H20   H     H_    0.402541 0.683840 0.902214 0.205012
H21   H     H_    0.314103 0.450568 0.880834 0.161005
H22   H     H_    0.563718 0.718170 0.886556 0.201092
H23   H     H_    0.412265 0.306141 0.903481 0.229890
H24   H     H_    0.117285 0.285079 0.522088 0.179902
N1    N     N_R   0.499970 0.857200 0.499970 -0.128332
N2    N     N_R   0.499970 0.142800 0.499970 -0.132728
O1    O     O_R   0.316750 0.614620 0.499990 -0.657590
O2    O     O_2   0.208758 0.102881 0.358347 -0.591720
O3    O     O_2   0.849618 0.414428 0.139230 -0.542916
O4    O     O_2   0.548447 0.190006 0.074516 -0.594879
O5    O     O_2   0.818575 0.200886 0.395255 -0.541872
O6    O     O_2   0.795494 0.760550 0.336233 -0.556463
O7    O     O_R   0.316750 0.385380 0.499990 -0.650239
O8    O     O_R   0.499970 0.614670 0.314790 -0.622912
O9    O     O_R   0.499970 0.385330 0.314790 -0.649174
O10   O     O_R   0.683220 0.614710 0.500010 -0.591603
O11   O     O_R   0.683220 0.385290 0.500010 -0.602763
O12   O     O_R   0.500010 0.614660 0.685200 -0.630951
O13   O     O_R   0.500010 0.385340 0.685200 -0.628235
O14   O     O_2   0.337978 0.910954 0.215628 -0.564529
Zn1   Zn    Zn3+2 0.499980 0.653120 0.500000 0.958690
Zn2   Zn    Zn3+2 0.499980 0.346880 0.500000 0.952267

loop_
_geom_bond_atom_site_label_1
_geom_bond_atom_site_label_2
_ccdc_geom_bond_type
C7    O13   A    
O13   Zn2   S    
C24   O6    D    
C9    C14   S    
C8    H18   S    
N1    Zn1   S    
C19   H8    S    
C1    O1    A    
C19   O4    D    
C25   C27   A    
O9    Zn2   S    
C26   C28   A    
O10   Zn1   S    
C11   H23   S    
C12   C15   S    
C17   O2    D    
C2    C30   A    
C24   C27   S    
C10   H22   S    
C12   C20   S    
C25   H2    S    
C1    C29   S    
C20   H11   S    
C9    H12   S    
C16   O14   D    
C13   C14   S    
O1    Zn1   S    
C22   O5    D    
C12   C13   S    
C9    C11   S    
C2    H4    S    
C5    C14   S    
C30   N2    A    
C13   C18   S    
O12   Zn1   S    
C4    C17   S    
C23   C29   A    
C11   C15   S    
C5    O9    A    
C6    O11   A    
C17   H6    S    
C18   H7    S    
C21   H15   S    
C2    N1    A    
C16   H5    S    
C25   C29   A    
C20   H10   S    
C6    C28   S    
O8    Zn1   S    
C11   H21   S    
C13   C19   S    
C24   H17   S    
C3    C4    A    
C21   H14   S    
C1    O7    A    
C18   O3    D    
C6    O10   A    
C9    H19   S    
O7    Zn2   S    
C23   H24   S    
C8    C10   S    
O11   Zn2   S    
C22   C26   S    
C23   C26   A    
C27   C28   A    
C20   H9    S    
C7    O12   A    
C8    C14   S    
C7    C15   S    
C30   H3    S    
C22   H16   S    
C10   C15   S    
C21   H13   S    
C8    H1    S    
C3    N1    A    
C12   C21   S    
C4    N2    A    
C3    C16   S    
C5    O8    A    
N2    Zn2   S    
C10   H20   S    
