data_mof_unit_54985.cif
_audit_creation_date              2012-12-10T18:50:02-0500
_audit_creation_method            fapswitch 2.2
_symmetry_space_group_name_H-M    P1
_symmetry_Int_Tables_number       1
_space_group_crystal_system       triclinic
_cell_length_a                    10.698823
_cell_length_b                    9.828586
_cell_length_c                    10.640034
_cell_angle_alpha                 89.67025
_cell_angle_beta                  90.239907
_cell_angle_gamma                 89.995682
_cell_volume                      1118.8170052

loop_
_atom_site_label
_atom_site_type_symbol
_atom_type_description
_atom_site_fract_x
_atom_site_fract_y
_atom_site_fract_z
_atom_type_partial_charge
C1    C     C_R   0.259834 0.499998 0.499447 0.853239
C2    C     C_R   0.571256 0.927477 0.584339 -0.079865
C3    C     C_R   0.428725 0.928516 0.415586 -0.063617
C4    C     C_R   0.428782 0.072507 0.415531 -0.087161
C5    C     C_R   0.501728 0.500328 0.257454 0.910861
C6    C     C_R   0.740085 0.500023 0.499884 0.893218
C7    C     C_R   0.500209 0.499384 0.742325 0.867163
C8    C     C_3   0.387703 0.576988 0.071012 -0.497397
C9    C     C_3   0.501251 0.352154 0.071805 -0.455889
C10   C     C_3   0.389747 0.581243 0.927277 -0.413741
C11   C     C_3   0.493745 0.350720 0.929490 -0.413923
C12   C     C_3   0.627098 0.561505 0.925030 -0.555050
C13   C     C_3   0.627113 0.576038 0.072645 0.900433
C14   C     C_3   0.505549 0.501642 0.120591 0.094264
C15   C     C_3   0.502498 0.498424 0.878453 0.119317
C16   C     C_3   0.641915 0.821765 0.041211 0.021734
C17   C     C_3   0.642171 0.953055 0.116209 -0.805755
C18   C     C_3   0.844523 0.575647 0.113132 0.124195
C19   C     C_3   0.952771 0.480003 0.142166 -0.859164
C20   C     C_R   0.064078 0.380664 0.531404 -0.205820
C21   C     C_R   0.063778 0.619089 0.465830 -0.210204
C22   C     C_R   0.936099 0.380761 0.531860 -0.212289
C23   C     C_R   0.935747 0.619235 0.466411 -0.201580
C24   C     C_R   0.872462 0.500086 0.499575 -0.011444
C25   C     C_R   0.127404 0.499913 0.498749 -0.007380
C26   C     C_R   0.571245 0.071468 0.584345 -0.079924
H1    H     H_    0.383112 0.682694 0.107674 0.206213
H2    H     H_    0.571329 0.286964 0.892533 0.181450
H3    H     H_    0.647822 0.655583 0.871811 0.128016
H4    H     H_    0.704019 0.491554 0.897350 0.166762
H5    H     H_    0.113104 0.288223 0.557724 0.156613
H6    H     H_    0.112608 0.711345 0.439009 0.151350
H7    H     H_    0.887333 0.288362 0.558381 0.153711
H8    H     H_    0.886648 0.711541 0.439804 0.158157
H9    H     H_    0.563277 0.828446 0.972962 0.152942
H10   H     H_    0.733286 0.814557 0.992469 0.125422
H11   H     H_    0.717835 0.950370 0.187979 0.256426
H12   H     H_    0.585670 0.294949 0.103352 0.220259
H13   H     H_    0.657798 0.041063 0.052262 0.198790
H14   H     H_    0.550908 0.966285 0.163900 0.250603
H15   H     H_    0.847002 0.659969 0.182359 0.183576
H16   H     H_    0.858545 0.617213 0.016789 0.116363
H17   H     H_    0.955933 0.397444 0.071408 0.249396
H18   H     H_    0.042336 0.537072 0.139569 0.203081
H19   H     H_    0.941258 0.434105 0.236974 0.277582
H20   H     H_    0.628186 0.125702 0.651754 0.116275
H21   H     H_    0.628194 0.872408 0.651769 0.116111
H22   H     H_    0.371897 0.874268 0.348089 0.119097
H23   H     H_    0.371970 0.127556 0.347998 0.121400
H24   H     H_    0.301765 0.523493 0.103326 0.171282
H25   H     H_    0.418075 0.297739 0.109813 0.183135
H26   H     H_    0.300740 0.538526 0.889861 0.169407
H27   H     H_    0.403993 0.303237 0.899411 0.187527
H28   H     H_    0.395648 0.688813 0.894726 0.183084
N1    N     N_R   0.499970 0.857200 0.499970 -0.072770
N2    N     N_R   0.499970 0.142800 0.499970 -0.074797
O1    O     O_R   0.316750 0.614620 0.499990 -0.631649
O2    O     O_3   0.730939 0.502868 0.123592 -0.658949
O3    O     O_R   0.316750 0.385380 0.499990 -0.628888
O4    O     O_R   0.499970 0.614670 0.314790 -0.581296
O5    O     O_R   0.499970 0.385330 0.314790 -0.634763
O6    O     O_R   0.683220 0.614710 0.500010 -0.621794
O7    O     O_R   0.683220 0.385290 0.500010 -0.622594
O8    O     O_R   0.500010 0.614660 0.685200 -0.633260
O9    O     O_R   0.500010 0.385340 0.685200 -0.635056
O10   O     O_3   0.624689 0.711267 0.124579 -0.627867
Zn1   Zn    Zn3+2 0.499980 0.653120 0.500000 0.956393
Zn2   Zn    Zn3+2 0.499980 0.346880 0.500000 0.939042

loop_
_geom_bond_atom_site_label_1
_geom_bond_atom_site_label_2
_ccdc_geom_bond_type
C6    O7    A    
N1    Zn1   S    
C23   C24   A    
C19   H19   S    
C1    O1    A    
O3    Zn2   S    
C7    O9    A    
C17   H14   S    
C10   H26   S    
C16   H9    S    
C19   H18   S    
C11   H27   S    
C12   C15   S    
C4    H23   S    
C2    N1    A    
O9    Zn2   S    
C6    C24   S    
C6    O6    A    
C7    C15   S    
C9    C14   S    
C5    O5    A    
C2    C26   A    
C17   H11   S    
C13   C14   S    
C16   H10   S    
C1    C25   S    
C9    C11   S    
O5    Zn2   S    
C5    C14   S    
C11   C15   S    
C11   H2    S    
O1    Zn1   S    
C10   H28   S    
O6    Zn1   S    
C9    H12   S    
C1    O3    A    
C20   C22   A    
C13   O10   S    
C18   H16   S    
C21   C23   A    
C2    H21   S    
C21   H6    S    
C22   C24   A    
C7    O8    A    
C16   O10   S    
C20   C25   A    
C26   H20   S    
C26   N2    A    
C3    C4    A    
O8    Zn1   S    
C8    H24   S    
C3    H22   S    
C12   C13   S    
C8    C10   S    
C18   C19   S    
C17   H13   S    
C18   H15   S    
C8    H1    S    
C22   H7    S    
C21   C25   A    
O7    Zn2   S    
C23   H8    S    
C8    C14   S    
C13   O2    S    
C5    O4    A    
C12   H4    S    
C10   C15   S    
N2    Zn2   S    
C3    N1    A    
C18   O2    S    
C4    N2    A    
O4    Zn1   S    
C19   H17   S    
C16   C17   S    
C12   H3    S    
C20   H5    S    
C9    H25   S    
