data_mof_unit_42208.cif
_audit_creation_date              2013-03-05T15:44:28-0500
_audit_creation_method            fapswitch 2.2
_symmetry_space_group_name_H-M    P1
_symmetry_Int_Tables_number       1
_space_group_crystal_system       triclinic
_cell_length_a                    19.895472
_cell_length_b                    7.228696
_cell_length_c                    19.76155
_cell_angle_alpha                 91.169072
_cell_angle_beta                  98.394653
_cell_angle_gamma                 91.442162
_cell_volume                      2809.89912505

loop_
_atom_site_label
_atom_site_type_symbol
_atom_site_description
_atom_site_fract_x
_atom_site_fract_y
_atom_site_fract_z
_atom_type_partial_charge
O1    O     O_R   0.673210 0.377390 0.686390 -0.556935
O2    O     O_R   0.326790 0.622610 0.313610 -0.556945
O3    O     O_R   0.826790 0.877390 0.813610 -0.558506
O4    O     O_R   0.173210 0.122610 0.186390 -0.558438
O5    O     O_R   0.810750 0.706450 0.681250 -0.536350
O6    O     O_R   0.189250 0.293550 0.318750 -0.536370
O7    O     O_R   0.689250 0.206450 0.818750 -0.545331
O8    O     O_R   0.310750 0.793550 0.181250 -0.545568
C1    C     C_R   0.831091 0.538945 0.666049 0.885271
C2    C     C_R   0.168909 0.461055 0.333951 0.885250
C3    C     C_R   0.669023 0.038321 0.834090 0.888286
C4    C     C_R   0.330978 0.961680 0.165907 0.888424
O9    O     O_R   0.672750 0.707060 0.678240 -0.547789
O10   O     O_R   0.327250 0.292940 0.321760 -0.547787
O11   O     O_R   0.827250 0.207060 0.821760 -0.547857
O12   O     O_R   0.172750 0.792940 0.178240 -0.547901
O13   O     O_R   0.687800 0.877990 0.810580 -0.550016
O14   O     O_R   0.312200 0.122010 0.189420 -0.549720
O15   O     O_R   0.812200 0.377990 0.689420 -0.554335
O16   O     O_R   0.187800 0.622010 0.310580 -0.554339
C5    C     C_R   0.648288 0.534652 0.661593 0.865484
C6    C     C_R   0.351709 0.465346 0.338411 0.865487
C7    C     C_R   0.851476 0.042020 0.839249 0.865604
C8    C     C_R   0.148525 0.957979 0.160750 0.865643
O17   O     O_3   0.755100 0.544060 0.793420 -0.275691
O18   O     O_3   0.244900 0.455940 0.206580 -0.275610
O19   O     O_3   0.744900 0.044060 0.706580 -0.272564
O20   O     O_3   0.255100 0.955940 0.293420 -0.272585
V1    V     V_3+5 0.749050 0.818670 0.741950 1.219877
V2    V     V_3+5 0.250950 0.181330 0.258050 1.220076
V3    V     V_3+5 0.750950 0.318670 0.758050 1.214929
V4    V     V_3+5 0.249050 0.681330 0.241950 1.214849
C9    C     C_R   0.088059 0.952938 0.106091 -0.155233
C10   C     C_R   0.911946 0.047053 0.893905 -0.155236
C11   C     C_R   0.412749 0.492860 0.391367 -0.154353
C12   C     C_R   0.587245 0.507129 0.608644 -0.154369
C13   C     C_R   0.013905 0.214112 0.951463 0.403121
C14   C     C_R   0.986109 0.785850 0.048523 0.403110
C15   C     C_R   0.489939 0.307626 0.559933 0.388231
C16   C     C_R   0.510054 0.692361 0.440081 0.388233
C17   C     C_R   0.957508 0.199824 0.899666 -0.106999
C18   C     C_R   0.042499 0.800161 0.100328 -0.107009
C19   C     C_R   0.544592 0.350415 0.611468 -0.118593
C20   C     C_R   0.455402 0.649571 0.388547 -0.118591
C21   C     C_R   0.923060 0.906698 0.941970 -0.005006
C22   C     C_R   0.076952 0.093275 0.058017 -0.005048
C23   C     C_R   0.574189 0.623877 0.552890 0.010834
C24   C     C_R   0.425804 0.376107 0.447120 0.010865
C25   C     C_R   0.976829 0.922497 0.997678 -0.024243
C26   C     C_R   0.023183 0.077471 0.002310 -0.024248
C27   C     C_R   0.521442 0.579841 0.498210 -0.028833
C28   C     C_R   0.478551 0.420142 0.501803 -0.028824
H1    H     H_    0.111299 0.212647 0.063999 0.169750
H2    H     H_    0.888717 0.787316 0.935984 0.169679
H3    H     H_    0.393405 0.254155 0.448073 0.172319
H4    H     H_    0.606588 0.745828 0.551937 0.172320
H5    H     H_    0.049575 0.692995 0.138008 0.109609
H6    H     H_    0.950431 0.306996 0.861988 0.109606
H7    H     H_    0.446831 0.738896 0.344980 0.108433
H8    H     H_    0.553165 0.261088 0.655036 0.108438
C29   C     C_R   0.548611 0.020050 0.857854 -0.055720
C30   C     C_R   0.451394 0.979388 0.142121 -0.055696
C31   C     C_R   0.949672 0.489131 0.641475 -0.039307
C32   C     C_R   0.050327 0.510874 0.358525 -0.039306
C33   C     C_R   0.618803 0.028324 0.882305 -0.134244
C34   C     C_R   0.381199 0.971668 0.117687 -0.134176
C35   C     C_R   0.881490 0.530473 0.617908 -0.136558
C36   C     C_R   0.118510 0.469528 0.382091 -0.136553
C37   C     C_R   0.642485 0.025011 0.952855 0.298946
C38   C     C_R   0.357514 0.975800 0.047156 0.298980
C39   C     C_R   0.860116 0.563711 0.548276 0.296193
C40   C     C_R   0.139883 0.436289 0.451724 0.296194
C41   C     C_R   0.595813 0.013139 0.001393 -0.020262
C42   C     C_R   0.404183 0.987225 0.998602 -0.020304
C43   C     C_R   0.906485 0.549565 0.499556 -0.020789
C44   C     C_R   0.093515 0.450441 0.500443 -0.020788
C45   C     C_R   0.524417 0.005776 0.976707 -0.007554
C46   C     C_R   0.475583 0.994221 0.023276 -0.007557
C47   C     C_R   0.975698 0.506804 0.523349 -0.007238
C48   C     C_R   0.024301 0.493202 0.476650 -0.007238
C49   C     C_R   0.501494 0.009791 0.905346 0.048211
C50   C     C_R   0.498506 0.989942 0.094631 0.048205
C51   C     C_R   0.996645 0.477195 0.593919 0.047768
C52   C     C_R   0.003354 0.522811 0.406080 0.047767
C53   C     C_R   0.617151 0.008120 0.073543 0.030390
C54   C     C_R   0.382844 0.992146 0.926451 0.030383
C55   C     C_R   0.886744 0.574350 0.427943 0.026902
C56   C     C_R   0.113256 0.425665 0.572056 0.026905
C57   C     C_R   0.568616 0.996576 0.117822 -0.066504
C58   C     C_R   0.431380 0.003209 0.882157 -0.066520
C59   C     C_R   0.935224 0.563035 0.383665 -0.066565
C60   C     C_R   0.064776 0.436978 0.616334 -0.066567
H9    H     H_    0.586958 0.992714 0.171966 0.087512
H10   H     H_    0.413039 0.006839 0.828008 0.087517
H11   H     H_    0.918359 0.586033 0.330115 0.084803
H12   H     H_    0.081641 0.413984 0.669884 0.084801
N1    N     N_R   0.061659 0.366348 0.950388 0.084735
O21   O     O_R   0.126149 0.335078 0.953535 -0.314432
O22   O     O_R   0.039982 0.528655 0.931864 -0.369295
N2    N     N_R   0.938369 0.633574 0.049585 0.084761
O23   O     O_R   0.873873 0.664786 0.046426 -0.314471
O24   O     O_R   0.960060 0.471279 0.068110 -0.369279
N3    N     N_R   0.446444 0.150482 0.568160 0.081488
O25   O     O_R   0.381240 0.170719 0.564802 -0.319841
O26   O     O_R   0.472760 0.997797 0.592098 -0.375763
N4    N     N_R   0.553547 0.849511 0.431856 0.081492
O27   O     O_R   0.618751 0.829280 0.435212 -0.319831
O28   O     O_R   0.527229 0.002198 0.407922 -0.375744
C61   C     C_3   0.523770 0.021609 0.781191 -0.344162
H13   H     H_    0.564842 0.027032 0.749008 0.107125
H14   H     H_    0.493069 0.893535 0.765227 0.140214
H15   H     H_    0.492491 0.144853 0.768796 0.128421
C62   C     C_3   0.476236 0.977175 0.218771 -0.344220
H16   H     H_    0.435161 0.971493 0.250944 0.106946
H17   H     H_    0.507489 0.853814 0.231017 0.128338
H18   H     H_    0.506957 0.105115 0.234883 0.140357
C63   C     C_3   0.973018 0.462747 0.717529 -0.361379
H19   H     H_    0.933108 0.483356 0.750296 0.105826
H20   H     H_    0.991447 0.320129 0.726010 0.120107
H21   H     H_    0.014412 0.565058 0.736471 0.136366
C64   C     C_3   0.026982 0.537260 0.282470 -0.361380
H22   H     H_    0.066892 0.516647 0.249703 0.105828
H23   H     H_    0.985587 0.434953 0.263528 0.136369
H24   H     H_    0.008555 0.679880 0.273989 0.120106
N5    N     N_R   0.714660 0.032560 0.973339 0.043340
O29   O     O_R   0.748649 0.882035 0.969862 -0.347336
O30   O     O_R   0.747022 0.191885 0.976081 -0.339796
N6    N     N_R   0.285333 0.970232 0.026725 0.043255
O31   O     O_R   0.251934 0.121734 0.030386 -0.346456
O32   O     O_R   0.252383 0.811794 0.023980 -0.340663
N7    N     N_R   0.790788 0.613506 0.528878 0.052273
O33   O     O_R   0.774952 0.786527 0.533028 -0.332883
O34   O     O_R   0.742873 0.486269 0.525487 -0.368806
N8    N     N_R   0.209209 0.386482 0.471121 0.052274
O35   O     O_R   0.225041 0.213457 0.466976 -0.332891
O36   O     O_R   0.257127 0.513709 0.474508 -0.368824
C65   C     C_3   0.690662 0.014473 0.107127 -0.284734
H25   H     H_    0.717367 0.892670 0.090504 0.186795
H26   H     H_    0.715953 0.146168 0.095724 0.179026
H27   H     H_    0.696035 0.009347 0.163799 0.089062
C66   C     C_3   0.309328 0.985907 0.892881 -0.284799
H28   H     H_    0.283981 0.854372 0.904401 0.178888
H29   H     H_    0.282678 0.107954 0.909407 0.186829
H30   H     H_    0.303947 0.990750 0.836205 0.089096
C67   C     C_3   0.814765 0.609109 0.394726 -0.276482
H31   H     H_    0.780007 0.494972 0.405795 0.178987
H32   H     H_    0.798218 0.745375 0.411811 0.184866
H33   H     H_    0.809824 0.613605 0.338063 0.087197
C68   C     C_3   0.185236 0.390924 0.605274 -0.276485
H34   H     H_    0.201786 0.254656 0.588195 0.184872
H35   H     H_    0.219992 0.505061 0.594199 0.178985
H36   H     H_    0.190179 0.386446 0.661937 0.087190

loop_
_geom_bond_atom_site_label_1
_geom_bond_atom_site_label_2
_geom_bond_distance
_ccdc_geom_bond_type
O17   V3    1.754941 S    
C24   H3    1.081017 S    
C39   C43   1.431258 A    
O1    C5    1.326065 A    
C55   C59   1.396471 A    
O19   V1    1.785022 S    
O13   V1    1.998338 S    
C56   C68   1.514967 S    
O3    C7    1.336970 A    
C60   H12   1.079993 S    
C40   C44   1.431257 A    
C29   C61   1.523783 S    
N6    O31   1.301373 A    
C13   N1    1.438176 S    
C67   H31   1.108880 S    
C68   H34   1.108082 S    
C5    C12   1.489200 S    
C45   C46   1.434569 A    
O7    C3    1.325505 A    
C6    C11   1.489218 S    
C65   H26   1.108143 S    
C59   H11   1.079991 S    
C50   C57   1.402531 A    
C9    C18   1.403066 A    
C32   C36   1.409965 A    
O9    V1    1.969591 S    
C17   H6    1.082966 S    
C14   C18   1.404241 A    
C68   H35   1.108877 S    
C31   C63   1.524242 S    
C33   C37   1.405839 A    
N4    O27   1.301356 A    
C20   H7    1.082867 S    
C32   C64   1.524241 S    
N1    O21   1.301189 A    
O1    V3    1.998949 S    
C12   C23   1.399658 A    
O2    V4    1.998951 S    
O3    V1    1.969940 S    
C32   C52   1.421679 A    
C64   H24   1.110633 S    
C61   H14   1.110449 S    
N1    O22   1.301335 A    
C1    O15   1.326225 A    
C56   C60   1.396467 A    
C2    O16   1.326226 A    
C38   C42   1.431470 A    
C37   C41   1.431439 A    
O14   V2    1.998338 S    
C52   C59   1.402817 A    
C45   C49   1.418468 A    
C44   C56   1.428525 A    
C16   C20   1.400711 A    
C48   C52   1.418202 A    
C62   H18   1.110396 S    
O11   C7    1.331240 A    
C15   C28   1.415593 A    
C30   C50   1.421710 A    
O15   V3    1.997053 S    
O12   C8    1.331231 A    
C13   C17   1.404240 A    
C9    C22   1.403482 A    
C10   C17   1.403062 A    
O10   V2    1.969589 S    
C11   C24   1.399681 A    
C18   H5    1.082967 S    
C67   H32   1.108087 S    
C58   H10   1.080057 S    
O5    V1    2.011009 S    
C65   H27   1.110842 S    
C31   C35   1.409963 A    
O7    V3    2.005820 S    
C30   C34   1.408807 A    
C27   C28   1.427360 A    
O8    V4    2.005819 S    
C30   C62   1.523717 S    
C14   N2    1.438190 S    
C54   C58   1.396725 A    
C61   H15   1.110528 S    
C14   C25   1.419475 A    
C53   C57   1.396662 A    
O18   V4    1.754941 S    
C23   C27   1.417150 A    
C4    C34   1.479458 S    
C31   C51   1.421680 A    
C36   C40   1.407065 A    
C66   H29   1.108361 S    
C1    C35   1.481033 S    
O5    C1    1.328713 A    
C51   C60   1.402817 A    
C46   C50   1.418454 A    
C40   N8    1.433611 S    
C21   C25   1.419221 A    
O8    C4    1.325528 A    
C7    C10   1.494015 S    
N2    O24   1.301351 A    
O9    C5    1.343237 A    
N3    O26   1.301593 A    
C10   C21   1.403493 A    
C42   C54   1.428480 A    
O11   V3    2.021257 S    
C11   C20   1.405173 A    
C41   C53   1.428495 A    
C64   H22   1.106393 S    
C19   H8    1.082911 S    
C49   C58   1.402591 A    
C68   H36   1.110883 S    
C43   C55   1.428525 A    
O6    V2    2.011008 S    
C21   H2    1.080796 S    
N5    O29   1.301351 A    
C63   H21   1.110565 S    
C4    O14   1.322576 A    
N7    O33   1.301335 A    
C53   C65   1.514449 S    
C67   H33   1.110883 S    
C16   N4    1.436928 S    
C62   H16   1.106724 S    
O16   V4    1.997053 S    
C38   N6    1.433198 S    
C3    O13   1.322560 A    
C55   C67   1.514968 S    
C44   C48   1.432188 A    
N7    O34   1.301503 A    
N6    O32   1.301428 A    
O6    C2    1.328712 A    
C15   C19   1.400730 A    
C15   N3    1.436925 S    
N8    O35   1.301333 A    
C66   H30   1.110808 S    
C2    C36   1.481032 S    
O12   V4    2.021257 S    
C16   C27   1.415581 A    
C65   H25   1.108216 S    
C22   C26   1.419223 A    
C8    C9    1.494005 S    
O2    C6    1.326085 A    
C63   H20   1.110632 S    
C29   C49   1.421709 A    
C66   H28   1.108342 S    
C47   C51   1.418203 A    
C13   C26   1.419461 A    
O10   C6    1.343227 A    
C34   C38   1.405788 A    
N4    O28   1.301602 A    
O4    C8    1.336976 A    
C22   H1    1.080796 S    
O20   V2    1.785020 S    
N2    O23   1.301190 A    
N8    O36   1.301501 A    
C35   C39   1.407067 A    
C57   H9    1.080049 S    
C64   H23   1.110566 S    
C37   N5    1.433277 S    
C47   C48   1.434571 A    
C29   C33   1.408857 A    
C24   C28   1.417170 A    
C39   N7    1.433610 S    
C25   C26   1.425854 A    
C42   C46   1.432248 A    
C61   H13   1.106746 S    
N3    O25   1.301358 A    
N5    O30   1.301478 A    
C41   C45   1.432246 A    
C12   C19   1.405192 A    
C63   H19   1.106392 S    
C43   C47   1.432189 A    
O4    V2    1.969940 S    
C3    C33   1.479353 S    
C54   C66   1.514444 S    
C23   H4    1.081013 S    
C62   H17   1.110483 S    
