data_mof_unit_40203.cif
_audit_creation_date              2012-12-11T14:06:43-0500
_audit_creation_method            fapswitch 2.2
_symmetry_space_group_name_H-M    P1
_symmetry_Int_Tables_number       1
_space_group_crystal_system       triclinic
_cell_length_a                    12.000723
_cell_length_b                    11.991773
_cell_length_c                    19.182104
_cell_angle_alpha                 89.123492
_cell_angle_beta                  90.05516
_cell_angle_gamma                 120.461976
_cell_volume                      2379.10043101

loop_
_atom_site_label
_atom_site_type_symbol
_atom_type_description
_atom_site_fract_x
_atom_site_fract_y
_atom_site_fract_z
_atom_type_partial_charge
C1    C     C_R   0.552291 0.475447 0.597052 0.548817
C2    C     C_R   0.462637 0.949627 0.102739 0.576600
C3    C     C_R   0.157038 0.560492 0.133313 0.602262
C4    C     C_R   0.485241 0.536067 0.102604 0.599195
C5    C     C_R   0.586018 0.452503 0.393491 0.620718
C6    C     C_R   0.526490 0.085494 0.398821 0.604094
C7    C     C_R   0.932802 0.454222 0.407032 0.599761
C8    C     C_1   0.033710 0.515351 0.859396 0.015911
C9    C     C_1   0.486758 0.520187 0.859601 0.026422
C10   C     C_1   0.481655 0.967851 0.859521 0.022860
C11   C     C_1   0.994104 0.494868 0.726405 -0.023700
C12   C     C_R   0.523326 0.075916 0.596734 0.544922
C13   C     C_1   0.503871 0.497480 0.726666 -0.024418
C14   C     C_1   0.500600 0.004850 0.726440 -0.024898
C15   C     C_1   0.012913 0.507059 0.798236 -0.026811
C16   C     C_1   0.493995 0.506480 0.798538 -0.024605
C17   C     C_1   0.494127 0.987808 0.798277 -0.026268
C18   C     C_1   0.970564 0.477875 0.665690 0.024611
C19   C     C_1   0.519725 0.489987 0.665839 0.020077
C20   C     C_1   0.507008 0.027622 0.665528 0.024369
C21   C     C_2   0.039942 0.527852 0.357412 0.142859
C22   C     C_2   0.565516 0.482021 0.320760 0.216819
C23   C     C_R   0.922829 0.446686 0.597016 0.550779
C24   C     C_2   0.506637 0.039674 0.325084 0.155186
C25   C     C_2   0.139502 0.558728 0.209646 -0.047571
C26   C     C_2   0.509680 0.471865 0.161423 -0.020066
C27   C     C_2   0.512798 0.041259 0.161304 -0.039405
C28   C     C_2   0.101457 0.455694 0.254027 0.210487
C29   C     C_2   0.622732 0.514282 0.193646 0.167624
C30   C     C_2   0.430242 0.062175 0.199929 0.163113
C31   C     C_2   0.169007 0.426657 0.378441 0.666840
C32   C     C_2   0.677358 0.372823 0.266666 0.526278
C33   C     C_2   0.336114 0.094470 0.308366 0.639753
C34   C     C_2   0.103715 0.473865 0.330704 0.031544
C35   C     C_2   0.620159 0.457611 0.264014 -0.035899
C36   C     C_2   0.433979 0.067877 0.278987 -0.010589
C37   C     C_R   0.452387 0.925441 0.929409 0.541830
C38   C     C_R   0.075482 0.527429 0.929292 0.580287
C39   C     C_R   0.473135 0.548496 0.929345 0.551930
Cr1   Cr    Cr6+3 0.468420 0.238090 0.499960 1.101822
Cr2   Cr    Cr6+3 0.761910 0.230330 0.499960 1.124441
Cr3   Cr    Cr6+3 0.769670 0.531580 0.499960 1.144034
Cr4   Cr    Cr6+3 0.515700 0.760130 0.026360 1.121020
Cr5   Cr    Cr6+3 0.239870 0.755570 0.026360 1.172301
Cr6   Cr    Cr6+3 0.244430 0.484300 0.026360 1.141546
H1    H     H_    0.173547 0.653280 0.231004 0.142788
H2    H     H_    0.309067 0.727215 0.404195 0.388868
H3    H     H_    0.646961 0.746593 0.238599 0.402829
H4    H     H_    0.409310 0.816709 0.249338 0.357896
H5    H     H_    0.424357 0.396974 0.187994 0.197270
H6    H     H_    0.606124 0.065155 0.180877 0.191117
H7    H     H_    0.984951 0.110896 0.274733 0.403400
H8    H     H_    0.883304 0.644522 0.243582 0.360303
H9    H     H_    0.122203 0.930764 0.201408 0.394568
H10   H     H_    0.220199 0.411113 0.476844 0.350137
H11   H     H_    0.742145 0.275936 0.322206 0.366037
H12   H     H_    0.287328 0.223308 0.334763 0.397669
O1    O     O_R   0.434830 0.101190 0.575190 -0.493292
O2    O     O_R   0.664850 0.560590 0.424150 -0.444344
O3    O     O_R   0.484380 0.363570 0.430280 -0.461136
O4    O     O_R   0.636430 0.120810 0.430280 -0.444486
O5    O     O_R   0.879190 0.515620 0.430280 -0.449194
O6    O     O_3   0.666667 0.333333 0.499980 -0.333911
O7    O     O_R   0.548200 0.655360 0.951320 -0.500499
O8    O     O_R   0.344640 0.892840 0.951320 -0.492849
O9    O     O_R   0.107160 0.451800 0.951320 -0.498961
O10   O     O_R   0.505020 0.871000 0.955840 -0.513073
O11   O     O_R   0.129000 0.634020 0.955840 -0.485602
O12   O     O_R   0.898810 0.333640 0.575190 -0.494077
O13   O     O_R   0.365980 0.494980 0.955840 -0.510195
O14   O     O_R   0.543640 0.655270 0.102360 -0.439242
O15   O     O_R   0.344730 0.888370 0.102360 -0.439316
O16   O     O_R   0.111630 0.456360 0.102360 -0.410053
O17   O     O_R   0.500790 0.870920 0.095850 -0.468844
O18   O     O_R   0.129080 0.629870 0.095850 -0.423220
O19   O     O_R   0.370130 0.499210 0.095850 -0.489437
O20   O     O_2   0.917918 0.257711 0.182023 -0.199906
O21   O     O_2   0.134501 0.284900 0.182202 -0.210500
O22   O     O_3   0.992709 0.190800 0.293845 -0.460005
O23   O     O_R   0.666360 0.565170 0.575190 -0.490636
O24   O     O_2   0.770019 0.568364 0.079196 -0.223606
O25   O     O_2   0.796278 0.753615 0.144286 -0.241713
O26   O     O_3   0.894797 0.622233 0.195724 -0.442775
O27   O     O_2   0.278017 0.173232 0.184296 -0.252604
O28   O     O_2   0.342258 0.111987 0.078882 -0.252569
O29   O     O_3   0.165632 0.930594 0.157591 -0.423684
O30   O     O_2   0.225631 0.375330 0.354759 -0.443107
O31   O     O_R   0.170617 0.445710 0.450328 -0.684785
O32   O     O_2   0.705437 0.340335 0.212309 -0.437530
O33   O     O_R   0.700037 0.329814 0.329640 -0.746903
O34   O     O_3   0.333333 0.666667 0.026340 -0.312012
O35   O     O_2   0.234255 0.005615 0.331286 -0.393830
O36   O     O_R   0.361595 0.220625 0.312037 -0.675093
O37   O     O_2   0.087706 0.756824 0.308451 -0.253554
O38   O     O_2   0.100142 0.738804 0.434742 -0.227241
O39   O     O_3   0.286412 0.753974 0.359832 -0.522548
O40   O     O_2   0.414419 0.567692 0.262909 -0.300769
O41   O     O_2   0.476740 0.620898 0.384301 -0.187737
O42   O     O_3   0.655125 0.739196 0.289483 -0.407604
O43   O     O_2   0.717997 0.043353 0.277782 -0.225989
O44   O     O_2   0.593363 0.887850 0.369936 -0.157716
O45   O     O_R   0.480130 0.360720 0.570290 -0.503102
O46   O     O_3   0.500265 0.838824 0.244538 -0.479222
O47   O     O_R   0.639280 0.119410 0.570290 -0.496097
O48   O     O_R   0.880590 0.519870 0.570290 -0.492491
O49   O     O_R   0.439410 0.104260 0.424150 -0.483474
O50   O     O_R   0.895740 0.335150 0.424150 -0.474313
S1    S     S_3+6 0.035530 0.294247 0.225431 0.108839
S2    S     S_3+6 0.772723 0.618328 0.150916 0.088987
S3    S     S_3+6 0.304215 0.074616 0.154051 0.072484
S4    S     S_3+6 0.127243 0.698380 0.365956 0.028923
S5    S     S_3+6 0.520812 0.601860 0.314462 0.098555
S6    S     S_3+6 0.583589 0.952189 0.304299 0.067291

loop_
_geom_bond_atom_site_label_1
_geom_bond_atom_site_label_2
_ccdc_geom_bond_type
C11   C18   T    
Cr3   O23   S    
Cr1   O3    S    
Cr3   O6    S    
O44   S6    D    
C23   O12   A    
Cr2   O4    S    
C25   C28   D    
C39   O7    A    
C24   C36   D    
Cr1   O6    S    
C30   S3    S    
Cr6   O19   S    
C6    O4    A    
C29   S2    S    
O46   S6    S    
C9    C16   T    
C12   O47   A    
C26   H5    S    
C10   C17   T    
C23   O48   A    
O37   S4    D    
C9    C39   S    
C33   C36   S    
O21   S1    D    
Cr6   O16   S    
H10   O31   S    
C11   C15   S    
C32   O33   S    
C5    C22   S    
C38   O9    A    
C37   O8    A    
Cr6   O34   S    
H2    O39   S    
O26   S2    S    
C2    C27   S    
H7    O22   S    
C3    O18   A    
Cr3   O5    S    
C2    O17   A    
C12   O1    A    
Cr4   O17   S    
H11   O33   S    
C28   C34   S    
C24   S6    S    
H12   O36   S    
C27   C30   D    
C14   C17   S    
Cr5   O8    S    
C8    C38   S    
C2    O15   A    
C21   S4    S    
C27   H6    S    
Cr4   O7    S    
O39   S4    S    
C1    C19   S    
C31   O30   D    
C5    O2    A    
C18   C23   S    
C32   C35   S    
C14   C20   T    
C3    C25   S    
Cr1   O1    S    
C25   H1    S    
O28   S3    D    
C33   O35   D    
H9    O29   S    
O40   S5    D    
C13   C19   T    
C21   C34   D    
C7    C21   S    
O27   S3    D    
Cr5   O18   S    
O25   S2    D    
C7    O5    A    
C22   C35   D    
C32   O32   D    
C6    C24   S    
C12   C20   S    
C6    O49   A    
C31   C34   S    
Cr5   O34   S    
C38   O11   A    
C8    C15   T    
C22   S5    S    
C10   C37   S    
C7    O50   A    
Cr5   O11   S    
Cr2   O6    S    
Cr1   O49   S    
H3    O42   S    
Cr4   O14   S    
C31   O31   S    
Cr2   O50   S    
C5    O3    A    
O29   S3    S    
Cr6   O13   S    
O20   S1    D    
O43   S6    D    
O24   S2    D    
C33   O36   S    
Cr3   O2    S    
H4    O46   S    
C4    C26   S    
C29   C35   S    
Cr2   O47   S    
C30   C36   S    
H8    O26   S    
O41   S5    D    
O38   S4    D    
C28   S1    S    
O42   S5    S    
C37   O10   A    
C39   O13   A    
O22   S1    S    
Cr5   O15   S    
C3    O16   A    
Cr3   O48   S    
Cr4   O34   S    
C4    O19   A    
Cr1   O45   S    
C26   C29   D    
Cr4   O10   S    
C13   C16   S    
Cr6   O9    S    
C1    O23   A    
Cr2   O12   S    
C1    O45   A    
C4    O14   A    
