data_mof_unit_37589.cif
_audit_creation_date              2013-03-05T16:22:00-0500
_audit_creation_method            fapswitch 2.2
_symmetry_space_group_name_H-M    P1
_symmetry_Int_Tables_number       1
_space_group_crystal_system       triclinic
_cell_length_a                    23.35123
_cell_length_b                    29.529884
_cell_length_c                    8.464852
_cell_angle_alpha                 89.998748
_cell_angle_beta                  93.168767
_cell_angle_gamma                 90.001062
_cell_volume                      5828.09130236

loop_
_atom_site_label
_atom_site_type_symbol
_atom_site_description
_atom_site_fract_x
_atom_site_fract_y
_atom_site_fract_z
_atom_type_partial_charge
P1    P     P_3+3 0.880180 0.450420 0.058010 0.529149
P2    P     P_3+3 0.880180 0.549580 0.558010 0.529110
P3    P     P_3+3 0.380180 0.950420 0.058010 0.529017
P4    P     P_3+3 0.380180 0.049580 0.558010 0.529170
O1    O     O_2   0.885810 0.435270 0.885040 -0.302820
O2    O     O_2   0.885810 0.564730 0.385040 -0.302885
O3    O     O_2   0.385810 0.935270 0.885040 -0.302969
O4    O     O_2   0.385810 0.064730 0.385040 -0.302780
O5    O     O_3   0.933490 0.477290 0.133000 -0.365497
O6    O     O_3   0.933490 0.522710 0.633000 -0.365456
O7    O     O_3   0.433490 0.977290 0.133000 -0.365398
O8    O     O_3   0.433490 0.022710 0.633000 -0.365503
O9    O     O_3   0.980190 0.395350 0.639000 -0.321097
O10   O     O_3   0.980190 0.604650 0.139000 -0.321211
O11   O     O_3   0.480190 0.895350 0.639000 -0.321395
O12   O     O_3   0.480190 0.104650 0.139000 -0.321054
O13   O     O_2   0.889281 0.351859 0.724245 -0.336897
O14   O     O_2   0.889294 0.648158 0.224283 -0.337260
O15   O     O_2   0.389339 0.851794 0.724371 -0.337948
O16   O     O_2   0.389278 0.148136 0.224223 -0.336786
O17   O     O_3   0.817376 0.484071 0.054622 -0.589157
O18   O     O_3   0.817378 0.515925 0.554620 -0.589127
O19   O     O_3   0.317382 0.984079 0.054617 -0.589077
O20   O     O_3   0.317375 0.015929 0.554618 -0.589162
O21   O     O_3   0.973260 0.298962 0.656995 -0.578185
O22   O     O_3   0.973260 0.701043 0.156767 -0.578500
O23   O     O_3   0.473327 0.798963 0.656550 -0.579176
O24   O     O_3   0.473257 0.201040 0.157014 -0.578068
H1    H     H_    0.030978 0.322031 0.489701 -0.101888
H2    H     H_    0.031036 0.677872 0.989790 -0.101143
H3    H     H_    0.531349 0.822398 0.490678 -0.098850
H4    H     H_    0.530941 0.178009 0.989573 -0.102250
C1    C     C_3   0.073196 0.282550 0.674323 -0.835344
C2    C     C_3   0.073179 0.717504 0.174158 -0.836195
C3    C     C_3   0.573160 0.782131 0.673982 -0.837505
C4    C     C_3   0.573206 0.217399 0.174346 -0.835166
H5    H     H_    0.087534 0.314359 0.731436 0.263400
H6    H     H_    0.087554 0.685737 0.231492 0.263475
H7    H     H_    0.587741 0.813697 0.732379 0.263663
H8    H     H_    0.587513 0.185561 0.231316 0.263382
H9    H     H_    0.062557 0.257318 0.765488 0.263727
H10   H     H_    0.062479 0.742764 0.265163 0.263659
H11   H     H_    0.562225 0.756705 0.764230 0.263336
H12   H     H_    0.562601 0.242609 0.265615 0.263766
P5    P     P_3+3 0.119600 0.450040 0.631910 0.489161
P6    P     P_3+3 0.119600 0.549960 0.131910 0.489166
P7    P     P_3+3 0.619600 0.950040 0.631910 0.489247
P8    P     P_3+3 0.619600 0.049960 0.131910 0.489145
P9    P     P_3+3 0.073653 0.354963 0.076104 0.447988
P10   P     P_3+3 0.073640 0.645054 0.576100 0.447897
P11   P     P_3+3 0.573598 0.854906 0.076053 0.447672
P12   P     P_3+3 0.573663 0.145029 0.576104 0.448034
O25   O     O_2   0.113920 0.434910 0.804950 -0.361264
O26   O     O_2   0.113920 0.565090 0.304950 -0.361272
O27   O     O_2   0.613920 0.934910 0.804950 -0.361264
O28   O     O_2   0.613920 0.065090 0.304950 -0.361262
O29   O     O_3   0.019410 0.395290 0.051170 -0.392270
O30   O     O_3   0.019410 0.604710 0.551170 -0.392617
O31   O     O_3   0.519410 0.895290 0.051170 -0.393393
O32   O     O_3   0.519410 0.104710 0.551170 -0.392143
O33   O     O_2   0.116287 0.362344 0.945961 -0.392211
O34   O     O_2   0.116249 0.637693 0.445878 -0.392294
O35   O     O_2   0.616162 0.862246 0.945696 -0.392614
O36   O     O_2   0.616303 0.137645 0.445981 -0.392155
O37   O     O_3   0.172553 0.492398 0.632262 -0.589146
O38   O     O_3   0.172548 0.507602 0.132239 -0.589194
O39   O     O_3   0.672551 0.992397 0.632239 -0.589194
O40   O     O_3   0.672552 0.007605 0.132240 -0.589183
O41   O     O_3   0.042465 0.302652 0.028990 -0.530421
O42   O     O_3   0.042443 0.697379 0.529141 -0.530362
O43   O     O_3   0.542376 0.802560 0.029306 -0.530104
O44   O     O_3   0.542481 0.197337 0.528954 -0.530456
C5    C     C_3   0.986981 0.302573 0.084501 0.523373
C6    C     C_3   0.986831 0.697336 0.583842 0.523994
C7    C     C_3   0.486484 0.802856 0.082157 0.526130
C8    C     C_3   0.487043 0.197456 0.584771 0.523002
H13   H     H_    0.959145 0.327599 0.018908 0.113544
H14   H     H_    0.959168 0.672307 0.517670 0.114175
H15   H     H_    0.459212 0.827891 0.014739 0.115442
H16   H     H_    0.459142 0.172431 0.519382 0.113336
H17   H     H_    0.987967 0.309921 0.213294 0.010674
H18   H     H_    0.987599 0.689917 0.712584 0.010507
H19   H     H_    0.486757 0.810422 0.210769 0.010263
H20   H     H_    0.488111 0.190131 0.713585 0.010726
C9    C     C_3   0.960615 0.256432 0.055484 -0.912310
C10   C     C_3   0.960374 0.743444 0.554787 -0.912203
C11   C     C_3   0.459845 0.756816 0.052925 -0.912138
C12   C     C_3   0.460707 0.243607 0.555782 -0.912237
H21   H     H_    0.918994 0.254889 0.111909 0.207273
H22   H     H_    0.918462 0.744751 0.609837 0.206820
H23   H     H_    0.417406 0.755945 0.105279 0.205841
H24   H     H_    0.419176 0.245221 0.612657 0.207450
H25   H     H_    0.954025 0.251039 0.926142 0.277017
H26   H     H_    0.954296 0.749032 0.425388 0.277328
H27   H     H_    0.454744 0.750872 0.923488 0.278017
H28   H     H_    0.453954 0.248940 0.426449 0.276875
C13   C     C_3   0.203177 0.500371 0.277846 0.325812
C14   C     C_3   0.203197 0.499610 0.777865 0.325658
C15   C     C_3   0.703182 0.000377 0.277849 0.325750
C16   C     C_3   0.703187 0.999617 0.777844 0.325808
H29   H     H_    0.203066 0.529375 0.360626 0.104910
H30   H     H_    0.203053 0.470612 0.860665 0.104989
H31   H     H_    0.703064 0.029379 0.360636 0.104949
H32   H     H_    0.703068 0.970610 0.860617 0.104874
H33   H     H_    0.184968 0.470227 0.334538 0.098331
H34   H     H_    0.185026 0.529770 0.834550 0.098321
H35   H     H_    0.684981 0.970229 0.334536 0.098336
H36   H     H_    0.684991 0.029763 0.834549 0.098351
C17   C     C_3   0.265058 0.490944 0.238898 -0.697218
C18   C     C_3   0.265090 0.508991 0.738920 -0.697185
C19   C     C_3   0.765067 0.990960 0.238907 -0.697216
C20   C     C_3   0.765071 0.009031 0.738894 -0.697216
H37   H     H_    0.282722 0.523480 0.200058 0.215223
H38   H     H_    0.282708 0.476441 0.700041 0.215268
H39   H     H_    0.782719 0.023499 0.200039 0.215283
H40   H     H_    0.782720 0.976492 0.700032 0.215264
H41   H     H_    0.265665 0.466843 0.137999 0.208498
H42   H     H_    0.265726 0.533100 0.638043 0.208542
H43   H     H_    0.765681 0.966853 0.138025 0.208497
H44   H     H_    0.765687 0.033139 0.638010 0.208496
Ba1   Ba    Ba6+2 0.999920 0.467660 0.844980 1.649093
Ba2   Ba    Ba6+2 0.999920 0.532340 0.344980 1.649026
Ba3   Ba    Ba6+2 0.499920 0.967660 0.844980 1.648827
Ba4   Ba    Ba6+2 0.499920 0.032340 0.344980 1.649092
C21   C     C_3   0.815383 0.517738 0.937274 0.791154
C22   C     C_3   0.815387 0.482258 0.437274 0.791063
C23   C     C_3   0.315394 0.017747 0.937271 0.791054
C24   C     C_3   0.315387 0.982257 0.437294 0.791084
H45   H     H_    0.841078 0.508548 0.836687 0.056975
H46   H     H_    0.841076 0.491453 0.336681 0.057008
H47   H     H_    0.341084 0.008552 0.836680 0.057004
H48   H     H_    0.341091 0.991440 0.336716 0.056956
C25   C     C_3   0.752829 0.524993 0.876002 -0.761965
C26   C     C_3   0.752832 0.474998 0.376018 -0.761934
C27   C     C_3   0.252841 0.025011 0.876010 -0.761859
C28   C     C_3   0.252837 0.975004 0.375988 -0.761808
H49   H     H_    0.735667 0.495817 0.807217 0.276295
H50   H     H_    0.735663 0.504173 0.307244 0.276299
H51   H     H_    0.235670 0.995840 0.807216 0.276307
H52   H     H_    0.235686 0.004176 0.307162 0.276284
H53   H     H_    0.749802 0.554746 0.796064 0.239591
H54   H     H_    0.749806 0.445246 0.296076 0.239604
H55   H     H_    0.249818 0.054767 0.796085 0.239575
H56   H     H_    0.249812 0.945244 0.296081 0.239579
H57   H     H_    0.725173 0.530989 0.976630 0.250678
H58   H     H_    0.725181 0.468995 0.476653 0.250671
H59   H     H_    0.225188 0.031008 0.976645 0.250681
H60   H     H_    0.225170 0.969017 0.476601 0.250680
H61   H     H_    0.937713 0.410739 0.335719 0.170347
H62   H     H_    0.937699 0.589257 0.835713 0.170366
H63   H     H_    0.437687 0.910750 0.335731 0.170415
H64   H     H_    0.437719 0.089264 0.835707 0.170340
O45   O     O_3   0.066460 0.522600 0.056690 -0.338289
O46   O     O_3   0.066460 0.477400 0.556690 -0.338301
O47   O     O_3   0.566460 0.022600 0.056690 -0.338289
O48   O     O_3   0.566460 0.977400 0.556690 -0.338266
P13   P     P_3+3 0.935467 0.651665 0.100061 0.508998
P14   P     P_3+3 0.935476 0.348329 0.600093 0.509250
P15   P     P_3+3 0.435478 0.151672 0.100086 0.509370
P16   P     P_3+3 0.435481 0.848331 0.600045 0.508271
C29   C     C_3   0.020984 0.292151 0.563541 0.836020
C30   C     C_3   0.021004 0.707803 0.063342 0.835814
C31   C     C_3   0.521103 0.792296 0.563177 0.835027
C32   C     C_3   0.520978 0.207864 0.063557 0.836157
H65   H     H_    0.109088 0.268856 0.608695 0.218975
H66   H     H_    0.109072 0.731198 0.108529 0.219212
H67   H     H_    0.609012 0.768457 0.608121 0.219584
H68   H     H_    0.609106 0.231096 0.108754 0.218920
H69   H     H_    0.878257 0.268556 0.543098 0.194485
H70   H     H_    0.878180 0.731414 0.043187 0.194338
H71   H     H_    0.378141 0.768596 0.543296 0.194035
H72   H     H_    0.378261 0.231441 0.043080 0.194529
H73   H     H_    0.989018 0.229350 0.105675 0.298027
H74   H     H_    0.988452 0.770542 0.606442 0.298123
H75   H     H_    0.487265 0.729690 0.107257 0.298234
H76   H     H_    0.489219 0.270685 0.605520 0.297998
C33   C     C_R   0.760473 0.285403 0.994531 -0.030228
C34   C     C_R   0.760471 0.714593 0.494491 -0.029952
C35   C     C_R   0.260450 0.785418 0.994553 -0.029671
C36   C     C_R   0.260472 0.214597 0.494525 -0.030273
C37   C     C_R   0.761341 0.326284 0.909574 -0.022648
C38   C     C_R   0.761362 0.673721 0.409493 -0.022647
C39   C     C_R   0.261324 0.826297 0.909580 -0.022595
C40   C     C_R   0.261343 0.173718 0.409563 -0.022659
C41   C     C_R   0.730143 0.329162 0.762054 -0.054471
C42   C     C_R   0.730210 0.670860 0.261902 -0.054810
C43   C     C_R   0.230152 0.829165 0.762020 -0.054618
C44   C     C_R   0.230147 0.170842 0.262040 -0.054502
C45   C     C_R   0.198955 0.792509 0.700474 -0.206107
C46   C     C_R   0.198926 0.207488 0.200524 -0.206378
C47   C     C_R   0.698922 0.292516 0.700537 -0.206357
C48   C     C_R   0.699016 0.707517 0.200347 -0.206293
C49   C     C_R   0.195437 0.752648 0.787707 0.123271
C50   C     C_R   0.195411 0.247349 0.287748 0.123454
C51   C     C_R   0.695410 0.252653 0.787755 0.123552
C52   C     C_R   0.695475 0.747369 0.287609 0.122682
C53   C     C_R   0.225504 0.749075 0.936067 0.029621
C54   C     C_R   0.225503 0.250932 0.436069 0.029954
C55   C     C_R   0.725506 0.249068 0.936071 0.029961
C56   C     C_R   0.725514 0.750932 0.436012 0.029514
C57   C     C_R   0.161481 0.716789 0.728827 -0.141562
C58   C     C_R   0.161441 0.283200 0.228886 -0.141982
C59   C     C_R   0.661438 0.216802 0.728896 -0.142222
C60   C     C_R   0.661532 0.783233 0.228705 -0.140024
C61   C     C_R   0.152902 0.677940 0.820786 -0.021739
C62   C     C_R   0.152874 0.322053 0.320826 -0.021705
C63   C     C_R   0.652876 0.177947 0.820829 -0.021687
C64   C     C_R   0.652915 0.822066 0.320707 -0.021844
C65   C     C_R   0.183326 0.673825 0.969609 -0.012555
C66   C     C_R   0.183310 0.326173 0.469625 -0.012510
C67   C     C_R   0.683319 0.173824 0.969619 -0.012451
C68   C     C_R   0.683302 0.826166 0.469592 -0.012854
C69   C     C_R   0.220582 0.709248 0.025104 -0.022395
C70   C     C_R   0.220577 0.290756 0.525104 -0.022081
C71   C     C_R   0.720586 0.209241 0.025098 -0.022114
C72   C     C_R   0.720562 0.790746 0.525089 -0.022156
C73   C     C_R   0.113642 0.643696 0.770403 0.194134
C74   C     C_R   0.113618 0.356299 0.270446 0.193702
C75   C     C_R   0.613620 0.143701 0.770454 0.193548
C76   C     C_R   0.613654 0.856308 0.270303 0.195055
C77   C     C_R   0.104192 0.606767 0.868693 -0.469288
C78   C     C_R   0.104171 0.393228 0.368724 -0.469088
C79   C     C_R   0.604171 0.106772 0.868734 -0.468970
C80   C     C_R   0.604201 0.893240 0.368599 -0.470000
C81   C     C_R   0.134529 0.601582 0.014456 0.198583
C82   C     C_R   0.134516 0.398415 0.514471 0.198589
C83   C     C_R   0.634519 0.101583 0.014471 0.198608
C84   C     C_R   0.634515 0.898414 0.514418 0.198725
C85   C     C_R   0.175745 0.634889 0.064544 -0.062392
C86   C     C_R   0.175730 0.365109 0.564552 -0.062537
C87   C     C_R   0.675740 0.134885 0.064542 -0.062592
C88   C     C_R   0.675705 0.865095 0.564544 -0.062070
C89   C     C_R   0.792260 0.281488 0.140293 -0.007636
C90   C     C_R   0.792229 0.718496 0.640299 -0.007792
C91   C     C_R   0.292210 0.781514 0.140358 -0.008002
C92   C     C_R   0.292260 0.218511 0.640285 -0.007603
C93   C     C_R   0.828512 0.317617 0.196325 -0.003301
C94   C     C_R   0.828478 0.682367 0.696340 -0.003836
C95   C     C_R   0.328442 0.817651 0.196425 -0.004674
C96   C     C_R   0.328517 0.182385 0.696309 -0.003178
C97   C     C_R   0.829877 0.359373 0.110248 -0.189430
C98   C     C_R   0.829862 0.640619 0.610233 -0.189428
C99   C     C_R   0.329832 0.859396 0.110301 -0.189521
C100  C     C_R   0.329881 0.140629 0.610235 -0.189415
C101  C     C_R   0.790584 0.364234 0.976071 0.373605
C102  C     C_R   0.790588 0.635764 0.476014 0.373659
C103  C     C_R   0.290556 0.864252 0.976090 0.373702
C104  C     C_R   0.290587 0.135768 0.476060 0.373576
H77   H     H_    0.729816 0.359350 0.690542 0.206301
H78   H     H_    0.729907 0.640680 0.190358 0.206385
H79   H     H_    0.229830 0.859350 0.690500 0.206314
H80   H     H_    0.229824 0.140656 0.190524 0.206306
H81   H     H_    0.176180 0.795876 0.585959 0.148340
H82   H     H_    0.176134 0.204114 0.086037 0.148372
H83   H     H_    0.676126 0.295893 0.586055 0.148349
H84   H     H_    0.676264 0.704157 0.085799 0.148467
H85   H     H_    0.073553 0.581098 0.829195 0.180035
H86   H     H_    0.073538 0.418899 0.329219 0.179976
H87   H     H_    0.573536 0.081101 0.829234 0.179956
H88   H     H_    0.573569 0.918911 0.329090 0.180195
H89   H     H_    0.140578 0.720487 0.612657 0.183609
H90   H     H_    0.140523 0.279495 0.112740 0.183554
H91   H     H_    0.640516 0.220511 0.612756 0.183545
H92   H     H_    0.640656 0.779548 0.112490 0.183637
C105  C     C_R   0.209481 0.630823 0.206640 -0.163026
C106  C     C_R   0.209461 0.369174 0.706645 -0.162961
C107  C     C_R   0.709477 0.130817 0.206625 -0.162973
C108  C     C_R   0.709425 0.869154 0.706666 -0.163010
C109  C     C_R   0.246832 0.665438 0.259911 0.120030
C110  C     C_R   0.246813 0.334562 0.759912 0.120197
C111  C     C_R   0.746829 0.165429 0.259892 0.120209
C112  C     C_R   0.746778 0.834543 0.759937 0.119974
C113  C     C_R   0.251702 0.705358 0.171401 0.005792
C114  C     C_R   0.251701 0.294647 0.671394 0.005678
C115  C     C_R   0.751712 0.205347 0.171383 0.005688
C116  C     C_R   0.751670 0.794631 0.671407 0.005797
C117  C     C_R   0.788210 0.241000 0.228456 -0.003362
C118  C     C_R   0.788170 0.758979 0.728476 -0.003274
C119  C     C_R   0.288182 0.741020 0.228490 -0.003089
C120  C     C_R   0.288204 0.258996 0.728458 -0.003375
C121  C     C_R   0.280464 0.659910 0.399619 -0.285853
C122  C     C_R   0.280409 0.340084 0.899668 -0.285922
C123  C     C_R   0.780428 0.159905 0.399644 -0.285907
C124  C     C_R   0.780388 0.840068 0.899676 -0.286056
C125  C     C_R   0.817868 0.194029 0.455495 0.004318
C126  C     C_R   0.817845 0.805951 0.955486 0.004219
C127  C     C_R   0.317914 0.694035 0.455415 0.004026
C128  C     C_R   0.317853 0.305963 0.955511 0.004336
C129  C     C_R   0.820518 0.235920 0.373344 0.072295
C130  C     C_R   0.820477 0.764056 0.873366 0.072244
C131  C     C_R   0.320498 0.735942 0.373365 0.072240
C132  C     C_R   0.320511 0.264075 0.873346 0.072276
C133  C     C_R   0.861127 0.312445 0.342221 0.003515
C134  C     C_R   0.861083 0.687534 0.842255 0.003824
C135  C     C_R   0.361052 0.812482 0.342332 0.004500
C136  C     C_R   0.361133 0.187557 0.842204 0.003429
C137  C     C_R   0.855260 0.272163 0.430088 -0.176012
C138  C     C_R   0.855203 0.727810 0.930141 -0.174959
C139  C     C_R   0.355183 0.772201 0.430210 -0.173188
C140  C     C_R   0.355262 0.227835 0.930076 -0.176238
C141  C     C_R   0.899126 0.347478 0.395713 0.210763
C142  C     C_R   0.899092 0.652506 0.895727 0.211353
C143  C     C_R   0.399065 0.847509 0.395780 0.212142
C144  C     C_R   0.399133 0.152525 0.895696 0.210653
C145  C     C_R   0.906471 0.385383 0.297812 -0.412546
C146  C     C_R   0.906451 0.614609 0.797813 -0.412792
C147  C     C_R   0.406429 0.885402 0.297853 -0.412984
C148  C     C_R   0.406477 0.114621 0.797797 -0.412551
C149  C     C_R   0.870584 0.393891 0.161852 0.198879
C150  C     C_R   0.870571 0.606104 0.661842 0.198772
C151  C     C_R   0.370554 0.893905 0.161877 0.198386
C152  C     C_R   0.370587 0.106110 0.661841 0.198927
H93   H     H_    0.207627 0.600758 0.277533 0.140815
H94   H     H_    0.207604 0.399236 0.777542 0.140859
H95   H     H_    0.707620 0.100753 0.277519 0.140855
H96   H     H_    0.707569 0.899215 0.777569 0.140834
H97   H     H_    0.278134 0.628460 0.465451 0.129932
H98   H     H_    0.278015 0.371514 0.965585 0.129785
H99   H     H_    0.778041 0.128472 0.465551 0.129796
H100  H     H_    0.778016 0.871505 0.965562 0.129844
C153  C     C_R   0.302567 0.472027 0.372985 0.221298
C154  C     C_R   0.349714 0.497054 0.436400 -0.146398
C155  C     C_R   0.388221 0.477670 0.549204 -0.106148
C156  C     C_R   0.379597 0.433437 0.601099 -0.143403
C157  C     C_R   0.332412 0.408654 0.540460 -0.139992
C158  C     C_R   0.294506 0.427461 0.424869 -0.123230
H101  H     H_    0.356799 0.531503 0.398745 0.108996
H102  H     H_    0.424430 0.497077 0.597348 0.123487
H103  H     H_    0.409159 0.418476 0.689238 0.117361
H104  H     H_    0.325900 0.374560 0.581337 0.131965
H105  H     H_    0.259458 0.407207 0.374387 0.108474
C159  C     C_R   0.302629 0.527870 0.873028 0.221329
C160  C     C_R   0.294597 0.572424 0.925069 -0.122902
C161  C     C_R   0.332525 0.591189 0.040707 -0.140142
C162  C     C_R   0.379708 0.566382 0.101208 -0.142967
C163  C     C_R   0.388299 0.522158 0.049173 -0.106003
C164  C     C_R   0.349767 0.502812 0.936348 -0.146429
H106  H     H_    0.259543 0.592696 0.874720 0.108376
H107  H     H_    0.325999 0.625253 0.081835 0.131514
H108  H     H_    0.409283 0.581310 0.189392 0.117012
H109  H     H_    0.424502 0.502729 0.097233 0.123352
H110  H     H_    0.356826 0.468369 0.898596 0.108937
C165  C     C_R   0.802583 0.972057 0.373010 0.221349
C166  C     C_R   0.849729 0.997093 0.436386 -0.146448
C167  C     C_R   0.888239 0.977724 0.549214 -0.106147
C168  C     C_R   0.879621 0.933496 0.601175 -0.143223
C169  C     C_R   0.832437 0.908705 0.540585 -0.140044
C170  C     C_R   0.794527 0.927496 0.424966 -0.123114
H111  H     H_    0.856810 0.031538 0.398682 0.108959
H112  H     H_    0.924447 0.997138 0.597326 0.123447
H113  H     H_    0.909185 0.918548 0.689340 0.117236
H114  H     H_    0.825917 0.874622 0.581558 0.131788
H115  H     H_    0.759475 0.907236 0.374534 0.108373
C171  C     C_R   0.802587 0.027933 0.872997 0.221306
C172  C     C_R   0.794540 0.072495 0.924929 -0.123152
C173  C     C_R   0.832450 0.091285 0.040547 -0.140085
C174  C     C_R   0.879625 0.066489 0.101167 -0.143329
C175  C     C_R   0.888235 0.022259 0.049229 -0.106145
C176  C     C_R   0.849725 0.002892 0.936396 -0.146450
H116  H     H_    0.759497 0.092759 0.874469 0.108468
H117  H     H_    0.825945 0.125375 0.081471 0.131929
H118  H     H_    0.909190 0.081436 0.189330 0.117340
H119  H     H_    0.924436 0.002841 0.097361 0.123470
H120  H     H_    0.856799 0.968445 0.898706 0.108979
N1    N     N_R   0.838001 0.559216 0.007440 0.197794
O49   O     O_R   0.888387 0.558068 0.078609 -0.336972
O50   O     O_R   0.808493 0.596682 0.005163 -0.429914
N2    N     N_R   0.838012 0.440781 0.507435 0.197794
O51   O     O_R   0.888400 0.441933 0.578586 -0.336966
O52   O     O_R   0.808509 0.403312 0.505167 -0.429782
N3    N     N_R   0.338023 0.059222 0.007433 0.197783
O53   O     O_R   0.388410 0.058067 0.078590 -0.336948
O54   O     O_R   0.308522 0.096691 0.005176 -0.429774
N4    N     N_R   0.337994 0.940780 0.507503 0.197819
O55   O     O_R   0.388382 0.941926 0.578659 -0.336936
O56   O     O_R   0.308478 0.903318 0.505259 -0.429906
N5    N     N_R   0.011534 0.252983 0.459608 0.205521
O57   O     O_R   0.050332 0.241857 0.362141 -0.447981
O58   O     O_R   0.968902 0.225591 0.477650 -0.432176
N6    N     N_R   0.011553 0.746889 0.959014 0.205493
O59   O     O_R   0.968823 0.774224 0.976414 -0.432563
O60   O     O_R   0.050383 0.757968 0.861588 -0.447954
N7    N     N_R   0.511506 0.753516 0.457509 0.205038
O61   O     O_R   0.550300 0.742648 0.359693 -0.448169
O62   O     O_R   0.468820 0.726102 0.474498 -0.433108
N8    N     N_R   0.511551 0.247077 0.959809 0.205587
O63   O     O_R   0.468898 0.274445 0.977852 -0.432135
O64   O     O_R   0.550361 0.258240 0.862421 -0.447946
N9    N     N_R   0.768809 0.407709 0.931294 0.230703
O65   O     O_R   0.725773 0.423660 0.005094 -0.424047
O66   O     O_R   0.778197 0.423492 0.792153 -0.386070
N10   N     N_R   0.768801 0.592293 0.431248 0.230723
O67   O     O_R   0.725770 0.576342 0.505079 -0.424185
O68   O     O_R   0.778183 0.576503 0.292116 -0.386052
N11   N     N_R   0.268780 0.907725 0.931302 0.230733
O69   O     O_R   0.225746 0.923680 0.005100 -0.424065
O70   O     O_R   0.278175 0.923510 0.792170 -0.386050
N12   N     N_R   0.268811 0.092293 0.431286 0.230711
O71   O     O_R   0.225775 0.076340 0.505089 -0.424032
O72   O     O_R   0.278198 0.076511 0.292146 -0.386043
C177  C     C_R   0.854503 0.183144 0.597415 0.148280
C178  C     C_R   0.897363 0.149936 0.589935 -0.047504
C179  C     C_R   0.929518 0.137234 0.726866 -0.065773
C180  C     C_R   0.917514 0.156370 0.872195 -0.068090
C181  C     C_R   0.872875 0.187685 0.880690 -0.142883
C182  C     C_R   0.842499 0.201916 0.743323 -0.154441
H121  H     H_    0.905977 0.134194 0.478094 0.104066
H122  H     H_    0.963118 0.112160 0.720678 0.115493
H123  H     H_    0.941918 0.146244 0.978749 0.124195
H124  H     H_    0.861720 0.200903 0.993821 0.128371
H125  H     H_    0.809097 0.226898 0.749967 0.126999
C183  C     C_R   0.854569 0.816864 0.097214 0.148073
C184  C     C_R   0.842555 0.798236 0.243347 -0.154814
C185  C     C_R   0.873007 0.812529 0.380520 -0.142413
C186  C     C_R   0.917718 0.843769 0.371619 -0.067879
C187  C     C_R   0.929748 0.862748 0.226047 -0.066649
C188  C     C_R   0.897528 0.849981 0.089298 -0.047272
H126  H     H_    0.809078 0.773329 0.250320 0.127021
H127  H     H_    0.861830 0.799443 0.493831 0.128291
H128  H     H_    0.942165 0.853953 0.478032 0.124154
H129  H     H_    0.963415 0.887755 0.219528 0.115641
H130  H     H_    0.906156 0.865610 0.977269 0.104250
C189  C     C_R   0.354754 0.683092 0.596899 0.147496
C190  C     C_R   0.397934 0.650181 0.588333 -0.046891
C191  C     C_R   0.430234 0.637316 0.724835 -0.068202
C192  C     C_R   0.418083 0.655992 0.870790 -0.067748
C193  C     C_R   0.373199 0.687051 0.880292 -0.141675
C194  C     C_R   0.342633 0.701432 0.743395 -0.155203
H131  H     H_    0.406648 0.634771 0.475999 0.104670
H132  H     H_    0.464056 0.612458 0.717824 0.115927
H133  H     H_    0.442586 0.645718 0.977010 0.124088
H134  H     H_    0.361944 0.699895 0.993880 0.128131
H135  H     H_    0.308967 0.726159 0.750871 0.126976
C195  C     C_R   0.354478 0.316844 0.097451 0.148348
C196  C     C_R   0.342496 0.298032 0.243317 -0.154395
C197  C     C_R   0.372869 0.312247 0.380706 -0.142992
C198  C     C_R   0.417488 0.343585 0.372269 -0.068073
C199  C     C_R   0.429467 0.362764 0.226984 -0.065561
C200  C     C_R   0.397311 0.350078 0.090035 -0.047545
H136  H     H_    0.309117 0.273027 0.249911 0.127006
H137  H     H_    0.361732 0.298994 0.493805 0.128385
H138  H     H_    0.441894 0.353695 0.478837 0.124188
H139  H     H_    0.463048 0.387855 0.220845 0.115424
H140  H     H_    0.405908 0.365849 0.978229 0.103993

loop_
_geom_bond_atom_site_label_1
_geom_bond_atom_site_label_2
_geom_bond_distance
_ccdc_geom_bond_type
C15   H31   1.106708 S    
C193  C194  1.393264 A    
C25   H49   1.102765 S    
C174  C175  1.396223 A    
C11   H23   1.108021 S    
C191  C192  1.396372 A    
C110  C114  1.404725 A    
C2    H10   1.110663 S    
C28   H52   1.102768 S    
C18   H42   1.112483 S    
C60   H92   1.078977 S    
C198  C199  1.396215 A    
C27   H51   1.102763 S    
C146  C150  1.408255 A    
C97   C101  1.427339 A    
O38   C13   1.406712 S    
O19   C23   1.404332 S    
C134  C138  1.413560 A    
C68   C88   1.419444 A    
C37   C101  1.412993 A    
C51   C59   1.398089 A    
C77   C81   1.396810 A    
C4    H68   1.107270 S    
C49   C57   1.398113 A    
C44   H80   1.077309 S    
C89   C93   1.426682 A    
C34   C56   1.420643 A    
C161  H107  1.078039 S    
P7    C84   1.863578 S    
C60   C64   1.406902 A    
C156  C157  1.396610 A    
C48   H84   1.084141 S    
O42   C6    1.402598 S    
C59   H91   1.078918 S    
C68   C72   1.423559 A    
C52   C60   1.398132 A    
C35   C39   1.405899 A    
C188  H130  1.083512 S    
C13   H33   1.107239 S    
H61   C145  1.081641 S    
C43   H79   1.077311 S    
P9    O41   1.744568 S    
C40   C104  1.413001 A    
C109  C121  1.392595 A    
P11   O43   1.745167 S    
C107  H95   1.073786 S    
C58   H90   1.078924 S    
C5    H17   1.110588 S    
N2    O51   1.292294 A    
P3    Ba3   3.447655 S    
H3    C31   1.113643 S    
Ba3   O48   2.978485 S    
C73   C77   1.396556 A    
C190  H131  1.083565 S    
C26   H58   1.111216 S    
O27   Ba3   2.869914 S    
O30   Ba2   2.780800 S    
Ba1   O46   2.978485 S    
C155  C156  1.396219 A    
N10   O68   1.296538 A    
C10   H22   1.107657 S    
C20   H44   1.112468 S    
C135  C139  1.413576 A    
P5    Ba1   3.448374 S    
C14   H30   1.106703 S    
C65   C69   1.423545 A    
C88   C108  1.406044 A    
C10   H74   1.108909 S    
C1    C29   1.523102 S    
C181  H124  1.079285 S    
P12   O44   1.744497 S    
P7    Ba3   3.448374 S    
C172  C173  1.397713 A    
C141  C145  1.408802 A    
C64   C68   1.416901 A    
C103  N11   1.424434 S    
C72   C116  1.405489 A    
C121  H97   1.085970 S    
C159  C160  1.403368 A    
C34   C38   1.405887 A    
Ba1   O45   2.819601 S    
O39   C16   1.406720 S    
C124  H100  1.085976 S    
P8    O47   1.584490 S    
N9    O65   1.300579 A    
C4    H12   1.110667 S    
C25   H57   1.111217 S    
H2    C30   1.113482 S    
N7    O61   1.300830 A    
C54   C70   1.404941 A    
C128  C132  1.422123 A    
C197  C198  1.398305 A    
P6    O45   1.584490 S    
C166  H111  1.081492 S    
O3    Ba3   2.868753 S    
C163  C164  1.397533 A    
C143  C147  1.408741 A    
C142  C146  1.408760 A    
C14   H34   1.107244 S    
C129  C137  1.411097 A    
C187  C188  1.397085 A    
C38   C102  1.413024 A    
O12   Ba4   2.779023 S    
C91   C119  1.415295 A    
O11   P16   1.757402 S    
O14   P13   1.550574 D    
C181  C182  1.393056 A    
C79   H87   1.082479 S    
C94   C134  1.422878 A    
C70   C114  1.405472 A    
C19   C165  1.502566 S    
P15   C144  1.884662 S    
P10   O42   1.744767 S    
P16   C143  1.884370 S    
C23   H47   1.102315 S    
C36   C54   1.420640 A    
C41   H77   1.077307 S    
C162  C163  1.396226 A    
C108  H96   1.073786 S    
C21   H45   1.102320 S    
C21   N1    1.448205 S    
C36   C92   1.409058 A    
C153  C154  1.407515 A    
P7    O48   1.584499 S    
C5    H13   1.112225 S    
P6    Ba2   3.448346 S    
C45   H81   1.084143 S    
P5    O46   1.584499 S    
N1    O49   1.292293 A    
C7    H15   1.112484 S    
C36   C40   1.405889 A    
N6    O59   1.298129 A    
C112  C124  1.392533 A    
C83   C87   1.424122 A    
C90   C118  1.415298 A    
O7    Ba4   2.821529 S    
C96   C100  1.433486 A    
C177  C178  1.405122 A    
Ba3   Ba4   4.643397 S    
N8    O64   1.300817 A    
C61   C73   1.414812 A    
C173  H117  1.078103 S    
C55   C71   1.404936 A    
O15   P16   1.550585 D    
C183  C184  1.396348 A    
C90   C94   1.426683 A    
C79   C83   1.396744 A    
C117  C129  1.411933 A    
C125  C129  1.422117 A    
P9    O29   1.742863 S    
P4    Ba4   3.447682 S    
C19   H43   1.112470 S    
C167  H112  1.082274 S    
N4    O55   1.292291 A    
H70   C138  1.076168 S    
O23   C31   1.416189 S    
C169  H114  1.078091 S    
C9    H25   1.108668 S    
C97   C149  1.444794 A    
C108  C112  1.401880 A    
O21   C29   1.416213 S    
C11   H27   1.109538 S    
C191  H132  1.082274 S    
C176  H120  1.081495 S    
C3    H11   1.110886 S    
C18   H38   1.102933 S    
C164  H110  1.081490 S    
C126  C183  1.471333 S    
P5    O25   1.544076 D    
C63   C67   1.416853 A    
C128  C195  1.471295 S    
C100  C152  1.444809 A    
C51   C55   1.408456 A    
C16   H36   1.107243 S    
C42   H78   1.077303 S    
P1    O5    1.579502 S    
C175  H119  1.082272 S    
P3    O7    1.579502 S    
C180  C181  1.398295 A    
C34   C90   1.409051 A    
C85   C105  1.406071 A    
C161  C162  1.396602 A    
C156  H103  1.082325 S    
C82   C86   1.424129 A    
N9    O66   1.296549 A    
P2    O18   1.770443 S    
O9    Ba1   2.779068 S    
C62   C66   1.416854 A    
C111  C123  1.392479 A    
C15   C19   1.525424 S    
C110  C122  1.392468 A    
C5    C9    1.509694 S    
C28   H60   1.111218 S    
C93   C133  1.422882 A    
C7    C11   1.509795 S    
C190  C191  1.397141 A    
C127  C189  1.471359 S    
C27   H59   1.111217 S    
P5    O37   1.758719 S    
Ba2   O45   2.978501 S    
N12   O72   1.296548 A    
P4    O8    1.579511 S    
C133  C141  1.420631 A    
C20   H40   1.102890 S    
C135  C143  1.420595 A    
C178  C179  1.397055 A    
C86   C106  1.405990 A    
C136  C144  1.420632 A    
P12   C75   1.846318 S    
C91   C95   1.426677 A    
C92   C120  1.415329 A    
C1    H65   1.107281 S    
C8    H16   1.112229 S    
C116  C118  1.422215 A    
C2    C30   1.523180 S    
C159  C164  1.407549 A    
C95   C99   1.433426 A    
C11   H75   1.109309 S    
P10   C73   1.846475 S    
C12   H76   1.108562 S    
C93   C97   1.433476 A    
C101  N9    1.424439 S    
C124  C126  1.399136 A    
C13   C17   1.525420 S    
C122  H98   1.085979 S    
C50   C54   1.408452 A    
O8    Ba3   2.821518 S    
C33   C37   1.405884 A    
H4    C32   1.113444 S    
C56   C72   1.404949 A    
P6    C81   1.863350 S    
C105  H93   1.073798 S    
C199  H139  1.082188 S    
C47   C51   1.394316 A    
N5    O58   1.298233 A    
C197  H137  1.079281 S    
C45   C49   1.394338 A    
C144  C148  1.408812 A    
C166  C167  1.397506 A    
C171  C172  1.403353 A    
C33   C55   1.420632 A    
Ba4   O47   2.978501 S    
O21   P14   1.757457 S    
O20   C24   1.404328 S    
C57   C61   1.406884 A    
C148  C152  1.408315 A    
C194  H135  1.077367 S    
C12   H28   1.108661 S    
C121  C127  1.399163 A    
C184  C185  1.393118 A    
C14   C18   1.525430 S    
C87   C107  1.405995 A    
C130  C138  1.411065 A    
P13   C142  1.884516 S    
C8    H20   1.110562 S    
N2    O52   1.302982 A    
C195  C196  1.396275 A    
C17   H41   1.112467 S    
Ba3   O47   2.819601 S    
P1    O17   1.770436 S    
C98   C102  1.427321 A    
C71   C115  1.405475 A    
P1    O1    1.543541 D    
O28   Ba4   2.869878 S    
C23   C27   1.537807 S    
O37   C14   1.406761 S    
P6    O38   1.758669 S    
P3    O3    1.543541 D    
C24   C28   1.537795 S    
C162  H108  1.082353 S    
P4    O20   1.770431 S    
C192  C193  1.398409 A    
C22   H46   1.102318 S    
N3    O53   1.292286 A    
C50   C58   1.398090 A    
C80   C84   1.396928 A    
C23   N3    1.448208 S    
C38   C42   1.413038 A    
C105  C109  1.401928 A    
C199  C200  1.397054 A    
C107  C111  1.401875 A    
H64   C148  1.081643 S    
C99   C151  1.444775 A    
O41   C5    1.402404 S    
C32   N8    1.462575 S    
C177  C182  1.396279 A    
P4    O4    1.543521 D    
C22   N2    1.448219 S    
C154  C155  1.397497 A    
O43   C7    1.402922 S    
C6    H18   1.110750 S    
C41   C47   1.389882 A    
P2    Ba2   3.447682 S    
O31   Ba3   2.780754 S    
C118  C130  1.411930 A    
P9    O33   1.540609 D    
C126  C130  1.422063 A    
O10   P13   1.757484 S    
P10   O30   1.742967 S    
C154  H101  1.081491 S    
C168  H113  1.082329 S    
C102  N10   1.424444 S    
C18   C159  1.502618 S    
P12   O36   1.540602 D    
C169  C170  1.397726 A    
C9    H21   1.107293 S    
O4    Ba4   2.868793 S    
C98   C150  1.444796 A    
O22   C30   1.416215 S    
C47   H83   1.084142 S    
C100  C104  1.427341 A    
C3    C31   1.523636 S    
C3    H7    1.100268 S    
P8    Ba4   3.448346 S    
C39   C43   1.413037 A    
C26   H54   1.108831 S    
C160  C161  1.397768 A    
C48   C52   1.394342 A    
H62   C146  1.081643 S    
P6    O26   1.544096 D    
O5    Ba2   2.821529 S    
C66   C86   1.419434 A    
P11   O35   1.540686 D    
C157  H104  1.078096 S    
C39   C103  1.413017 A    
P8    O40   1.758684 S    
Ba1   Ba2   4.643397 S    
O10   Ba2   2.779023 S    
C120  C132  1.411926 A    
C16   C20   1.525410 S    
C99   C103  1.427302 A    
C182  H125  1.077335 S    
C185  C186  1.398354 A    
C132  C140  1.411102 A    
C20   C171  1.502546 S    
C180  H123  1.082054 S    
O17   C21   1.404331 S    
C84   C88   1.424139 A    
C53   C69   1.404980 A    
N6    O60   1.300773 A    
C196  H136  1.077340 S    
P1    C149  1.905536 S    
H71   C139  1.076268 S    
C115  C117  1.422216 A    
P3    C151  1.905380 S    
N10   O67   1.300577 A    
N11   O69   1.300577 A    
C15   H35   1.107235 S    
C193  H134  1.079524 S    
C25   H53   1.108830 S    
C109  C113  1.404751 A    
P9    C74   1.846358 S    
C1    H9    1.110674 S    
N8    O63   1.298226 A    
C67   C87   1.419420 A    
C28   H56   1.108831 S    
O25   Ba1   2.869914 S    
C200  H140  1.083461 S    
P4    C152  1.905571 S    
C7    H19   1.111054 S    
C160  H106  1.082355 S    
C179  H122  1.082184 S    
C147  C151  1.408216 A    
P5    C82   1.863323 S    
C133  C137  1.413554 A    
C157  C158  1.397700 A    
C1    H5    1.100121 S    
C134  C142  1.420626 A    
C75   C79   1.396501 A    
C178  H121  1.083460 S    
C136  C140  1.413552 A    
C6    H14   1.112326 S    
C46   H82   1.084142 S    
C186  H128  1.082071 S    
C2    H66   1.107286 S    
C184  H126  1.077341 S    
C64   C76   1.414835 A    
C67   C71   1.423542 A    
C165  C166  1.407524 A    
H72   C140  1.076106 S    
C122  C128  1.399118 A    
C123  C125  1.399124 A    
P3    O19   1.770451 S    
C179  C180  1.396211 A    
C52   C56   1.408456 A    
O6    Ba1   2.821518 S    
C104  N12   1.424444 S    
C62   C74   1.414784 A    
C111  C115  1.404726 A    
C113  C119  1.422195 A    
O11   Ba3   2.779068 S    
C114  C120  1.422223 A    
C44   C46   1.389893 A    
C106  H94   1.073786 S    
C57   H89   1.078941 S    
N1    O50   1.302982 A    
C125  C177  1.471303 S    
C145  C149  1.408304 A    
O18   C22   1.404334 S    
C95   C135  1.422884 A    
C78   C82   1.396770 A    
C171  C176  1.407518 A    
C96   C136  1.422879 A    
O1    Ba1   2.868753 S    
O22   P13   1.757415 S    
C155  H102  1.082269 S    
O32   Ba4   2.780800 S    
C10   H26   1.109036 S    
C16   H32   1.106715 S    
C12   H24   1.107336 S    
N3    O54   1.302986 A    
O16   P15   1.550572 D    
C9    H73   1.108535 S    
P12   O32   1.742856 S    
C8    C12   1.509672 S    
P14   C141  1.884630 S    
C195  C200  1.405134 A    
C112  C116  1.404719 A    
C80   H88   1.082470 S    
C172  H116  1.082346 S    
O26   Ba2   2.869878 S    
C165  C170  1.403361 A    
O12   P15   1.757465 S    
C40   C44   1.413045 A    
Ba2   O46   2.819589 S    
P2    O2    1.543521 D    
C77   H85   1.082474 S    
C24   H48   1.102331 S    
C22   C26   1.537799 S    
P7    O39   1.758674 S    
H63   C147  1.081648 S    
C170  H115  1.082345 S    
C74   C78   1.396535 A    
P1    Ba1   3.447655 S    
C192  H133  1.082110 S    
C4    C32   1.523063 S    
H1    C29   1.113446 S    
C4    H8    1.100124 S    
C35   C91   1.409042 A    
C106  C110  1.401871 A    
C189  C190  1.405172 A    
P8    C83   1.863250 S    
C37   C41   1.413045 A    
C33   C89   1.409063 A    
C35   C53   1.420617 A    
O23   P16   1.757367 S    
C66   C70   1.423548 A    
C59   C63   1.406856 A    
O24   P15   1.757471 S    
C92   C96   1.426689 A    
N7    O62   1.298229 A    
C17   C153  1.502526 S    
C163  H109  1.082287 S    
C3    H67   1.107401 S    
C186  C187  1.396304 A    
C61   C65   1.416890 A    
C24   N4    1.448209 S    
O44   C8    1.402389 S    
C65   C85   1.419446 A    
C187  H129  1.082235 S    
C6    C10   1.509730 S    
C29   N5    1.462561 S    
O13   P14   1.550572 D    
N5    O57   1.300814 A    
C78   H86   1.082474 S    
C123  H99   1.085978 S    
C185  H127  1.079394 S    
C69   C113  1.405487 A    
C183  C188  1.405170 A    
C119  C131  1.411921 A    
Ba4   O48   2.819589 S    
P2    C150  1.905452 S    
P10   O34   1.540643 D    
C127  C131  1.421978 A    
P11   O31   1.743046 S    
O2    Ba2   2.868793 S    
P2    O6    1.579511 S    
O9    P14   1.757451 S    
C76   C80   1.396703 A    
C131  C139  1.411008 A    
O24   C32   1.416221 S    
P7    O27   1.544076 D    
C21   C25   1.537804 S    
C174  H118  1.082328 S    
P8    O28   1.544096 D    
C2    H6    1.100091 S    
C26   H50   1.102764 S    
C198  H138  1.082054 S    
C189  C194  1.396436 A    
C17   H37   1.102863 S    
P11   C76   1.846694 S    
C89   C117  1.415325 A    
C94   C98   1.433452 A    
C63   C75   1.414783 A    
C30   N6    1.462607 S    
O40   C15   1.406724 S    
C31   N7    1.462739 S    
N11   O70   1.296533 A    
C168  C169  1.396609 A    
C49   C53   1.408451 A    
C27   H55   1.108832 S    
C173  C174  1.396614 A    
N4    O56   1.302984 A    
C153  C158  1.403339 A    
C42   C48   1.389930 A    
C175  C176  1.397503 A    
C43   C45   1.389909 A    
C46   C50   1.394321 A    
O29   Ba1   2.780754 S    
C196  C197  1.393041 A    
C81   C85   1.424165 A    
C58   C62   1.406864 A    
C158  H105  1.082339 S    
N12   O71   1.300578 A    
C19   H39   1.102902 S    
C167  C168  1.396227 A    
H69   C137  1.076120 S    
C13   H29   1.106711 S    
