data_mof_unit_41238.cif
_audit_creation_date              2013-03-05T16:40:15-0500
_audit_creation_method            fapswitch 2.2
_symmetry_space_group_name_H-M    P1
_symmetry_Int_Tables_number       1
_space_group_crystal_system       triclinic
_cell_length_a                    19.254192
_cell_length_b                    18.755549
_cell_length_c                    8.881797
_cell_angle_alpha                 90.001223
_cell_angle_beta                  91.450227
_cell_angle_gamma                 90.001904
_cell_volume                      3206.39327991

loop_
_atom_site_label
_atom_site_type_symbol
_atom_site_description
_atom_site_fract_x
_atom_site_fract_y
_atom_site_fract_z
_atom_type_partial_charge
O1    O     O_R   0.398180 0.560840 0.499960 -0.614500
O2    O     O_R   0.601820 0.439160 0.500040 -0.571080
O3    O     O_R   0.601820 0.560840 0.500040 -0.614527
O4    O     O_R   0.398180 0.439160 0.499960 -0.571109
C1    C     C_R   0.366392 0.499921 0.499602 0.798200
C2    C     C_R   0.633608 0.499923 0.500405 0.798171
O5    O     O_R   0.500000 0.560800 0.285330 -0.569809
O6    O     O_R   0.500000 0.439200 0.714670 -0.618959
O7    O     O_R   0.500000 0.560800 0.714670 -0.569817
O8    O     O_R   0.500000 0.439200 0.285330 -0.618946
C3    C     C_R   0.499729 0.500000 0.218992 0.910825
C4    C     C_R   0.500271 0.500001 0.781008 0.910750
Zn1   Zn    Zn3+2 0.500000 0.581210 0.500000 1.028906
Zn2   Zn    Zn3+2 0.500000 0.418790 0.500000 1.023294
C5    C     C_1   0.499892 0.499973 0.065503 -0.149599
C6    C     C_1   0.500108 0.499974 0.934497 -0.149619
C7    C     C_R   0.742880 0.481392 0.366704 -0.037688
C8    C     C_R   0.253783 0.516959 0.366096 -0.054412
C9    C     C_R   0.257139 0.481403 0.633393 -0.037553
C10   C     C_R   0.746199 0.516943 0.634009 -0.054262
C11   C     C_R   0.815230 0.482617 0.367970 -0.031220
C12   C     C_R   0.181535 0.517954 0.369043 -0.043679
C13   C     C_R   0.184789 0.482640 0.632183 -0.031190
C14   C     C_R   0.818449 0.517922 0.631118 -0.043594
H1    H     H_    0.843270 0.469455 0.267344 0.172687
H2    H     H_    0.151042 0.530784 0.268358 0.170497
H3    H     H_    0.156762 0.469481 0.732827 0.172687
H4    H     H_    0.848931 0.530744 0.731823 0.170538
C15   C     C_R   0.852266 0.500960 0.499074 0.133079
C16   C     C_R   0.147736 0.500987 0.501106 0.133106
C17   C     C_R   0.708516 0.499549 0.500298 -0.174953
C18   C     C_R   0.291484 0.499544 0.499765 -0.174951
C19   C     C_R   0.963517 0.566929 0.498095 -0.095573
C20   C     C_R   0.036440 0.435174 0.498963 -0.099864
C21   C     C_R   0.036479 0.566936 0.502148 -0.095588
C22   C     C_R   0.963569 0.435167 0.501256 -0.099869
C23   C     C_R   0.072222 0.501053 0.501098 0.030805
C24   C     C_R   0.927781 0.501039 0.499124 0.030805
C25   C     C_R   0.559082 0.727401 0.538524 0.119452
C26   C     C_R   0.483505 0.272609 0.371073 0.113407
C27   C     C_R   0.440918 0.727395 0.461472 0.119363
C28   C     C_R   0.516495 0.272612 0.628926 0.113381
C29   C     C_R   0.561383 0.802008 0.521889 -0.317503
C30   C     C_R   0.491684 0.198047 0.366459 -0.318835
C31   C     C_R   0.438615 0.802002 0.478111 -0.317485
C32   C     C_R   0.508314 0.198050 0.633540 -0.318845
H5    H     H_    0.610727 0.829098 0.536413 0.168178
H6    H     H_    0.486781 0.171076 0.259026 0.164260
H7    H     H_    0.389271 0.829088 0.463584 0.168180
H8    H     H_    0.513216 0.171081 0.740972 0.164260
C33   C     C_R   0.499998 0.841485 0.500001 0.089032
C34   C     C_R   0.499999 0.158497 0.499999 0.095838
N1    N     N_R   0.500000 0.689440 0.500000 -0.103865
N2    N     N_R   0.500000 0.310560 0.500000 -0.105946
C35   C     C_R   0.458148 0.962047 0.394289 -0.032962
C36   C     C_R   0.546800 0.037781 0.595527 -0.036026
C37   C     C_R   0.541848 0.962052 0.605712 -0.032957
C38   C     C_R   0.453197 0.037776 0.404472 -0.036019
C39   C     C_R   0.499999 0.076924 0.499999 -0.078375
C40   C     C_R   0.499998 0.922979 0.500001 -0.079453
C41   C     C_2   0.704144 0.461509 0.225743 0.491640
H9    H     H_    0.648106 0.466243 0.217604 0.033072
O9    O     O_2   0.734538 0.439009 0.116451 -0.524082
C42   C     C_2   0.288855 0.531727 0.222159 0.569139
H10   H     H_    0.343796 0.520944 0.210874 0.077372
O10   O     O_2   0.256663 0.556267 0.113832 -0.529700
C43   C     C_2   0.295893 0.461531 0.774336 0.491298
H11   H     H_    0.351939 0.466173 0.782371 0.033184
O11   O     O_2   0.265506 0.439151 0.883738 -0.524329
C44   C     C_2   0.711107 0.531696 0.777932 0.568840
H12   H     H_    0.656123 0.521077 0.789056 0.077446
O12   O     O_2   0.743336 0.556013 0.886458 -0.529785
C45   C     C_2   0.925120 0.636182 0.497422 0.386163
H13   H     H_    0.946113 0.681611 0.558941 0.080045
O13   O     O_2   0.870759 0.643806 0.425431 -0.536483
C46   C     C_2   0.074757 0.365880 0.498732 0.390907
H14   H     H_    0.055131 0.320565 0.560523 0.080061
O14   O     O_2   0.127379 0.358074 0.426640 -0.522233
C47   C     C_2   0.074869 0.636195 0.502837 0.386233
H15   H     H_    0.053869 0.681625 0.441337 0.080039
O15   O     O_2   0.129233 0.643824 0.574817 -0.536423
C48   C     C_2   0.925260 0.365866 0.501477 0.390968
H16   H     H_    0.944894 0.320553 0.439694 0.080055
O16   O     O_2   0.872632 0.358053 0.573550 -0.522177
C49   C     C_2   0.619676 0.693949 0.612440 0.470749
H17   H     H_    0.671662 0.706623 0.576242 0.065572
O17   O     O_2   0.612293 0.656481 0.723056 -0.548737
C50   C     C_2   0.450939 0.305920 0.237330 0.486455
H18   H     H_    0.468150 0.291767 0.125846 0.017209
O18   O     O_2   0.400607 0.344833 0.249653 -0.523944
C51   C     C_2   0.380329 0.693938 0.387530 0.470850
H19   H     H_    0.328339 0.706615 0.423695 0.065594
O19   O     O_2   0.387721 0.656462 0.276926 -0.548566
C52   C     C_2   0.549062 0.305927 0.762670 0.486488
H20   H     H_    0.531851 0.291774 0.874154 0.017204
O20   O     O_2   0.599395 0.344842 0.750346 -0.523900
C53   C     C_2   0.421569 0.923216 0.269703 0.477878
H21   H     H_    0.449520 0.883667 0.205730 0.072180
O21   O     O_2   0.359527 0.931606 0.243800 -0.510744
C54   C     C_2   0.602664 0.076427 0.680477 0.483214
H22   H     H_    0.633686 0.115789 0.622974 0.082570
O22   O     O_2   0.611552 0.068124 0.815953 -0.517726
C55   C     C_2   0.578427 0.923226 0.730300 0.477875
H23   H     H_    0.550476 0.883677 0.794273 0.072184
O23   O     O_2   0.640469 0.931621 0.756202 -0.510756
C56   C     C_2   0.397334 0.076417 0.319520 0.483206
H24   H     H_    0.366312 0.115778 0.377022 0.082559
O24   O     O_2   0.388446 0.068110 0.184045 -0.517734

loop_
_geom_bond_atom_site_label_1
_geom_bond_atom_site_label_2
_geom_bond_distance
_ccdc_geom_bond_type
C20   C23   1.414573 A    
C45   H13   1.084769 S    
O3    C2    1.296122 A    
C8    C42   1.486857 S    
C53   H21   1.085445 S    
C49   H17   1.085379 S    
O5    C3    1.283499 A    
O1    C1    1.296122 A    
C21   C23   1.414550 A    
C46   O14   1.221012 D    
C56   H24   1.085390 S    
C31   C33   1.404045 A    
C5    C6    1.163676 T    
C32   C34   1.404660 A    
C36   C37   1.426555 A    
C28   C32   1.408008 A    
C41   O9    1.221297 D    
O7    Zn1   1.944712 S    
C14   C15   1.392563 A    
C7    C41   1.488461 S    
C3    C5    1.363346 S    
C4    C6    1.363347 S    
C22   C48   1.494487 S    
C15   C24   1.453962 S    
C9    C43   1.488473 S    
C44   H12   1.084204 S    
C13   H3    1.084251 S    
C26   C30   1.408008 A    
C41   H9    1.083206 S    
O3    Zn1   1.997345 S    
C1    C18   1.442338 S    
C30   C34   1.404661 A    
C2    C17   1.442335 S    
C28   C52   1.468651 S    
C35   C40   1.424615 A    
C45   O13   1.221036 D    
C10   C44   1.486891 S    
O2    C2    1.293552 A    
C9    C18   1.414713 A    
C53   O21   1.220979 D    
Zn1   N1    2.029911 S    
C49   O17   1.219177 D    
C37   C55   1.487077 S    
C43   H11   1.083166 S    
C13   C16   1.393096 A    
C10   C14   1.392132 A    
C46   H14   1.084812 S    
O8    Zn2   1.944713 S    
C51   H19   1.085386 S    
C47   O15   1.221040 D    
C37   C40   1.424612 A    
C25   C29   1.407899 A    
C38   C39   1.425569 A    
C11   C15   1.393096 A    
C7    C11   1.392994 A    
C16   C23   1.453964 S    
C38   C56   1.486761 S    
C42   O10   1.221306 D    
C9    C13   1.393002 A    
C34   C39   1.529961 S    
C51   O19   1.219184 D    
C25   C49   1.465294 S    
C31   H7    1.082216 S    
O6    C4    1.283511 A    
C35   C53   1.487076 S    
C54   O22   1.221055 D    
C55   O23   1.220980 D    
C52   O20   1.220332 D    
C27   N1    1.377785 A    
C19   C45   1.494497 S    
C27   C51   1.465311 S    
C50   O18   1.220332 D    
C26   N2    1.378520 A    
C7    C17   1.414703 A    
O1    Zn1   1.997320 S    
C36   C54   1.486760 S    
C11   H1    1.084251 S    
O6    Zn2   1.944696 S    
C12   C16   1.392569 A    
Zn2   N2    2.029911 S    
C8    C12   1.392118 A    
C14   H4    1.084312 S    
O4    C1    1.293558 A    
C32   H8    1.081995 S    
C48   O16   1.221013 D    
C19   C24   1.414557 A    
C36   C39   1.425570 A    
C42   H10   1.084143 S    
C26   C50   1.468649 S    
C22   C24   1.414567 A    
C28   N2    1.378520 A    
C29   C33   1.404042 A    
C25   N1    1.377782 A    
C56   O24   1.221054 D    
C21   C47   1.494498 S    
C54   H22   1.085389 S    
C19   C21   1.404390 A    
C20   C22   1.403728 A    
O4    Zn2   1.997345 S    
C52   H20   1.085060 S    
O2    Zn2   1.997320 S    
O7    C4    1.283505 A    
O8    C3    1.283517 A    
C47   H15   1.084768 S    
O5    Zn1   1.944697 S    
C8    C18   1.414050 A    
C50   H18   1.085060 S    
C48   H16   1.084812 S    
C12   H2    1.084316 S    
C35   C38   1.426553 A    
C55   H23   1.085443 S    
C27   C31   1.407902 A    
C44   O12   1.221428 D    
C33   C40   1.528474 S    
C43   O11   1.221254 D    
C29   H5    1.082218 S    
C30   H6    1.081996 S    
C20   C46   1.494486 S    
C10   C17   1.414070 A    
