data_mof_unit_44882.cif
_audit_creation_date              2012-12-10T18:48:41-0500
_audit_creation_method            fapswitch 2.2
_symmetry_space_group_name_H-M    P1
_symmetry_Int_Tables_number       1
_space_group_crystal_system       triclinic
_cell_length_a                    16.54223
_cell_length_b                    13.687421
_cell_length_c                    9.960787
_cell_angle_alpha                 89.999473
_cell_angle_beta                  89.999769
_cell_angle_gamma                 89.999986
_cell_volume                      2255.32603703

loop_
_atom_site_label
_atom_site_type_symbol
_atom_type_description
_atom_site_fract_x
_atom_site_fract_y
_atom_site_fract_z
_atom_type_partial_charge
C1    C     C_R   0.124674 0.386898 0.500589 0.985594
C2    C     C_R   0.999324 0.411635 0.926856 0.308486
C3    C     C_R   0.000676 0.411635 0.073146 0.308482
C4    C     C_R   0.000675 0.588364 0.926853 0.308488
C5    C     C_R   0.499324 0.088364 0.073143 0.308467
C6    C     C_R   0.499325 0.911635 0.926856 0.308488
C7    C     C_R   0.500676 0.911636 0.073146 0.308482
C8    C     C_R   0.500675 0.088364 0.926853 0.308488
C9    C     C_R   0.774506 0.290833 0.372911 0.345081
C10   C     C_R   0.228250 0.707163 0.618331 0.335698
C11   C     C_R   0.225488 0.709177 0.372910 0.345114
C12   C     C_R   0.875326 0.613101 0.500589 0.985540
C13   C     C_R   0.771751 0.292833 0.618332 0.335731
C14   C     C_R   0.225490 0.290824 0.627090 0.345024
C15   C     C_R   0.771750 0.707167 0.381670 0.335629
C16   C     C_R   0.774511 0.709176 0.627090 0.345070
C17   C     C_R   0.228246 0.292828 0.381669 0.335659
C18   C     C_R   0.274509 0.790827 0.372912 0.345076
C19   C     C_R   0.728248 0.207167 0.618330 0.335665
C20   C     C_R   0.725485 0.209184 0.372910 0.345169
C21   C     C_R   0.271753 0.792829 0.618332 0.335738
C22   C     C_R   0.725491 0.790827 0.627090 0.345024
C23   C     C_R   0.875326 0.386899 0.499411 0.985670
C24   C     C_R   0.271746 0.207160 0.381672 0.335553
C25   C     C_R   0.274510 0.209173 0.627092 0.345103
C26   C     C_R   0.728249 0.792834 0.381669 0.335663
C27   C     C_R   0.196843 0.672414 0.496590 -0.418884
C28   C     C_R   0.803155 0.327589 0.496592 -0.418886
C29   C     C_R   0.803156 0.672413 0.503410 -0.418883
C30   C     C_R   0.196843 0.327585 0.503409 -0.418863
C31   C     C_R   0.696841 0.172418 0.496589 -0.418871
C32   C     C_R   0.303157 0.827585 0.496592 -0.418881
C33   C     C_R   0.303154 0.172410 0.503411 -0.418897
C34   C     C_R   0.124674 0.613102 0.499410 0.985665
C35   C     C_R   0.696844 0.827588 0.503409 -0.418879
C36   C     C_R   0.624675 0.886899 0.500589 0.985565
C37   C     C_R   0.375325 0.113100 0.500589 0.985436
C38   C     C_R   0.375326 0.886898 0.499411 0.985726
C39   C     C_R   0.624674 0.113103 0.499410 0.985699
C40   C     C_R   0.999324 0.588364 0.073143 0.308475
Cl1   Cl    Cl    0.790487 0.350997 0.216790 -0.327600
Cl2   Cl    Cl    0.727022 0.136466 0.767263 -0.331038
Cl3   Cl    Cl    0.709499 0.149033 0.216782 -0.327605
Cl4   Cl    Cl    0.272982 0.863524 0.767268 -0.331029
Cl5   Cl    Cl    0.709515 0.850992 0.783212 -0.327627
Cl6   Cl    Cl    0.272964 0.136453 0.232748 -0.331026
Cl7   Cl    Cl    0.290489 0.149011 0.783217 -0.327610
Cl8   Cl    Cl    0.727024 0.863534 0.232737 -0.331057
Cl9   Cl    Cl    0.227023 0.636463 0.767263 -0.331028
Cl10  Cl    Cl    0.209505 0.649022 0.216786 -0.327616
Cl11  Cl    Cl    0.772979 0.363528 0.767267 -0.331028
Cl12  Cl    Cl    0.209514 0.350989 0.783213 -0.327623
Cl13  Cl    Cl    0.772972 0.636465 0.232741 -0.331019
Cl14  Cl    Cl    0.790489 0.649013 0.783216 -0.327621
Cl15  Cl    Cl    0.227021 0.363526 0.232735 -0.331066
Cl16  Cl    Cl    0.290491 0.850988 0.216789 -0.327607
H1    H     H_    0.986580 0.787819 0.346494 0.367744
H2    H     H_    0.986772 0.212118 0.653544 0.367774
H3    H     H_    0.013311 0.212146 0.346481 0.367761
H4    H     H_    0.013271 0.787871 0.653527 0.367769
H5    H     H_    0.486398 0.287749 0.346535 0.367740
H6    H     H_    0.486824 0.712103 0.653555 0.367789
H7    H     H_    0.513329 0.712153 0.346485 0.367759
H8    H     H_    0.513300 0.287862 0.653523 0.367773
N1    N     N_R   0.000000 0.500000 0.857200 -0.216657
N2    N     N_R   0.000000 0.500000 0.142800 -0.216653
N3    N     N_R   0.500000 0.000000 0.857200 -0.216656
N4    N     N_R   0.500000 0.000000 0.142800 -0.216651
O1    O     O_R   0.091610 0.408380 0.614620 -0.533694
O2    O     O_R   0.408390 0.091620 0.385380 -0.539569
O3    O     O_R   0.408390 0.091620 0.614620 -0.533660
O4    O     O_R   0.591610 0.908380 0.385380 -0.539478
O5    O     O_R   0.408390 0.908380 0.385380 -0.533681
O6    O     O_R   0.591610 0.091620 0.614620 -0.539480
O7    O     O_R   0.591610 0.091620 0.385380 -0.533656
O8    O     O_R   0.408390 0.908380 0.614620 -0.539432
O9    O     O_2   0.053563 0.776283 0.107758 -0.152432
O10   O     O_2   0.909042 0.747389 0.129790 -0.169572
O11   O     O_3   0.001026 0.719053 0.326590 -0.533040
O12   O     O_R   0.908390 0.591620 0.385380 -0.539510
O13   O     O_2   0.053579 0.223726 0.892233 -0.152568
O14   O     O_2   0.909054 0.252595 0.870207 -0.169463
O15   O     O_3   0.001024 0.280947 0.673403 -0.533088
O16   O     O_2   0.946424 0.223725 0.107770 -0.152523
O17   O     O_2   0.090949 0.252600 0.129793 -0.169488
O18   O     O_3   0.998975 0.280948 0.326600 -0.533068
O19   O     O_2   0.946423 0.776275 0.892227 -0.152538
O20   O     O_2   0.090948 0.747401 0.870201 -0.169499
O21   O     O_3   0.998976 0.719054 0.673396 -0.533086
O22   O     O_2   0.553546 0.276294 0.107755 -0.152297
O23   O     O_R   0.908390 0.591620 0.614620 -0.533679
O24   O     O_2   0.409029 0.247375 0.129789 -0.169677
O25   O     O_3   0.501027 0.219054 0.326588 -0.533037
O26   O     O_2   0.553585 0.723730 0.892232 -0.152601
O27   O     O_2   0.409059 0.752591 0.870208 -0.169432
O28   O     O_3   0.501024 0.780947 0.673402 -0.533108
O29   O     O_2   0.446430 0.723722 0.107768 -0.152503
O30   O     O_2   0.590953 0.752604 0.129796 -0.169502
O31   O     O_3   0.498975 0.780948 0.326599 -0.533061
O32   O     O_2   0.446421 0.276274 0.892227 -0.152514
O33   O     O_2   0.590946 0.247401 0.870205 -0.169521
O34   O     O_R   0.091610 0.408380 0.385380 -0.539471
O35   O     O_3   0.498976 0.219055 0.673396 -0.533092
O36   O     O_R   0.908390 0.408380 0.385380 -0.533687
O37   O     O_R   0.091610 0.591620 0.614620 -0.539466
O38   O     O_R   0.091610 0.591620 0.385380 -0.533676
O39   O     O_R   0.908390 0.408380 0.614620 -0.539447
O40   O     O_R   0.591610 0.908380 0.614620 -0.533694
S1    S     S_3+6 0.991223 0.706757 0.160541 0.183428
S2    S     S_3+6 0.991229 0.293242 0.839452 0.183412
S3    S     S_3+6 0.008772 0.293243 0.160549 0.183420
S4    S     S_3+6 0.008772 0.706758 0.839446 0.183413
S5    S     S_3+6 0.491215 0.206756 0.160540 0.183443
S6    S     S_3+6 0.491231 0.793242 0.839452 0.183409
S7    S     S_3+6 0.508775 0.793243 0.160549 0.183425
S8    S     S_3+6 0.508771 0.206757 0.839447 0.183413
Zn1   Zn    Zn3+2 0.000000 0.500000 0.653120 1.176168
Zn2   Zn    Zn3+2 0.000000 0.500000 0.346880 1.176157
Zn3   Zn    Zn3+2 0.500000 0.000000 0.653120 1.176167
Zn4   Zn    Zn3+2 0.500000 0.000000 0.346880 1.176145

loop_
_geom_bond_atom_site_label_1
_geom_bond_atom_site_label_2
_ccdc_geom_bond_type
C10   C27   A    
H8    O35   S    
C11   C18   A    
H6    O28   S    
C12   C29   S    
C36   O40   A    
H1    O11   S    
C12   O23   A    
C35   C36   S    
O32   S8    D    
C2    N1    A    
C19   C31   A    
O26   S6    D    
C38   O8    A    
H4    O21   S    
C22   C35   A    
O21   S4    S    
C15   Cl13  S    
O31   S7    S    
C4    N1    A    
C38   O5    A    
H5    O25   S    
O22   S5    D    
O27   S6    D    
C39   O6    A    
C7    S7    S    
C6    S6    S    
H7    O31   S    
C7    N4    A    
C13   Cl11  S    
C14   Cl12  S    
C4    C40   A    
C3    S3    S    
O23   Zn1   S    
C13   C28   A    
C39   O7    A    
O29   S7    D    
O24   S5    D    
C25   Cl7   S    
O34   Zn2   S    
C19   Cl2   S    
C18   Cl16  S    
C1    O1    A    
C4    S4    S    
C10   C21   A    
O5    Zn4   S    
C40   N2    A    
C37   O2    A    
O38   Zn2   S    
C17   C30   A    
O37   Zn1   S    
O40   Zn3   S    
O28   S6    S    
C14   C30   A    
C5    N4    A    
C15   C29   A    
O36   Zn2   S    
O16   S3    D    
C27   C34   S    
C21   C32   A    
O12   Zn2   S    
C17   C24   A    
O11   S1    S    
C34   O38   A    
O8    Zn3   S    
O2    Zn4   S    
C13   C19   A    
C15   C26   A    
O19   S4    D    
C16   C29   A    
C33   C37   S    
O6    Zn3   S    
C21   Cl4   S    
C9    C20   A    
C23   O36   A    
C11   C27   A    
C23   O39   A    
O4    Zn4   S    
O15   S2    S    
O25   S5    S    
C23   C28   S    
O9    S1    D    
C6    C7    A    
C6    N3    A    
C32   C38   S    
C37   O3    A    
C3    N2    A    
C18   C32   A    
O14   S2    D    
C20   Cl3   S    
C17   Cl15  S    
C2    S2    S    
C16   C22   A    
C5    S5    S    
C34   O37   A    
O7    Zn4   S    
O17   S3    D    
C5    C8    A    
C40   S1    S    
C26   Cl8   S    
C9    Cl1   S    
C24   C33   A    
O3    Zn3   S    
C24   Cl6   S    
O18   S3    S    
H3    O18   S    
C11   Cl10  S    
H2    O15   S    
N4    Zn4   S    
O30   S7    D    
O35   S8    S    
C12   O12   A    
O1    Zn1   S    
C1    C30   S    
C31   C39   S    
C2    C3    A    
O10   S1    D    
C14   C25   A    
C16   Cl14  S    
C8    S8    S    
O20   S4    D    
C26   C35   A    
C22   Cl5   S    
O13   S2    D    
C8    N3    A    
N2    Zn2   S    
O33   S8    D    
N1    Zn1   S    
C10   Cl9   S    
N3    Zn3   S    
C1    O34   A    
O39   Zn1   S    
C36   O4    A    
C9    C28   A    
C25   C33   A    
C20   C31   A    
