data_mof_unit_45635.cif
_audit_creation_date              2013-03-05T15:51:22-0500
_audit_creation_method            fapswitch 2.2
_symmetry_space_group_name_H-M    P1
_symmetry_Int_Tables_number       1
_space_group_crystal_system       triclinic
_cell_length_a                    10.782571
_cell_length_b                    10.857666
_cell_length_c                    9.607991
_cell_angle_alpha                 90.202669
_cell_angle_beta                  90.150624
_cell_angle_gamma                 93.379806
_cell_volume                      1122.87362514

loop_
_atom_site_label
_atom_site_type_symbol
_atom_site_description
_atom_site_fract_x
_atom_site_fract_y
_atom_site_fract_z
_atom_type_partial_charge
O1    O     O_R   0.499990 0.319640 0.618810 -0.548324
O2    O     O_R   0.500000 0.319660 0.381240 -0.544172
C1    C     C_R   0.492453 0.262548 0.499001 0.890368
O3    O     O_R   0.317680 0.499970 0.618790 -0.613051
O4    O     O_R   0.317700 0.499990 0.381210 -0.559651
C2    C     C_R   0.260089 0.497379 0.499335 0.752058
Cu1   Cu    Cu3+1 0.499990 0.499990 0.640660 0.982149
Cu2   Cu    Cu3+1 0.500010 0.500010 0.359340 0.995030
O5    O     O_R   0.500000 0.680340 0.618760 -0.614697
O6    O     O_R   0.500010 0.680360 0.381190 -0.576458
O7    O     O_R   0.682300 0.500010 0.618790 -0.558304
O8    O     O_R   0.682320 0.500030 0.381210 -0.602632
C3    C     C_R   0.495810 0.737085 0.500389 0.817080
C4    C     C_R   0.739549 0.494228 0.500565 0.850085
C5    C     C_3   0.071753 0.398776 0.609115 -0.542019
H1    H     H_    0.112489 0.421916 0.713153 0.227959
H2    H     H_    0.106820 0.307280 0.583038 0.160324
C6    C     C_3   0.925920 0.393514 0.616141 0.594302
H3    H     H_    0.104460 0.640301 0.651347 0.213632
H4    H     H_    0.895718 0.660489 0.624590 0.238307
C7    C     C_3   0.076910 0.620049 0.541558 -0.361994
C8    C     C_3   0.065674 0.446442 0.353823 0.371466
C9    C     C_3   0.122224 0.492950 0.498006 -0.038401
H5    H     H_    0.085846 0.347097 0.347939 0.119265
C10   C     C_3   0.877545 0.486922 0.502359 -0.114698
C11   C     C_3   0.934949 0.619202 0.529816 -0.417372
C12   C     C_3   0.922870 0.447169 0.355658 -0.432486
H6    H     H_    0.881826 0.353764 0.328566 0.229663
H7    H     H_    0.889785 0.509118 0.273493 0.215516
H8    H     H_    0.120770 0.696862 0.480031 0.149192
H9    H     H_    0.911067 0.679371 0.442300 0.146104
C13   C     C_R   0.309654 0.117435 0.664446 -0.146660
H10   H     H_    0.300871 0.215937 0.662597 0.121767
C14   C     C_R   0.225033 0.048156 0.746092 -0.057610
H11   H     H_    0.156899 0.093829 0.807090 0.187771
C15   C     C_R   0.226077 0.920304 0.746812 -0.100618
H12   H     H_    0.159157 0.866432 0.808607 0.187598
C16   C     C_R   0.311810 0.861022 0.666238 -0.171706
H13   H     H_    0.305331 0.761559 0.667228 0.152805
C17   C     C_R   0.400579 0.929190 0.584561 0.052197
C18   C     C_R   0.399272 0.059631 0.583376 0.060176
C19   C     C_R   0.482346 0.128084 0.494750 -0.276629
C20   C     C_R   0.557744 0.066944 0.400449 0.287310
C21   C     C_R   0.567789 0.940761 0.412212 0.390597
C22   C     C_R   0.488256 0.870783 0.501088 -0.238776
H14   H     H_    0.354864 0.363111 0.128063 0.156019
C23   C     C_R   0.670639 0.658775 0.144819 -0.175237
H15   H     H_    0.675942 0.667217 0.254332 0.234133
C24   C     C_R   0.755453 0.736023 0.074325 -0.206930
H16   H     H_    0.821157 0.794807 0.132653 0.196607
C25   C     C_R   0.753225 0.741986 0.930683 0.372708
C26   C     C_R   0.667822 0.664155 0.857364 -0.183794
H17   H     H_    0.672219 0.672241 0.747532 0.205562
C27   C     C_R   0.583078 0.579847 0.925749 0.183024
C28   C     C_R   0.583615 0.578685 0.075050 0.200957
N1    N     N_R   0.501200 0.501210 0.147910 -0.201889
C29   C     C_R   0.420242 0.424799 0.073367 0.049676
H18   H     H_    0.355300 0.362714 0.869986 0.125625
C30   C     C_R   0.420523 0.424560 0.925504 -0.004624
N2    N     N_R   0.501250 0.501290 0.852040 -0.192891
N3    N     N_R   0.623897 0.131458 0.290316 0.181471
O9    O     O_R   0.563001 0.162146 0.179848 -0.325750
O10   O     O_R   0.744463 0.132449 0.284487 -0.298013
O11   O     O_3   0.657860 0.886658 0.335335 -0.575654
C31   C     C_3   0.763887 0.879614 0.420591 -0.190983
H19   H     H_    0.749957 0.800918 0.493123 0.141783
H20   H     H_    0.787476 0.966425 0.479798 0.251833
H21   H     H_    0.845261 0.863906 0.354376 0.156902
N4    N     N_R   0.836264 0.829095 0.859753 0.145177
O12   O     O_R   0.932844 0.880106 0.923624 -0.362203
O13   O     O_R   0.809274 0.867578 0.736094 -0.395999
N5    N     N_R   0.877864 0.265279 0.587918 0.106447
O14   O     O_R   0.932066 0.173928 0.645064 -0.322665
O15   O     O_R   0.764261 0.243963 0.545295 -0.366162
N6    N     N_R   0.887212 0.428077 0.758183 0.128517
O16   O     O_R   0.937129 0.525530 0.820576 -0.414062
O17   O     O_R   0.808033 0.356871 0.827365 -0.248202
O18   O     O_3   0.119350 0.495833 0.228640 -0.555731
C32   C     C_3   0.116697 0.625049 0.214474 -0.176362
H22   H     H_    0.029615 0.663240 0.250617 0.128932
H23   H     H_    0.124555 0.647407 0.102141 0.195406
H24   H     H_    0.198673 0.671930 0.266069 0.159906

loop_
_geom_bond_atom_site_label_1
_geom_bond_atom_site_label_2
_geom_bond_distance
_ccdc_geom_bond_type
C5    C6    1.571758 S    
C16   C17   1.415747 A    
C28   N1    1.380818 A    
C1    C19   1.458026 S    
C6    N6    1.481678 S    
C12   H7    1.110611 S    
C18   C19   1.417688 A    
C7    C11   1.534047 S    
Cu2   N1    2.031575 S    
Cu1   Cu2   2.702921 S    
C23   C24   1.383975 A    
C27   N2    1.382478 A    
C21   O11   1.379076 S    
Cu1   O7    1.977506 S    
C15   H12   1.081781 S    
H3    C7    1.112796 S    
O4    C2    1.294856 A    
O7    C4    1.297312 A    
C29   C30   1.420673 A    
C5    H1    1.112720 S    
N1    C29   1.367623 A    
C5    H2    1.111611 S    
C14   H11   1.082720 S    
N4    O13   1.298813 A    
O5    C3    1.297336 A    
N6    O16   1.302049 A    
C31   H20   1.115307 S    
C13   C18   1.416474 A    
C5    C9    1.557709 S    
C30   N2    1.368156 A    
N4    O12   1.301556 A    
C6    C10   1.600942 S    
O3    Cu1   1.976407 S    
C26   C27   1.418932 A    
C6    N5    1.480588 S    
C17   C22   1.417818 A    
C25   C26   1.399644 A    
C8    O18   1.428563 S    
N5    O15   1.298073 A    
C32   H23   1.109454 S    
O18   C32   1.412016 S    
C24   C25   1.382070 A    
H18   C30   1.081593 S    
O1    C1    1.305557 A    
C13   C14   1.393099 A    
C20   C21   1.385669 A    
O4    Cu2   1.977506 S    
C23   H15   1.056970 S    
Cu2   O8    1.976407 S    
C31   H21   1.106121 S    
N3    O10   1.300779 A    
N6    O17   1.302789 A    
O3    C2    1.302932 A    
C17   C18   1.417270 A    
O8    C4    1.304294 A    
C24   H16   1.079546 S    
C8    C12   1.540435 S    
C7    C9    1.547488 S    
H14   C29   1.081895 S    
C8    H5    1.114131 S    
C19   C20   1.409188 A    
Cu1   N2    2.030941 S    
C26   H17   1.060177 S    
C20   N3    1.438553 S    
C23   C28   1.407976 A    
Cu1   O5    1.970187 S    
C27   C28   1.434579 A    
O1    Cu1   1.968663 S    
O2    Cu2   1.970187 S    
C21   C22   1.404809 A    
N5    O14   1.302817 A    
O6    C3    1.300615 A    
C32   H24   1.108604 S    
C10   C12   1.560779 S    
C7    H8    1.107765 S    
O11   C31   1.410556 S    
C15   C16   1.392327 A    
O2    C1    1.292597 A    
C10   C11   1.551506 S    
C13   H10   1.079433 S    
C3    C22   1.458705 S    
C16   H13   1.078156 S    
H4    C11   1.109308 S    
C2    C9    1.484497 S    
C14   C15   1.388933 A    
C4    C10   1.494791 S    
N3    O9    1.301278 A    
C32   H22   1.104904 S    
C11   H9    1.105764 S    
Cu2   O6    1.968663 S    
C31   H19   1.108128 S    
C12   H6    1.112081 S    
C8    C9    1.581201 S    
C25   N4    1.438254 S    
