data_mof_unit_39693.cif
_audit_creation_date              2013-03-05T16:33:10-0500
_audit_creation_method            fapswitch 2.2
_symmetry_space_group_name_H-M    P1
_symmetry_Int_Tables_number       1
_space_group_crystal_system       triclinic
_cell_length_a                    27.639187
_cell_length_b                    10.750297
_cell_length_c                    9.535521
_cell_angle_alpha                 89.779458
_cell_angle_beta                  90.59039
_cell_angle_gamma                 90.637965
_cell_volume                      2832.93849613

loop_
_atom_site_label
_atom_site_type_symbol
_atom_site_description
_atom_site_fract_x
_atom_site_fract_y
_atom_site_fract_z
_atom_type_partial_charge
O1    O     O_R   0.500000 0.319640 0.618810 -0.601194
O2    O     O_R   0.500010 0.319680 0.381230 -0.541614
C1    C     C_R   0.498160 0.262074 0.500265 0.818291
O3    O     O_R   0.430260 0.500000 0.618780 -0.610309
O4    O     O_R   0.430270 0.500040 0.381190 -0.524714
C2    C     C_R   0.407683 0.499346 0.499580 0.873723
Cu1   Cu    Cu3+1 0.500000 0.499980 0.640670 0.991166
Cu2   Cu    Cu3+1 0.500000 0.500020 0.359330 1.047548
O5    O     O_R   0.499990 0.680320 0.618770 -0.568701
O6    O     O_R   0.500000 0.680360 0.381190 -0.530779
O7    O     O_R   0.569730 0.499960 0.618810 -0.520340
O8    O     O_R   0.569740 0.500000 0.381220 -0.601544
C3    C     C_R   0.495829 0.737216 0.499231 0.885630
C4    C     C_R   0.592295 0.499372 0.500419 0.934081
C5    C     C_R   0.178449 0.438501 0.607428 0.545520
O9    O     O_2   0.203730 0.397074 0.719777 -0.572635
N1    N     N_R   0.202365 0.485121 0.493731 -0.433282
C6    C     C_R   0.177970 0.530225 0.379400 0.613711
C7    C     C_R   0.278775 0.593347 0.549536 0.499800
C8    C     C_R   0.329421 0.596827 0.547408 -0.398050
C9    C     C_R   0.330615 0.385499 0.456238 0.416217
C10   C     C_R   0.279800 0.385885 0.448785 -0.310684
C11   C     C_R   0.254136 0.488857 0.495856 0.242318
C12   C     C_R   0.101713 0.474850 0.488760 -0.055250
C13   C     C_R   0.127713 0.433466 0.607506 -0.000450
C14   C     C_R   0.102597 0.392375 0.725291 -0.187191
C15   C     C_R   0.127168 0.527098 0.375469 -0.105852
C16   C     C_R   0.355059 0.494275 0.499279 -0.163808
H1    H     H_    0.259852 0.307168 0.406593 0.153469
H2    H     H_    0.121609 0.367199 0.821029 0.187976
C17   C     C_R   0.644815 0.490782 0.500170 -0.208430
C18   C     C_R   0.974034 0.398502 0.593996 -0.074426
C19   C     C_R   0.973812 0.491525 0.356452 0.062590
C20   C     C_R   0.948590 0.444017 0.474439 0.018002
C21   C     C_R   0.946671 0.334558 0.698979 0.400580
C22   C     C_R   0.896426 0.344688 0.701319 -0.188648
C23   C     C_R   0.871417 0.398658 0.589283 -0.106123
C24   C     C_R   0.897214 0.439616 0.471257 -0.053182
C25   C     C_R   0.871514 0.475228 0.349643 -0.013997
C26   C     C_R   0.820762 0.476034 0.351373 0.670719
N2    N     N_R   0.796626 0.447849 0.472156 -0.430741
C27   C     C_R   0.820779 0.407290 0.589372 0.655616
C28   C     C_R   0.714278 0.355636 0.477366 0.358664
C29   C     C_R   0.664528 0.371938 0.492632 -0.365685
C30   C     C_R   0.674853 0.597539 0.494049 0.191515
C31   C     C_R   0.725370 0.581933 0.487150 0.244289
C32   C     C_R   0.744995 0.461593 0.476079 0.074767
O10   O     O_2   0.795876 0.375716 0.705436 -0.516670
C33   C     C_R   0.025309 0.413535 0.600619 0.067383
C34   C     C_R   0.050384 0.465334 0.484131 0.010851
C35   C     C_R   0.024723 0.511119 0.365064 -0.065578
C36   C     C_R   0.052415 0.386608 0.723541 -0.175579
H3    H     H_    0.640553 0.291405 0.493478 0.186353
H4    H     H_    0.876919 0.301986 0.787318 0.210150
H5    H     H_    0.035942 0.365333 0.822561 0.207471
O11   O     O_2   0.202814 0.578200 0.270343 -0.554497
C37   C     C_R   0.101531 0.581043 0.264661 -0.242432
H6    H     H_    0.348756 0.679542 0.582224 0.167568
H7    H     H_    0.120479 0.629286 0.181271 0.193272
C38   C     C_R   0.947188 0.511559 0.231051 -0.159046
C39   C     C_R   0.896956 0.506226 0.228550 -0.160037
O12   O     O_2   0.795684 0.505762 0.233975 -0.502544
C40   C     C_R   0.050981 0.582407 0.264088 0.433890
H8    H     H_    0.964353 0.527165 0.131507 0.209220
H9    H     H_    0.878167 0.526381 0.130942 0.197971
C41   C     C_R   0.486669 0.062289 0.625436 0.064218
C42   C     C_R   0.490005 0.129075 0.500155 -0.199430
C43   C     C_R   0.480466 0.066454 0.373537 -0.212493
H10   H     H_    0.476981 0.117597 0.275885 0.246234
C44   C     C_R   0.476917 0.936449 0.371299 0.313815
C45   C     C_R   0.485491 0.869405 0.497533 -0.203598
C46   C     C_R   0.484873 0.934600 0.623663 -0.011415
C47   C     C_3   0.514772 0.922163 0.753853 -0.392835
C48   C     C_3   0.517194 0.063704 0.756460 0.173421
H11   H     H_    0.493913 0.879089 0.840817 0.255371
H12   H     H_    0.549971 0.878055 0.733294 0.224633
H13   H     H_    0.554154 0.103442 0.741870 0.072831
C49   C     C_R   0.528735 0.581806 0.074747 0.111582
N3    N     N_R   0.500300 0.500930 0.147930 -0.218441
C50   C     C_R   0.466931 0.429784 0.074217 0.586657
C51   C     C_R   0.468221 0.428533 0.923629 -0.160215
H14   H     H_    0.445164 0.367640 0.862584 0.173922
N4    N     N_R   0.500310 0.500890 0.852020 -0.243546
C52   C     C_R   0.529351 0.580906 0.927291 0.162143
C53   C     C_3   0.584192 0.592006 0.929653 0.775297
C54   C     C_3   0.582149 0.596874 0.090067 -0.581816
H15   H     H_    0.600352 0.518710 0.144066 0.196374
H16   H     H_    0.591681 0.689442 0.134812 0.224937
O13   O     O_3   0.357646 0.283775 0.415510 -0.618484
C55   C     C_3   0.343866 0.173423 0.487196 0.044695
H17   H     H_    0.365004 0.096381 0.441608 0.187479
H18   H     H_    0.305251 0.148279 0.468921 0.141994
C56   C     C_3   0.355676 0.179629 0.644975 -0.372059
H19   H     H_    0.394400 0.205406 0.660472 0.243939
H20   H     H_    0.333269 0.251669 0.695481 0.210642
C57   C     C_3   0.345449 0.054788 0.716238 -0.809403
H21   H     H_    0.307247 0.025511 0.697793 0.241592
H22   H     H_    0.351543 0.063445 0.831031 0.280446
H23   H     H_    0.369865 0.982404 0.675052 0.259747
O14   O     O_3   0.252700 0.694221 0.595361 -0.597136
C58   C     C_3   0.259213 0.706862 0.741811 0.040692
H24   H     H_    0.295957 0.745098 0.765828 0.149794
H25   H     H_    0.254344 0.615800 0.796814 0.174218
C59   C     C_3   0.221581 0.796736 0.797288 -0.333741
H26   H     H_    0.226312 0.888925 0.745695 0.225173
H27   H     H_    0.184706 0.760594 0.771544 0.231699
C60   C     C_3   0.226340 0.812405 0.955897 -0.866340
H28   H     H_    0.220638 0.721650 0.009712 0.285681
H29   H     H_    0.198645 0.878407 0.992815 0.254653
H30   H     H_    0.262774 0.849908 0.983991 0.262610
N5    N     N_R   0.654567 0.720672 0.488801 0.117329
O15   O     O_R   0.674492 0.807106 0.412088 -0.283620
O16   O     O_R   0.614915 0.746048 0.554624 -0.393145
N6    N     N_R   0.757096 0.687569 0.501494 0.163537
O17   O     O_R   0.781168 0.729244 0.394356 -0.284533
O18   O     O_R   0.758481 0.749155 0.618598 -0.341496
O19   O     O_3   0.027861 0.658098 0.167121 -0.633695
C61   C     C_3   0.031319 0.784264 0.209349 0.040480
H31   H     H_    0.025669 0.842633 0.114328 0.173331
H32   H     H_    0.067816 0.810159 0.251638 0.137231
C62   C     C_3   0.992049 0.815725 0.315875 -0.333749
H33   H     H_    0.955933 0.789397 0.272267 0.248464
H34   H     H_    0.998120 0.762459 0.414446 0.216039
C63   C     C_3   0.992510 0.954256 0.350512 -0.901696
H35   H     H_    0.028195 0.982527 0.395430 0.247565
H36   H     H_    0.964127 0.973713 0.428817 0.264665
H37   H     H_    0.985072 0.010140 0.254593 0.262620
N7    N     N_R   0.465996 0.875418 0.241020 0.137860
O20   O     O_R   0.430281 0.795714 0.233503 -0.377056
O21   O     O_R   0.486434 0.913217 0.126002 -0.323686
N8    N     N_R   0.491861 0.114750 0.876950 0.160864
O22   O     O_R   0.516787 0.161921 0.980453 -0.395580
O23   O     O_R   0.445605 0.096202 0.892196 -0.375068
O24   O     O_3   0.435541 0.353544 0.150204 -0.551534
C64   C     C_3   0.388740 0.340268 0.088598 0.078144
H38   H     H_    0.367865 0.275568 0.156187 0.219207
H39   H     H_    0.389271 0.292422 0.985969 0.140664
C65   C     C_3   0.361337 0.464068 0.080533 -0.399956
H40   H     H_    0.361263 0.508392 0.185421 0.266177
H41   H     H_    0.379386 0.528849 0.006100 0.211086
C66   C     C_3   0.309103 0.443933 0.031652 -0.833692
H42   H     H_    0.308130 0.402917 0.924859 0.252456
H43   H     H_    0.290254 0.534582 0.028467 0.268734
H44   H     H_    0.289667 0.381157 0.105378 0.269357
O25   O     O_3   0.609874 0.490440 0.869618 -0.610121
C67   C     C_3   0.598516 0.370259 0.922480 0.049823
H45   H     H_    0.585176 0.312486 0.833563 0.191292
H46   H     H_    0.569825 0.367727 0.002684 0.153657
C68   C     C_3   0.644469 0.311643 0.982634 -0.371645
H47   H     H_    0.670493 0.296302 0.896421 0.250055
H48   H     H_    0.661699 0.375770 0.059970 0.236733
C69   C     C_3   0.633447 0.187880 0.055035 -0.791047
H49   H     H_    0.609858 0.202657 0.147013 0.273851
H50   H     H_    0.667704 0.145143 0.091937 0.274407
H51   H     H_    0.615020 0.123149 0.980903 0.263771
O26   O     O_3   0.599916 0.707595 0.872749 -0.591423
C70   C     C_3   0.650873 0.722347 0.889249 0.184626
H52   H     H_    0.669151 0.690201 0.792926 0.207520
H53   H     H_    0.665994 0.666883 0.978348 0.121918
C71   C     C_3   0.664045 0.858734 0.918594 -0.428038
H54   H     H_    0.638444 0.897363 0.995824 0.239839
H55   H     H_    0.700931 0.863239 0.966081 0.225751
C72   C     C_3   0.664090 0.938967 0.786091 -0.608600
H56   H     H_    0.689554 0.901453 0.708127 0.313528
H57   H     H_    0.675951 0.035084 0.812692 0.232448
H58   H     H_    0.627471 0.943129 0.738755 0.255306
N9    N     N_R   0.732952 0.231674 0.463423 0.158896
O27   O     O_R   0.708386 0.136472 0.510177 -0.323039
O28   O     O_R   0.772194 0.211656 0.393160 -0.327145
O29   O     O_3   0.967352 0.253989 0.795008 -0.629074
C73   C     C_3   0.974887 0.138677 0.728294 0.055830
H59   H     H_    0.998979 0.150193 0.635934 0.149931
H60   H     H_    0.939682 0.097090 0.693170 0.164961
C74   C     C_3   0.998994 0.049440 0.831981 -0.329037
H61   H     H_    0.033900 0.090554 0.869115 0.219410
H62   H     H_    0.975204 0.035406 0.924141 0.232425
C75   C     C_3   0.008568 0.923661 0.764363 -0.903212
H63   H     H_    0.974097 0.880172 0.727507 0.270195
H64   H     H_    0.025785 0.860728 0.842307 0.260061
H65   H     H_    0.033305 0.935177 0.674041 0.256987

loop_
_geom_bond_atom_site_label_1
_geom_bond_atom_site_label_2
_geom_bond_distance
_ccdc_geom_bond_type
C64   C65   1.539890 S    
Cu1   N4    2.015324 S    
C73   H59   1.115236 S    
C70   H52   1.110919 S    
C10   H1    1.081495 S    
C60   H29   1.110358 S    
N2    C27   1.368357 A    
C21   C22   1.394625 A    
C12   C15   1.407015 A    
C4    C17   1.455606 S    
N7    O20   1.301524 A    
C59   H27   1.112093 S    
O25   C67   1.418115 S    
C50   O24   1.393566 S    
Cu1   Cu2   2.682721 S    
N9    O28   1.301112 A    
C9    O13   1.390088 S    
C30   C31   1.410391 A    
Cu1   O7    1.940657 S    
C73   H60   1.115187 S    
C58   H24   1.113305 S    
C22   C23   1.394505 A    
C72   H57   1.110069 S    
C53   O25   1.433247 S    
C66   H43   1.110287 S    
C24   C25   1.407689 A    
C40   O19   1.385280 S    
O7    C4    1.295422 A    
C54   H16   1.112138 S    
C5    C13   1.402768 A    
O29   C73   1.413979 S    
C5    O9    1.349853 S    
C41   C48   1.500378 S    
C57   H23   1.111161 S    
C26   O12   1.349790 S    
Cu1   O5    1.949125 S    
C47   C48   1.522628 S    
C23   C27   1.403705 A    
O5    C3    1.296196 A    
C61   H31   1.110845 S    
C62   C63   1.526558 S    
O1    Cu1   1.950680 S    
C74   H61   1.111820 S    
C68   H47   1.111877 S    
C29   H3    1.084424 S    
C2    C16   1.454875 S    
C7    C8    1.400257 A    
C43   H10   1.083523 S    
C75   H64   1.110224 S    
C48   H13   1.112732 S    
C57   H22   1.109881 S    
Cu2   N3    2.015898 S    
C60   H28   1.111052 S    
C44   C45   1.419778 A    
C36   H5    1.075179 S    
C6    O11   1.349688 S    
C33   C36   1.415305 A    
C41   C42   1.394734 A    
C56   H20   1.111286 S    
C22   H4    1.083794 S    
C64   H39   1.107622 S    
C48   N8    1.463360 S    
C47   H11   1.111494 S    
O3    Cu1   1.936691 S    
C59   H26   1.111758 S    
C51   N4    1.360502 A    
C37   C40   1.397353 A    
C67   H46   1.107421 S    
C12   C34   1.421477 A    
C25   C39   1.395488 A    
C73   C74   1.528124 S    
C41   C46   1.373200 A    
C17   C29   1.396892 A    
C31   N6    1.433108 S    
C42   C43   1.405773 A    
C71   C72   1.527079 S    
C64   H38   1.107860 S    
C72   H58   1.105249 S    
C35   C40   1.427391 A    
C52   C53   1.519067 S    
O3    C2    1.291021 A    
C15   C37   1.394221 A    
C66   H44   1.110989 S    
N9    O27   1.301718 A    
C54   H15   1.106845 S    
C50   C51   1.436863 A    
C27   O10   1.349612 S    
C3    C45   1.452626 S    
C34   C35   1.421707 A    
C13   C14   1.394232 A    
C53   C54   1.532364 S    
C65   C66   1.525904 S    
C51   H14   1.076786 S    
C38   C39   1.388877 A    
O1    C1    1.291061 A    
C53   O26   1.419514 S    
C18   C20   1.421444 A    
C7    C11   1.402764 A    
C28   C29   1.397282 A    
C18   C21   1.430165 A    
C23   C24   1.405203 A    
C14   C36   1.387611 A    
C67   C68   1.529459 S    
C55   H18   1.110240 S    
N4    C52   1.370001 A    
C69   H51   1.109862 S    
Cu2   O8    1.936686 S    
C75   H65   1.110859 S    
C57   H21   1.110887 S    
N1    C6    1.366142 A    
N2    C32   1.437212 S    
N5    O16   1.300627 A    
C56   H19   1.111120 S    
N1    C11   1.430967 S    
C12   C13   1.408162 A    
C19   C38   1.414618 A    
C74   C75   1.527178 S    
C62   H33   1.111523 S    
C65   H41   1.110559 S    
C75   H63   1.110961 S    
C63   H37   1.111031 S    
Cu2   O6    1.950679 S    
C26   N2    1.368190 A    
C9    C16   1.404538 A    
C69   H50   1.110384 S    
C14   H2    1.083593 S    
C56   C57   1.526874 S    
C60   H30   1.111114 S    
C68   C69   1.525732 S    
C8    H6    1.083764 S    
N8    O22   1.299205 A    
C25   C26   1.403137 A    
C55   C56   1.537764 S    
C63   H36   1.110692 S    
C67   H45   1.110445 S    
C58   H25   1.116286 S    
C44   N7    1.434917 S    
C5    N1    1.366277 A    
C31   C32   1.413098 A    
O26   C70   1.422743 S    
N5    O15   1.301316 A    
C20   C24   1.420245 A    
O2    Cu2   1.949128 S    
C6    C15   1.404261 A    
O8    C4    1.290745 A    
C46   C47   1.490638 S    
N8    O23   1.301282 A    
O6    C3    1.289715 A    
N7    O21   1.300505 A    
O4    Cu2   1.940659 S    
N6    O18   1.300365 A    
C7    O14   1.383417 S    
C30   N5    1.443788 S    
N6    O17   1.300368 A    
O24   C64   1.421122 S    
C28   N9    1.441545 S    
C70   C71   1.532892 S    
C19   C35   1.422086 A    
C8    C16   1.398626 A    
O19   C61   1.418242 S    
C38   H8    1.077269 S    
C71   H54   1.111348 S    
C68   H48   1.111417 S    
O2    C1    1.292116 A    
C21   O29   1.381862 S    
C45   C46   1.394708 A    
C66   H42   1.111197 S    
C49   N3    1.360874 A    
C49   C54   1.489139 S    
C55   H17   1.111326 S    
O4    C2    1.295602 A    
C1    C42   1.444960 S    
O14   C58   1.413071 S    
C47   H12   1.106636 S    
C74   H62   1.111786 S    
C19   C20   1.420004 A    
C39   H9    1.083464 S    
C61   H32   1.115305 S    
C18   C33   1.425367 A    
C62   H34   1.110986 S    
C72   H56   1.109092 S    
C37   H7    1.083927 S    
C65   H40   1.109557 S    
N3    C50   1.380126 A    
C49   C52   1.406421 A    
C69   H49   1.111183 S    
C70   H53   1.116403 S    
C33   C34   1.423643 A    
C17   C30   1.410350 A    
C43   C44   1.400168 A    
C10   C11   1.399245 A    
C58   C59   1.527345 S    
O13   C55   1.417290 S    
C9    C10   1.405599 A    
C28   C32   1.413128 A    
C61   C62   1.535514 S    
C59   C60   1.526590 S    
C71   H55   1.111898 S    
C63   H35   1.110960 S    
