data_mof_unit_63475.cif
_audit_creation_date              2012-12-10T18:16:17-0500
_audit_creation_method            fapswitch 2.2
_symmetry_space_group_name_H-M    P1
_symmetry_Int_Tables_number       1
_space_group_crystal_system       triclinic
_cell_length_a                    15.874052
_cell_length_b                    14.696696
_cell_length_c                    10.647777
_cell_angle_alpha                 89.628649
_cell_angle_beta                  90.413145
_cell_angle_gamma                 89.284483
_cell_volume                      2483.77311126

loop_
_atom_site_label
_atom_site_type_symbol
_atom_type_description
_atom_site_fract_x
_atom_site_fract_y
_atom_site_fract_z
_atom_type_partial_charge
C1    C     C_R   0.339831 0.500539 0.497616 0.828688
C2    C     C_3   0.500049 0.500744 0.123606 -0.135323
C3    C     C_3   0.049040 0.593722 0.524259 -0.021420
C4    C     C_3   0.049673 0.426361 0.571639 0.020493
C5    C     C_3   0.954403 0.409050 0.550590 0.500493
C6    C     C_3   0.951079 0.590642 0.547517 0.475193
C7    C     C_1   0.749503 0.498594 0.494899 -0.108273
C8    C     C_3   0.082781 0.499480 0.475051 -0.156726
C9    C     C_3   0.917039 0.498917 0.483310 -0.158520
C10   C     C_3   0.947408 0.498166 0.339583 0.375152
C11   C     C_3   0.047939 0.481871 0.335446 0.775216
C12   C     C_1   0.824881 0.498407 0.489685 0.188503
C13   C     C_1   0.175088 0.501226 0.481415 0.092082
C14   C     C_R   0.498462 0.500312 0.259127 0.851032
C15   C     C_1   0.250460 0.501666 0.489062 -0.144954
C16   C     C_3   0.593551 0.055401 0.460139 0.503320
C17   C     C_3   0.596800 0.946391 0.478042 0.588230
C18   C     C_3   0.437557 0.055640 0.398359 -0.015376
C19   C     C_3   0.441749 0.948198 0.392895 -0.038138
C20   C     C_3   0.502448 0.092069 0.497844 -0.160339
C21   C     C_3   0.503175 0.907798 0.497719 -0.223422
C22   C     C_3   0.465520 0.946382 0.623771 0.247533
C23   C     C_3   0.474317 0.052680 0.628388 0.259641
C24   C     C_1   0.502310 0.804653 0.501047 0.313653
C25   C     C_1   0.501167 0.195343 0.500165 0.338392
C26   C     C_R   0.660064 0.499521 0.499508 0.793935
C27   C     C_R   0.503091 0.499607 0.740866 0.849674
C28   C     C_3   0.462109 0.576650 0.038889 -0.173779
C29   C     C_3   0.460876 0.425255 0.042962 -0.286653
C30   C     C_3   0.424663 0.501280 0.956360 0.383809
C31   C     C_3   0.504502 0.498866 0.877358 -0.212364
C32   C     C_3   0.543409 0.571756 0.961156 0.409732
C33   C     C_3   0.542334 0.425153 0.964743 0.421738
C34   C     C_3   0.582660 0.498294 0.049110 -0.359647
Cu1   Cu    Cu3+1 0.499910 0.589920 0.499840 1.024668
Cu2   Cu    Cu3+1 0.499910 0.410080 0.499840 1.003742
H1    H     H_    0.454065 0.082268 0.303835 0.190992
H2    H     H_    0.463131 0.930607 0.298384 0.125407
H3    H     H_    0.409829 0.080501 0.645609 0.109759
H4    H     H_    0.396491 0.932809 0.620385 0.113495
H5    H     H_    0.429262 0.639128 0.071759 0.160296
H6    H     H_    0.428658 0.364335 0.080547 0.144741
H7    H     H_    0.646684 0.497842 0.091805 0.158913
H8    H     H_    0.080302 0.606711 0.616209 0.152778
H9    H     H_    0.058422 0.454730 0.667348 0.163485
N1    N     N_1   0.501390 0.724970 0.502570 -0.154790
N2    N     N_1   0.501390 0.275030 0.502570 -0.156136
O1    O     O_R   0.379360 0.575970 0.499860 -0.547369
O2    O     O_R   0.379360 0.424030 0.499860 -0.572152
O3    O     O_R   0.499910 0.575920 0.316720 -0.582439
O4    O     O_R   0.499910 0.424080 0.316720 -0.575462
O5    O     O_R   0.620490 0.575900 0.499870 -0.568934
O6    O     O_R   0.620490 0.424100 0.499870 -0.571621
O7    O     O_R   0.499950 0.575950 0.683010 -0.551265
O8    O     O_R   0.499950 0.424050 0.683010 -0.573955
O9    O     O_3   0.343655 0.510595 0.901515 -0.569438
C35   C     C_3   0.298814 0.429071 0.915034 0.048175
H10   H     H_    0.283217 0.417419 0.015575 0.139182
H11   H     H_    0.335441 0.369983 0.878112 0.161219
C36   C     C_3   0.217075 0.436489 0.840548 -0.731896
H12   H     H_    0.231181 0.441276 0.738980 0.259121
H13   H     H_    0.178232 0.375441 0.857877 0.233589
H14   H     H_    0.181002 0.498049 0.868580 0.242681
Br1   Br    Br    0.908374 0.607748 0.246482 -0.416928
Br2   Br    Br    0.887073 0.407897 0.237333 -0.472836
O10   O     O_3   0.648397 0.903743 0.384698 -0.571839
C37   C     C_3   0.611496 0.876755 0.270159 0.026628
H15   H     H_    0.585751 0.935718 0.216710 0.179517
H16   H     H_    0.563209 0.824081 0.283914 0.152126
C38   C     C_3   0.679849 0.833189 0.190113 -0.716672
H17   H     H_    0.706628 0.772217 0.238885 0.272483
H18   H     H_    0.653003 0.811965 0.098532 0.209873
H19   H     H_    0.731152 0.882328 0.172951 0.248594
O11   O     O_3   0.602853 0.078080 0.329783 -0.636426
C39   C     C_3   0.685871 0.097159 0.291231 0.121494
H20   H     H_    0.731546 0.044055 0.324179 0.205146
H21   H     H_    0.704731 0.165192 0.325597 0.188206
C40   C     C_3   0.688431 0.102626 0.148445 -0.812643
H22   H     H_    0.643061 0.155424 0.113931 0.260116
H23   H     H_    0.752717 0.121203 0.117745 0.223498
H24   H     H_    0.672050 0.036370 0.106201 0.248456
Br3   Br    Br    0.324147 0.108035 0.421926 -0.455675
Br4   Br    Br    0.331558 0.888286 0.390998 -0.415199
O12   O     O_3   0.531379 0.079311 0.724445 -0.498142
C41   C     C_3   0.489120 0.106824 0.834953 0.134033
H25   H     H_    0.535866 0.105608 0.913063 0.182063
H26   H     H_    0.438237 0.059356 0.861781 0.127396
C42   C     C_3   0.453683 0.203622 0.822250 -0.789668
H27   H     H_    0.393559 0.204628 0.768470 0.221870
H28   H     H_    0.441071 0.231756 0.916850 0.223161
H29   H     H_    0.499351 0.247179 0.772663 0.312615
O13   O     O_3   0.503194 0.905142 0.732052 -0.511725
C43   C     C_3   0.443182 0.865855 0.812890 0.101128
H30   H     H_    0.424712 0.798322 0.775923 0.179550
H31   H     H_    0.385821 0.909503 0.823686 0.117898
C44   C     C_3   0.482437 0.853394 0.942698 -0.712764
H32   H     H_    0.494033 0.920704 0.985893 0.211073
H33   H     H_    0.439533 0.814244 0.004033 0.206064
H34   H     H_    0.543372 0.816451 0.935412 0.292270
Br5   Br    Br    0.678585 0.120288 0.566911 -0.533076
Br6   Br    Br    0.665113 0.911288 0.626377 -0.407550
O14   O     O_3   0.582677 0.650672 0.915660 -0.584370
C45   C     C_3   0.664753 0.628876 0.875114 0.051915
H35   H     H_    0.665670 0.568512 0.812484 0.124886
H36   H     H_    0.706938 0.616258 0.957439 0.181598
C46   C     C_3   0.698691 0.708467 0.800768 -0.631531
H37   H     H_    0.659759 0.719251 0.714789 0.274335
H38   H     H_    0.697462 0.771087 0.858586 0.253912
H39   H     H_    0.764473 0.693428 0.773166 0.223637
O15   O     O_3   0.578711 0.342954 0.922605 -0.590290
C47   C     C_3   0.666854 0.350276 0.914540 0.044864
H40   H     H_    0.695295 0.349051 0.010355 0.183558
H41   H     H_    0.685533 0.413299 0.863937 0.143811
C48   C     C_3   0.701144 0.269428 0.842036 -0.639238
H42   H     H_    0.679295 0.274249 0.742968 0.271022
H43   H     H_    0.771006 0.269236 0.844510 0.242176
H44   H     H_    0.678763 0.204823 0.884051 0.257701
Br7   Br    Br    0.931564 0.593139 0.732201 -0.609955
Br8   Br    Br    0.904452 0.382257 0.719118 -0.547339
Br9   Br    Br    0.113973 0.311847 0.587938 -0.453065
Br10  Br    Br    0.088607 0.697407 0.423634 -0.371972
O16   O     O_3   0.949533 0.332998 0.467224 -0.506416
C49   C     C_3   0.890446 0.265436 0.498427 0.221551
H45   H     H_    0.825938 0.295186 0.506758 0.159405
H46   H     H_    0.909754 0.229583 0.586428 0.204016
C50   C     C_3   0.889911 0.193129 0.396631 -0.710477
H47   H     H_    0.955270 0.169498 0.377370 0.280619
H48   H     H_    0.852738 0.133934 0.428387 0.198666
H49   H     H_    0.861202 0.220423 0.308745 0.257410
O17   O     O_3   0.908008 0.666700 0.490703 -0.515407
C51   C     C_3   0.911035 0.749500 0.557997 0.182864
H50   H     H_    0.973201 0.760487 0.603849 0.179598
H51   H     H_    0.861214 0.750578 0.630412 0.174048
C52   C     C_3   0.892211 0.828336 0.468241 -0.643969
H52   H     H_    0.828913 0.820161 0.424843 0.272036
H53   H     H_    0.893161 0.893577 0.520248 0.208658
H54   H     H_    0.940077 0.830587 0.392859 0.276000
O18   O     O_3   0.086867 0.544998 0.251016 -0.569162
C53   C     C_3   0.074231 0.527165 0.121053 0.133935
H55   H     H_    0.011830 0.498130 0.099196 0.217901
H56   H     H_    0.122771 0.479564 0.085661 0.131911
C54   C     C_3   0.084439 0.615257 0.046804 -0.644846
H57   H     H_    0.149808 0.640278 0.057780 0.246203
H58   H     H_    0.071737 0.603089 0.945704 0.215167
H59   H     H_    0.040044 0.668477 0.080326 0.294300
O19   O     O_3   0.064327 0.389336 0.299109 -0.537491
C55   C     C_3   0.150190 0.366352 0.275898 0.114775
H60   H     H_    0.179681 0.335693 0.360407 0.219491
H61   H     H_    0.190263 0.424501 0.248978 0.124110
C56   C     C_3   0.154299 0.294642 0.173491 -0.723539
H62   H     H_    0.123741 0.320284 0.085930 0.235467
H63   H     H_    0.221069 0.276903 0.153507 0.197738
H64   H     H_    0.121395 0.232313 0.204841 0.287304

loop_
_geom_bond_atom_site_label_1
_geom_bond_atom_site_label_2
_ccdc_geom_bond_type
C8    C13   S    
C29   H6    S    
C55   H60   S    
C6    O17   S    
C3    C6    S    
C52   H54   S    
C48   H42   S    
C27   O7    A    
C49   H45   S    
C41   H25   S    
C17   O10   S    
C50   H47   S    
C7    C26   S    
C5    Br8   S    
C36   H14   S    
C16   O11   S    
C55   H61   S    
C11   O18   S    
C30   C31   S    
C53   C54   S    
C40   H23   S    
C35   H11   S    
C46   H37   S    
C44   H34   S    
C29   C33   S    
C28   H5    S    
O9    C35   S    
Cu2   N2    S    
C36   H13   S    
C18   C19   S    
C17   Br6   S    
O15   C47   S    
Cu2   O6    S    
Cu1   Cu2   S    
C16   C17   S    
C56   H64   S    
C44   H33   S    
C20   C23   S    
C38   H17   S    
C1    C15   S    
C45   C46   S    
C9    C10   S    
C25   N2    T    
C18   C20   S    
C11   O19   S    
C4    C8    S    
C2    C34   S    
O10   C37   S    
C43   H31   S    
C21   C22   S    
Cu1   O7    S    
C54   H59   S    
C51   C52   S    
C6    C9    S    
C19   Br4   S    
Cu1   O1    S    
C9    C12   S    
Cu1   O3    S    
C4    H9    S    
C41   H26   S    
C7    C12   T    
C3    H8    S    
C38   H18   S    
C23   O12   S    
C27   C31   S    
C37   H15   S    
C28   C32   S    
C55   C56   S    
O12   C41   S    
C47   H41   S    
C3    C8    S    
O11   C39   S    
C40   H22   S    
C16   Br5   S    
C35   C36   S    
C52   H53   S    
C50   H49   S    
C51   H51   S    
C30   O9    S    
C5    O16   S    
C17   C21   S    
C36   H12   S    
C37   H16   S    
C32   C34   S    
C39   H20   S    
C5    C9    S    
C29   C30   S    
C19   H2    S    
C26   O5    A    
C14   O4    A    
C42   H29   S    
C16   C20   S    
C22   H4    S    
C44   H32   S    
C38   H19   S    
C31   C33   S    
C33   C34   S    
C45   H36   S    
C43   H30   S    
C39   H21   S    
Cu2   O4    S    
C42   H28   S    
C43   C44   S    
C13   C15   T    
C56   H63   S    
C51   H50   S    
C26   O6    A    
C45   H35   S    
C41   C42   S    
O19   C55   S    
C10   Br2   S    
C50   H48   S    
C47   H40   S    
C19   C21   S    
C54   H57   S    
C18   H1    S    
C31   C32   S    
C10   Br1   S    
C34   H7    S    
C4    C5    S    
C49   C50   S    
C48   H43   S    
C53   H55   S    
C1    O1    A    
C52   H52   S    
C32   O14   S    
C27   O8    A    
C56   H62   S    
C37   C38   S    
C24   N1    T    
C28   C30   S    
O17   C51   S    
Cu2   O8    S    
C53   H56   S    
C40   H24   S    
C35   H10   S    
C14   O3    A    
C46   H38   S    
C8    C11   S    
C23   H3    S    
O13   C43   S    
C18   Br3   S    
C47   C48   S    
C54   H58   S    
O14   C45   S    
C2    C14   S    
C39   C40   S    
C48   H44   S    
C49   H46   S    
C10   C11   S    
Cu2   O2    S    
C2    C29   S    
C42   H27   S    
C20   C25   S    
C21   C24   S    
Cu1   O5    S    
C22   O13   S    
C22   C23   S    
C4    Br9   S    
C2    C28   S    
C33   O15   S    
O16   C49   S    
Cu1   N1    S    
C1    O2    A    
C6    Br7   S    
O18   C53   S    
C3    Br10  S    
C46   H39   S    
