data_mof_unit_58523.cif
_audit_creation_date              2012-12-11T15:52:19-0500
_audit_creation_method            fapswitch 2.2
_symmetry_space_group_name_H-M    P1
_symmetry_Int_Tables_number       1
_space_group_crystal_system       triclinic
_cell_length_a                    11.091994
_cell_length_b                    11.084649
_cell_length_c                    18.775522
_cell_angle_alpha                 90.198977
_cell_angle_beta                  90.035059
_cell_angle_gamma                 119.923033
_cell_volume                      2000.72002813

loop_
_atom_site_label
_atom_site_type_symbol
_atom_type_description
_atom_site_fract_x
_atom_site_fract_y
_atom_site_fract_z
_atom_type_partial_charge
C1    C     C_R   0.518430 0.458283 0.148527 0.576813
C2    C     C_3   0.986323 0.729685 0.466347 0.180886
C3    C     C_3   0.706012 0.945793 0.444706 0.170421
C4    C     C_3   0.249501 0.287800 0.448973 0.185674
C5    C     C_R   0.518367 0.457564 0.353062 0.550845
C6    C     C_R   0.542305 0.060000 0.352922 0.524320
C7    C     C_R   0.875416 0.454359 0.361064 0.572973
C8    C     C_R   0.453383 0.519702 0.645221 0.550369
C9    C     C_R   0.059214 0.542459 0.647068 0.523789
C10   C     C_R   0.453618 0.875053 0.638791 0.564108
C11   C     C_R   0.499332 0.968694 0.930082 -0.035230
C12   C     C_R   0.541644 0.061112 0.148017 0.575839
C13   C     C_R   0.028071 0.531304 0.929406 -0.029727
C14   C     C_R   0.449796 0.518317 0.934574 -0.029689
C15   C     C_R   0.003116 0.502644 0.078471 0.012243
C16   C     C_R   0.497012 0.993646 0.079107 0.013171
C17   C     C_R   0.490512 0.503628 0.081319 0.009361
C18   C     C_R   0.413701 0.010396 0.962109 0.042054
C19   C     C_R   0.980462 0.403192 0.960745 0.041432
C20   C     C_R   0.581222 0.594840 0.964389 0.054700
C21   C     C_R   0.965183 0.388260 0.033532 0.063892
C22   C     C_R   0.416474 0.027551 0.034922 0.062628
C23   C     C_R   0.938182 0.480240 0.147843 0.594663
C24   C     C_R   0.601669 0.584272 0.035925 0.061465
C25   C     C_R   0.565530 0.928609 0.048638 0.218365
C26   C     C_R   0.069318 0.636443 0.048582 0.218258
C27   C     C_R   0.354307 0.438424 0.053383 0.221757
C28   C     C_R   0.069044 0.650049 0.974441 0.204614
C29   C     C_R   0.579340 0.929856 0.974498 0.197307
C30   C     C_R   0.335772 0.433167 0.979452 0.191122
C31   C     C_3   0.408341 0.140323 0.948717 -0.248502
C32   C     C_3   0.847110 0.272672 0.946685 -0.256189
C33   C     C_3   0.710092 0.591177 0.944774 -0.236823
C34   C     C_R   0.427393 0.539458 0.860436 0.582838
C35   C     C_3   0.830804 0.254913 0.026659 -0.217202
C36   C     C_3   0.410738 0.158858 0.028700 -0.213070
C37   C     C_3   0.733421 0.582112 0.023547 -0.225239
C38   C     C_R   0.462047 0.905749 0.563091 0.026213
C39   C     C_R   0.974916 0.497087 0.582362 -0.013029
C40   C     C_R   0.472379 0.503864 0.570795 0.034245
C41   C     C_R   0.903764 0.464721 0.437108 0.028352
C42   C     C_R   0.493583 0.981107 0.418570 -0.001798
C43   C     C_R   0.496538 0.498995 0.422650 0.012592
C44   C     C_R   0.544049 0.875645 0.518121 0.002298
C45   C     C_R   0.068009 0.548277 0.854534 0.564187
C46   C     C_R   0.937327 0.586313 0.548608 0.000483
C47   C     C_R   0.354018 0.437269 0.527438 0.026054
C48   C     C_R   0.909623 0.574335 0.476934 -0.011786
C49   C     C_R   0.555317 0.906878 0.446018 0.026256
C50   C     C_R   0.365530 0.434930 0.454370 0.054050
C51   C     C_R   0.406378 0.005448 0.462900 -0.093555
C52   C     C_R   0.913495 0.360103 0.473748 -0.095489
C53   C     C_R   0.613249 0.573603 0.465975 -0.117607
C54   C     C_R   0.951520 0.377871 0.545614 -0.104968
C55   C     C_R   0.388251 0.965104 0.533744 -0.112457
C56   C     C_R   0.479556 0.931449 0.854767 0.569336
C57   C     C_R   0.601782 0.574504 0.539491 -0.188298
C58   C     C_3   0.859131 0.047546 0.611600 -0.112908
C59   C     C_3   0.916372 0.771318 0.653283 -0.127958
C60   C     C_3   0.218732 0.134516 0.620831 -0.128711
C61   C     C_3   0.125447 0.865843 0.373891 -0.077137
C62   C     C_3   0.725683 0.859259 0.335245 -0.085786
C63   C     C_3   0.069284 0.175060 0.368030 -0.127466
C64   C     C_3   0.695783 0.923152 0.524563 0.189218
C65   C     C_3   0.008558 0.742611 0.546770 0.176029
C66   C     C_3   0.242266 0.287697 0.529501 0.180873
Cl1   Cl    Cl    0.651118 0.863396 0.102801 -0.539071
Cl2   Cl    Cl    0.138793 0.787040 0.103420 -0.522362
Cl3   Cl    Cl    0.206688 0.349894 0.109069 -0.513416
Cl4   Cl    Cl    0.096089 0.811818 0.942211 -0.530454
Cl5   Cl    Cl    0.717665 0.908638 0.941802 -0.537101
Cl6   Cl    Cl    0.178724 0.295295 0.945043 -0.532546
Cr1   Cr    Cr6+3 0.769160 0.541570 0.250690 1.037741
Cr2   Cr    Cr6+3 0.458430 0.227590 0.250690 1.041111
Cr3   Cr    Cr6+3 0.772410 0.230840 0.250690 1.042885
Cr4   Cr    Cr6+3 0.541570 0.769160 0.749310 1.031570
Cr5   Cr    Cr6+3 0.227590 0.458430 0.749310 1.033366
Cr6   Cr    Cr6+3 0.230840 0.772410 0.749310 1.020560
H1    H     H_    0.308652 0.118379 0.923678 0.243377
H2    H     H_    0.839959 0.165616 0.046600 0.250773
H3    H     H_    0.312028 0.147061 0.050051 0.248361
H4    H     H_    0.825170 0.677124 0.044997 0.245090
H5    H     H_    0.363231 0.068134 0.445086 0.142835
H6    H     H_    0.904176 0.271639 0.445651 0.171345
H7    H     H_    0.713639 0.620223 0.442689 0.166913
H8    H     H_    0.975505 0.306462 0.570342 0.145024
H9    H     H_    0.326459 0.991740 0.566986 0.160500
H10   H     H_    0.692459 0.625227 0.572316 0.173657
H11   H     H_    0.716015 0.839589 0.542081 0.164330
H12   H     H_    0.865019 0.193961 0.919619 0.243862
H13   H     H_    0.119199 0.797524 0.562620 0.159438
H14   H     H_    0.141541 0.270590 0.549448 0.114757
H15   H     H_    0.922092 0.775331 0.448436 0.151016
H16   H     H_    0.780992 0.053888 0.429958 0.146873
H17   H     H_    0.280389 0.213139 0.428308 0.131949
H18   H     H_    0.943950 0.042607 0.583228 0.140277
H19   H     H_    0.805212 0.960203 0.648738 0.157671
H20   H     H_    0.903366 0.141249 0.646059 0.125668
H21   H     H_    0.017002 0.837089 0.680973 0.146808
H22   H     H_    0.870521 0.659240 0.666132 0.156637
H23   H     H_    0.790058 0.689940 0.920251 0.242199
H24   H     H_    0.840557 0.797302 0.675693 0.113153
H25   H     H_    0.140163 0.028094 0.605013 0.142288
H26   H     H_    0.166782 0.183902 0.649543 0.122463
H27   H     H_    0.290868 0.126997 0.659133 0.163338
H28   H     H_    0.146946 0.966469 0.397144 0.075367
H29   H     H_    0.031808 0.825201 0.339280 0.143191
H30   H     H_    0.213997 0.884002 0.339449 0.178474
H31   H     H_    0.760012 0.791198 0.309853 0.161358
H32   H     H_    0.799074 0.966377 0.317082 0.121172
H33   H     H_    0.618222 0.824991 0.316533 0.174730
H34   H     H_    0.741064 0.262550 0.047304 0.089488
H35   H     H_    0.015503 0.074571 0.396913 0.113574
H36   H     H_    0.144270 0.175743 0.328454 0.147960
H37   H     H_    0.990175 0.186955 0.337769 0.169152
H38   H     H_    0.507254 0.251597 0.047920 0.094464
H39   H     H_    0.726226 0.482040 0.038885 0.086887
H40   H     H_    0.503243 0.222324 0.921899 0.105042
H41   H     H_    0.767561 0.291633 0.921178 0.101096
H42   H     H_    0.687705 0.495579 0.914652 0.107329
O1    O     O_R   0.911480 0.572650 0.170990 -0.467300
O2    O     O_R   0.528970 0.640340 0.824320 -0.479742
O3    O     O_R   0.111370 0.471030 0.824320 -0.475202
O4    O     O_R   0.359660 0.888630 0.824320 -0.466940
O5    O     O_R   0.909980 0.572450 0.331530 -0.498435
O6    O     O_R   0.427550 0.337530 0.331530 -0.530354
O7    O     O_R   0.662470 0.090020 0.331530 -0.564700
O8    O     O_R   0.572450 0.909980 0.668470 -0.492811
O9    O     O_R   0.337530 0.427550 0.668470 -0.517407
O10   O     O_R   0.090020 0.662470 0.668470 -0.563373
O11   O     O_R   0.638950 0.528780 0.324500 -0.536990
O12   O     O_R   0.427350 0.338830 0.170990 -0.466101
O13   O     O_R   0.471220 0.110170 0.324500 -0.521626
O14   O     O_R   0.889830 0.361050 0.324500 -0.494229
O15   O     O_R   0.528780 0.638950 0.675500 -0.542007
O16   O     O_R   0.110170 0.471220 0.675500 -0.517688
O17   O     O_R   0.361050 0.889830 0.675500 -0.528307
O18   O     O_3   0.666667 0.333333 0.250560 -0.307928
O19   O     O_3   0.333333 0.666667 0.749440 -0.306628
O20   O     O_3   0.765871 0.051362 0.562063 -0.583017
O21   O     O_3   0.929002 0.795948 0.578985 -0.657828
O22   O     O_3   0.294550 0.206070 0.559778 -0.605126
O23   O     O_R   0.661170 0.088520 0.170990 -0.473241
O24   O     O_3   0.111599 0.772604 0.428573 -0.564360
O25   O     O_3   0.728971 0.846083 0.409750 -0.639739
O26   O     O_3   0.133533 0.286098 0.416785 -0.586857
O27   O     O_R   0.572650 0.911480 0.829010 -0.462394
O28   O     O_R   0.338830 0.427350 0.829010 -0.463427
O29   O     O_R   0.088520 0.661170 0.829010 -0.466024
O30   O     O_R   0.640340 0.528970 0.175680 -0.493004
O31   O     O_R   0.471030 0.111370 0.175680 -0.486399
O32   O     O_R   0.888630 0.359660 0.175680 -0.478456

loop_
_geom_bond_atom_site_label_1
_geom_bond_atom_site_label_2
_ccdc_geom_bond_type
C44   C49   A    
C40   C47   A    
C13   C45   S    
C23   O32   A    
Cr1   O11   S    
C11   C18   A    
Cr2   O12   S    
Cr1   O30   S    
C2    O24   S    
C58   H20   S    
C1    O12   A    
Cr6   O19   S    
C3    C49   S    
Cr3   O14   S    
C23   O1    A    
C63   O26   S    
C9    O10   A    
C45   O3    A    
Cr2   O18   S    
C33   H23   S    
C56   O4    A    
C19   C21   A    
C6    O7    A    
C6    O13   A    
C39   C54   A    
Cr1   O18   S    
Cr2   O13   S    
C35   H2    S    
C9    C39   S    
C59   H21   S    
C52   H6    S    
C61   H30   S    
C58   H18   S    
C60   O22   S    
C63   H36   S    
C34   O28   A    
C43   C53   A    
C32   H12   S    
C38   C55   A    
C20   C24   A    
Cr4   O27   S    
C62   O25   S    
C25   Cl1   S    
C5    O6    A    
C13   C28   A    
Cr5   O16   S    
C27   C30   A    
C60   H25   S    
Cr6   O4    S    
C36   H3    S    
C41   C52   A    
C45   O29   A    
C27   Cl3   S    
C42   C51   A    
C63   H37   S    
C2    C65   S    
C15   C23   S    
C5    C43   S    
C34   O2    A    
C8    O15   A    
C59   H22   S    
C12   O31   A    
C58   H19   S    
C64   H11   S    
C14   C30   A    
C10   O8    A    
C19   C32   S    
Cr4   O15   S    
C52   C54   A    
C47   C50   A    
C25   C29   A    
C46   C48   A    
C17   C24   A    
C13   C19   A    
C17   C27   A    
C32   C35   S    
C12   C16   S    
C46   C65   S    
C54   H8    S    
C53   C57   A    
C15   C26   A    
C66   H14   S    
C2    C48   S    
C3    C64   S    
C44   C64   S    
C4    C50   S    
C31   H40   S    
C38   C44   A    
Cr5   O3    S    
C14   C20   A    
C4    H17   S    
C65   O21   S    
C61   O24   S    
C62   H32   S    
C5    O11   A    
Cr3   O32   S    
C4    O26   S    
C24   C37   S    
C1    O30   A    
Cr5   O9    S    
C62   H33   S    
C61   H28   S    
Cr5   O28   S    
C59   O21   S    
C60   H27   S    
Cr3   O23   S    
C7    O14   A    
C39   C46   A    
C21   C35   S    
C20   C33   S    
C10   O17   A    
C3    O25   S    
Cr1   O1    S    
Cr4   O8    S    
Cr2   O31   S    
C32   H41   S    
C36   H38   S    
Cr6   O17   S    
C51   H5    S    
C64   O20   S    
Cr4   O19   S    
C58   O20   S    
C16   C25   A    
C65   H13   S    
C16   C22   A    
C40   C57   A    
C47   C66   S    
C18   C22   A    
C59   H24   S    
C26   C28   A    
C2    H15   S    
C28   Cl4   S    
Cr5   O19   S    
Cr3   O18   S    
C14   C34   S    
C30   Cl6   S    
C57   H10   S    
C43   C50   A    
C31   H1    S    
C66   O22   S    
C22   C36   S    
C1    C17   S    
C12   O23   A    
C10   C38   S    
C26   Cl2   S    
C56   O27   A    
Cr6   O10   S    
Cr4   O2    S    
C4    C66   S    
Cr2   O6    S    
C62   H31   S    
Cr1   O5    S    
C41   C48   A    
C3    H16   S    
C51   C55   A    
C7    O5    A    
C55   H9    S    
C37   H4    S    
C33   C37   S    
C7    C41   S    
C35   H34   S    
C42   C49   A    
C63   H35   S    
C9    O16   A    
C15   C21   A    
C37   H39   S    
C11   C29   A    
C33   H42   S    
C6    C42   S    
C61   H29   S    
C8    O9    A    
C31   C36   S    
C53   H7    S    
C18   C31   S    
C8    C40   S    
C60   H26   S    
C11   C56   S    
Cr6   O29   S    
C29   Cl5   S    
Cr3   O7    S    
