data_mof_unit_67031.cif
_audit_creation_date              2012-12-11T17:41:16-0500
_audit_creation_method            fapswitch 2.2
_symmetry_space_group_name_H-M    P1
_symmetry_Int_Tables_number       1
_space_group_crystal_system       triclinic
_cell_length_a                    8.320019
_cell_length_b                    12.935217
_cell_length_c                    14.089654
_cell_angle_alpha                 92.11144
_cell_angle_beta                  90.308586
_cell_angle_gamma                 98.431274
_cell_volume                      1498.85055516

loop_
_atom_site_label
_atom_site_type_symbol
_atom_type_description
_atom_site_fract_x
_atom_site_fract_y
_atom_site_fract_z
_atom_type_partial_charge
Ba1   Ba    Ba6+2 0.855630 0.555280 0.454520 1.705856
Ba2   Ba    Ba6+2 0.334200 0.444810 0.545490 1.677869
C1    C     C_3   0.605676 0.885477 0.078359 -0.309371
C2    C     C_R   0.176859 0.501328 0.197103 0.107056
C3    C     C_R   0.324675 0.557013 0.228017 -0.251193
C4    C     C_3   0.141616 0.875375 0.185944 0.292283
C5    C     C_R   0.440236 0.595362 0.162867 0.075368
C6    C     C_R   0.406173 0.586323 0.065526 -0.063612
C7    C     C_R   0.251742 0.540570 0.032692 0.026050
C8    C     C_R   0.138296 0.491438 0.097585 -0.047922
C9    C     C_R   0.054232 0.502542 0.901558 -0.037186
C10   C     C_R   0.941352 0.451948 0.965925 -0.028266
C11   C     C_R   0.007094 0.505825 0.804316 0.052908
C12   C     C_3   0.650256 0.841017 0.172119 0.802115
C13   C     C_R   0.850702 0.463212 0.774851 -0.309448
C14   C     C_R   0.736666 0.422819 0.839728 0.031545
C15   C     C_R   0.782276 0.414117 0.934477 -0.122530
C16   C     C_3   0.066323 0.932152 0.106126 -0.345772
C17   C     C_R   0.208792 0.547166 0.936730 0.009023
C18   C     C_R   0.767487 0.173345 0.518409 -0.233385
C19   C     C_R   0.437735 0.814139 0.451657 -0.184377
C20   C     C_R   0.409194 0.992909 0.419077 -0.052815
C21   C     C_R   0.349299 0.886106 0.410765 0.008752
C22   C     C_R   0.581306 0.846557 0.504757 0.041565
C23   C     C_3   0.468468 0.331424 0.261397 0.326146
C24   C     C_R   0.646791 0.956302 0.508733 -0.022833
C25   C     C_R   0.559509 0.029852 0.464164 0.057438
C26   C     C_R   0.621643 0.139395 0.470874 0.113936
C27   C     C_R   0.856452 0.103591 0.558279 0.001272
C28   C     C_3   0.219923 0.758304 0.650110 0.276510
C29   C     C_R   0.794595 0.996132 0.556857 -0.071220
C30   C     C_3   0.215864 0.874200 0.666954 -0.328773
C31   C     C_3   0.945798 0.221237 0.293281 0.332492
C32   C     C_3   0.059623 0.139080 0.304523 -0.270661
C33   C     C_3   0.722055 0.681217 0.741262 0.315240
C34   C     C_3   0.487324 0.330483 0.153925 -0.297765
C35   C     C_3   0.735194 0.707303 0.847581 -0.379144
C36   C     C_2   0.801505 0.168651 0.236190 0.859777
C37   C     C_2   0.171409 0.132145 0.220204 0.864580
C38   C     C_2   0.488897 0.083795 0.743745 0.792519
C39   C     C_2   0.149399 0.769375 0.145609 0.840545
C40   C     C_3   0.936884 0.181409 0.787474 0.270439
C41   C     C_3   0.897261 0.137444 0.884911 -0.313161
C42   C     C_3   0.411745 0.159335 0.804933 0.355713
C43   C     C_3   0.322823 0.102575 0.887010 -0.383615
C44   C     C_R   0.986417 0.442331 0.061353 -0.019951
F1    F     F_    0.511221 0.818003 0.225939 -0.793546
H1    H     H_    0.733686 0.901475 0.212572 0.073963
H2    H     H_    0.716697 0.921485 0.041925 0.059249
H3    H     H_    0.827200 0.777627 0.861782 0.132817
H4    H     H_    0.772088 0.641264 0.886081 0.054306
H5    H     H_    0.615835 0.723106 0.874835 0.122557
H6    H     H_    0.525696 0.945989 0.090895 0.088322
H7    H     H_    0.340225 0.334108 0.279452 -0.002404
H8    H     H_    0.545514 0.402775 0.291078 0.030743
H9    H     H_    0.448375 0.251695 0.121136 0.167183
H10   H     H_    0.413403 0.384210 0.121650 0.026047
H11   H     H_    0.616356 0.355267 0.136849 0.123661
H12   H     H_    0.289027 0.902292 0.731123 0.139207
H13   H     H_    0.541054 0.822333 0.030933 0.143583
H14   H     H_    0.163422 0.977358 0.064367 0.112570
H15   H     H_    0.999478 0.263143 0.797764 0.038270
H16   H     H_    0.820083 0.181724 0.748738 0.019228
H17   H     H_    0.004130 0.154211 0.932968 0.123458
H18   H     H_    0.797945 0.174625 0.917596 0.145777
H19   H     H_    0.858784 0.051561 0.878662 0.158097
H20   H     H_    0.322747 0.195108 0.762760 0.090490
H21   H     H_    0.406995 0.062980 0.929592 0.149669
H22   H     H_    0.221120 0.043230 0.860241 0.106107
H23   H     H_    0.265501 0.917560 0.604767 0.109657
H24   H     H_    0.275207 0.160448 0.935122 0.138626
H25   H     H_    0.356183 0.562576 0.302862 0.045087
H26   H     H_    0.498286 0.617760 0.016049 0.042877
H27   H     H_    0.694392 0.375588 0.982637 0.095750
H28   H     H_    0.815387 0.463783 0.700826 0.064556
H29   H     H_    0.898325 0.401046 0.107366 0.144496
H30   H     H_    0.296184 0.590532 0.891363 0.099277
H31   H     H_    0.333425 0.046947 0.394379 0.110275
H32   H     H_    0.862273 0.945383 0.594497 0.100637
H33   H     H_    0.813779 0.256089 0.524097 0.042741
H34   H     H_    0.089021 0.888480 0.678636 0.124304
H35   H     H_    0.267188 0.911504 0.203395 0.062889
H36   H     H_    0.386950 0.732135 0.448660 0.043536
H37   H     H_    0.990534 0.877489 0.055173 0.096018
H38   H     H_    0.981856 0.983615 0.135118 0.134347
H39   H     H_    0.344789 0.745467 0.632580 -0.006650
H40   H     H_    0.136748 0.731303 0.589525 0.079098
H41   H     H_    0.612168 0.052793 0.228631 0.320857
H42   H     H_    0.372788 0.084271 0.168496 0.293101
H43   H     H_    0.625266 0.967163 0.735774 0.312078
H44   H     H_    0.992136 0.647499 0.105474 0.303882
H45   H     H_    0.906774 0.250777 0.362898 -0.126168
H46   H     H_    0.991760 0.060501 0.317401 0.074052
H47   H     H_    0.131626 0.159968 0.368913 0.080084
H48   H     H_    0.842326 0.666646 0.715260 0.014364
H49   H     H_    0.630090 0.610449 0.728870 0.039669
O1    O     O_2   0.887370 0.460630 0.272300 -0.455593
O2    O     O_2   0.193486 0.110704 0.578032 -0.451967
O3    O     O_3   0.038019 0.119974 0.738008 -0.625788
O4    O     O_3   0.129410 0.451380 0.388510 -0.501176
O5    O     O_3   0.575400 0.626570 0.547370 -0.496791
O6    O     O_2   0.344320 0.238700 0.455090 -0.477682
O7    O     O_3   0.515008 0.239482 0.294987 -0.599139
O8    O     O_2   0.394415 0.400502 0.840173 -0.506814
O9    O     O_3   0.535992 0.233161 0.843710 -0.651438
O10   O     O_3   0.670210 0.653170 0.329170 -0.431104
O11   O     O_2   0.745075 0.558470 0.167356 -0.503615
O12   O     O_3   0.674822 0.766517 0.696244 -0.641065
O13   O     O_3   0.029226 0.300058 0.240151 -0.634787
O14   O     O_3   0.735478 0.755928 0.152924 -0.594449
O15   O     O_2   0.845380 0.761330 0.544970 -0.473405
O16   O     O_3   0.088930 0.704860 0.376040 -0.443074
O17   O     O_2   0.029779 0.881626 0.448051 -0.488121
O18   O     O_2   0.774030 0.196922 0.156567 -0.605372
O19   O     O_R   0.703753 0.083078 0.273182 -0.813728
O20   O     O_2   0.136980 0.161867 0.142054 -0.611977
O21   O     O_R   0.312914 0.088761 0.230617 -0.777984
O22   O     O_2   0.476550 0.085832 0.657799 -0.647488
O23   O     O_3   0.041267 0.875181 0.266388 -0.591324
O24   O     O_R   0.578259 0.013211 0.784805 -0.778408
O25   O     O_2   0.243857 0.759035 0.081268 -0.666701
O26   O     O_R   0.027811 0.688924 0.165969 -0.686302
O27   O     O_2   0.302330 0.539400 0.727760 -0.474995
O28   O     O_3   0.060300 0.548700 0.611500 -0.503469
O29   O     O_3   0.519500 0.346920 0.670840 -0.468073
O30   O     O_3   0.173324 0.708269 0.734075 -0.630864
O31   O     O_3   0.614310 0.373510 0.452640 -0.492072
O32   O     O_3   0.100780 0.295230 0.623970 -0.478784
P1    P     P_3+3 0.054400 0.427280 0.286870 1.001624
P2    P     P_3+3 0.668300 0.742890 0.573060 0.967408
P3    P     P_3+3 0.135910 0.840147 0.370226 1.000987
P4    P     P_3+3 0.135310 0.572810 0.713130 0.969731
P5    P     P_3+3 0.048066 0.158135 0.620052 0.955133
P6    P     P_3+3 0.644957 0.641516 0.205218 1.077684
P7    P     P_3+3 0.524382 0.245035 0.418611 0.986744
P8    P     P_3+3 0.541046 0.356556 0.795521 0.931449

loop_
_geom_bond_atom_site_label_1
_geom_bond_atom_site_label_2
_ccdc_geom_bond_type
Ba1   O15   S    
C38   O22   D    
C28   O30   S    
C4    H35   S    
O27   P4    D    
C43   H24   S    
C26   P7    S    
C9    C11   A    
C13   H28   S    
C32   H46   S    
O10   P6    S    
C44   H29   S    
C1    H2    S    
C5    C6    A    
C33   H49   S    
C30   H34   S    
O2    P5    D    
C9    C17   A    
C24   C25   A    
C33   C35   S    
O31   P7    S    
C3    H25   S    
Ba1   P1    S    
Ba2   P4    S    
Ba1   O16   S    
C36   O18   D    
Ba2   O6    S    
C13   C14   A    
O28   P4    S    
Ba1   Ba2   S    
C39   O25   D    
C17   H30   S    
O7    P7    S    
O6    P7    D    
C33   O12   S    
C7    C17   A    
C19   H36   S    
C14   C15   A    
C4    C39   S    
C10   C15   A    
C8    C44   A    
O23   P3    S    
C28   H39   S    
O17   P3    D    
C7    C8    A    
C40   H15   S    
O12   P2    S    
Ba1   O10   S    
Ba2   O31   S    
Ba2   O4    S    
C24   C29   A    
Ba1   O4    S    
C41   H17   S    
C31   C32   S    
C18   C27   A    
C4    C16   S    
C16   H38   S    
C18   H33   S    
C36   O19   S    
C43   H22   S    
C32   C37   S    
Ba1   O31   S    
C23   H7    S    
C20   H31   S    
C5    P6    S    
C10   C44   A    
C34   H10   S    
C31   H45   S    
Ba1   O1    S    
C3    C5    A    
C35   H5    S    
O4    P1    S    
C6    C7    A    
C12   H1    S    
C18   C26   A    
Ba2   O5    S    
C42   O9    S    
H44   O26   S    
H43   O24   S    
C39   O26   S    
C34   H9    S    
O15   P2    D    
C16   H37   S    
O30   P4    S    
C41   H18   S    
C43   H21   S    
C27   P5    S    
C21   P3    S    
C12   F1    S    
C1    C12   S    
O9    P8    S    
O29   P8    S    
C38   O24   S    
H42   O21   S    
Ba1   P2    S    
Ba2   O28   S    
C20   C25   A    
C11   C13   A    
O13   P1    S    
C15   H27   S    
O14   P6    S    
C31   O13   S    
C40   C41   S    
C2    C8    A    
C14   P8    S    
Ba1   O5    S    
C4    O23   S    
C42   C43   S    
C12   O14   S    
O8    P8    D    
C23   O7    S    
C32   H47   S    
C22   C24   A    
C2    C3    A    
C30   H23   S    
C9    C10   A    
C16   H14   S    
C29   H32   S    
C2    P1    S    
C33   H48   S    
O11   P6    D    
C34   H11   S    
C31   C36   S    
H41   O19   S    
C19   C21   A    
Ba1   O28   S    
O1    P1    D    
C27   C29   A    
C37   O21   S    
O32   P5    S    
O5    P2    S    
C28   C30   S    
C35   H3    S    
C1    H6    S    
C41   H19   S    
C35   H4    S    
C6    H26   S    
C11   P4    S    
C23   H8    S    
O16   P3    S    
C23   C34   S    
Ba2   O29   S    
C22   P2    S    
C38   C42   S    
O3    P5    S    
C37   O20   D    
C19   C22   A    
C25   C26   A    
C20   C21   A    
C42   H20   S    
C30   H12   S    
C28   H40   S    
C40   O3    S    
C1    H13   S    
C40   H16   S    
Ba2   O27   S    
Ba2   O32   S    
