data_mof_unit_25441.cif
_audit_creation_date              2012-12-11T15:14:39-0500
_audit_creation_method            fapswitch 2.2
_symmetry_space_group_name_H-M    P1
_symmetry_Int_Tables_number       1
_space_group_crystal_system       triclinic
_cell_length_a                    22.328751
_cell_length_b                    7.228316
_cell_length_c                    19.2098
_cell_angle_alpha                 89.999634
_cell_angle_beta                  99.057388
_cell_angle_gamma                 89.999916
_cell_volume                      3061.78867141

loop_
_atom_site_label
_atom_site_type_symbol
_atom_type_description
_atom_site_fract_x
_atom_site_fract_y
_atom_site_fract_z
_atom_type_partial_charge
O1    O     O_R   0.448470 0.506130 0.415700 -0.532509
O2    O     O_R   0.551530 0.006130 0.584300 -0.532510
O3    O     O_R   0.436320 0.174490 0.555800 -0.529914
O4    O     O_R   0.563680 0.674490 0.444200 -0.529914
C1    C     C_R   0.421087 0.344424 0.575052 0.698604
C2    C     C_R   0.578913 0.844425 0.424948 0.698605
O5    O     O_R   0.441350 0.176340 0.414480 -0.534299
O6    O     O_R   0.558650 0.676340 0.585520 -0.534300
O7    O     O_R   0.556600 0.007100 0.441970 -0.533178
O8    O     O_R   0.443400 0.507100 0.558030 -0.533177
C3    C     C_R   0.427297 0.344683 0.388986 0.674906
C4    C     C_R   0.572703 0.844682 0.611014 0.674906
O9    O     O_3   0.537810 0.339550 0.509190 -0.371106
O10   O     O_3   0.462190 0.839550 0.490810 -0.371106
V1    V     V_3+5 0.492990 0.064280 0.498300 1.477290
V2    V     V_3+5 0.507010 0.564280 0.501700 1.477291
C5    C     C_R   0.868637 0.927239 0.694212 -0.092932
C6    C     C_R   0.131362 0.427198 0.305788 -0.092930
H1    H     H_    0.888690 0.927578 0.646539 0.218136
H2    H     H_    0.111308 0.427518 0.353461 0.218136
C7    C     C_R   0.884470 0.938837 0.821732 -0.148413
C8    C     C_R   0.115530 0.438831 0.178268 -0.148412
C9    C     C_R   0.591258 0.798214 0.739280 -0.151989
C10   C     C_R   0.408744 0.298244 0.260719 -0.151992
C11   C     C_R   0.629423 0.774137 0.803084 -0.101274
C12   C     C_R   0.370579 0.274178 0.196914 -0.101273
C13   C     C_R   0.691436 0.806923 0.808298 -0.073319
C14   C     C_R   0.308566 0.306953 0.191700 -0.073318
C15   C     C_R   0.716841 0.874751 0.750503 0.102651
C16   C     C_R   0.283159 0.374758 0.249496 0.102651
C17   C     C_R   0.678125 0.884639 0.683747 0.010749
C18   C     C_R   0.321874 0.384633 0.316253 0.010748
C19   C     C_R   0.780528 0.912885 0.755361 -0.004171
C20   C     C_R   0.219472 0.412881 0.244639 -0.004171
C21   C     C_R   0.805346 0.922980 0.691501 -0.026222
C22   C     C_R   0.194652 0.422952 0.308499 -0.026222
C23   C     C_R   0.766495 0.929015 0.625968 0.292281
C24   C     C_R   0.233503 0.428976 0.374033 0.292284
C25   C     C_R   0.703915 0.917341 0.622966 -0.205605
C26   C     C_R   0.296084 0.417312 0.377035 -0.205602
C27   C     C_R   0.820878 0.941970 0.820478 0.156594
C28   C     C_R   0.179122 0.441978 0.179523 0.156596
C29   C     C_R   0.907736 0.927320 0.758264 0.200065
C30   C     C_R   0.092263 0.427289 0.241735 0.200065
C31   C     C_R   0.614758 0.849736 0.678825 -0.067933
C32   C     C_R   0.385242 0.349742 0.321174 -0.067931
H3    H     H_    0.543379 0.767898 0.736255 0.123501
H4    H     H_    0.456623 0.267938 0.263743 0.123502
H5    H     H_    0.719297 0.766091 0.856800 0.171835
H6    H     H_    0.280706 0.266130 0.143196 0.171833
H7    H     H_    0.611082 0.723761 0.848448 0.147929
H8    H     H_    0.388923 0.223820 0.151547 0.147929
H9    H     H_    0.675712 0.924707 0.571741 0.134512
H10   H     H_    0.324285 0.424670 0.428261 0.134509
C33   C     C_3   0.778602 0.845697 0.316041 -0.176432
C34   C     C_3   0.221397 0.345698 0.683959 -0.176431
C35   C     C_3   0.792149 0.023987 0.276660 0.357767
C36   C     C_3   0.207851 0.523988 0.723340 0.357765
H11   H     H_    0.801399 0.804079 0.369295 0.216740
H12   H     H_    0.198601 0.304081 0.630705 0.216745
H13   H     H_    0.701171 0.198205 0.260240 0.196059
H14   H     H_    0.298830 0.698203 0.739758 0.196058
C37   C     C_1   0.875535 0.940264 0.121452 -0.081772
C38   C     C_1   0.124465 0.440265 0.878548 -0.081776
C39   C     C_1   0.625284 0.854308 0.379860 -0.134310
C40   C     C_1   0.374716 0.354307 0.620139 -0.134310
C41   C     C_3   0.778656 0.733343 0.246926 -0.223151
C42   C     C_3   0.221344 0.233343 0.753074 -0.223150
C43   C     C_3   0.791977 0.912807 0.208403 -0.014932
C44   C     C_3   0.208023 0.412808 0.791597 -0.014931
C45   C     C_3   0.710199 0.772490 0.226465 0.686712
C46   C     C_3   0.289800 0.272489 0.773535 0.686710
C47   C     C_3   0.710080 0.882907 0.294562 -0.020335
C48   C     C_3   0.289920 0.382906 0.705438 -0.020335
C49   C     C_3   0.723443 0.950005 0.186893 -0.221246
C50   C     C_3   0.276557 0.450004 0.813107 -0.221248
C51   C     C_3   0.723450 0.062229 0.256029 -0.239333
C52   C     C_3   0.276550 0.562228 0.743970 -0.239333
C53   C     C_1   0.837777 0.928991 0.160471 0.097262
C54   C     C_1   0.162223 0.428992 0.839529 0.097261
C55   C     C_1   0.663679 0.865916 0.341669 0.092469
C56   C     C_1   0.336321 0.365915 0.658331 0.092470
H15   H     H_    0.700529 0.990971 0.133612 0.177315
H16   H     H_    0.299471 0.490968 0.866388 0.177313
H17   H     H_    0.800771 0.597264 0.242502 0.199610
H18   H     H_    0.199228 0.097265 0.757499 0.199610
O11   O     O_R   0.056650 0.288730 0.942060 -0.535101
O12   O     O_R   0.943350 0.788730 0.057940 -0.535102
O13   O     O_R   0.058660 0.616870 0.085540 -0.523050
O14   O     O_R   0.941340 0.116870 0.914460 -0.523052
C57   C     C_R   0.072819 0.448523 0.111006 0.801162
C58   C     C_R   0.927181 0.948524 0.888994 0.801165
O15   O     O_R   0.063700 0.618520 0.944220 -0.523451
O16   O     O_R   0.936300 0.118520 0.055780 -0.523450
O17   O     O_R   0.948460 0.787610 0.915680 -0.534469
O18   O     O_R   0.051540 0.287610 0.084320 -0.534469
C59   C     C_R   0.078800 0.450019 0.924557 0.740167
C60   C     C_R   0.921200 0.950018 0.075443 0.740172
O19   O     O_3   0.962230 0.453430 0.990860 -0.376734
O20   O     O_3   0.037770 0.953430 0.009140 -0.376733
V3    V     V_3+5 0.007010 0.728750 0.001700 1.580969
V4    V     V_3+5 0.992990 0.228750 0.998300 1.580967
Br1   Br    Br    0.993554 0.924513 0.756461 -0.444929
Br2   Br    Br    0.006445 0.424461 0.243537 -0.444928
F1    F     F_    0.667409 0.641169 0.200611 -0.665816
F2    F     F_    0.332591 0.141166 0.799390 -0.665816
Br3   Br    Br    0.795633 0.956816 0.537403 -0.489004
Br4   Br    Br    0.204364 0.456746 0.462599 -0.489008
Br5   Br    Br    0.793064 0.032434 0.904839 -0.579899
Br6   Br    Br    0.206935 0.532474 0.095165 -0.579894
Br7   Br    Br    0.851628 0.208233 0.313759 -0.398460
Br8   Br    Br    0.148372 0.708236 0.686240 -0.398463

loop_
_geom_bond_atom_site_label_1
_geom_bond_atom_site_label_2
_ccdc_geom_bond_type
C45   C49   S    
C9    C31   A    
C33   H11   S    
C13   C15   A    
C42   H18   S    
C35   Br7   S    
O1    C3    A    
C46   C50   S    
O2    C4    A    
C50   H16   S    
C2    O7    A    
C5    C29   A    
O12   V3    S    
C30   Br2   S    
C37   C53   T    
O5    C3    A    
C25   H9    S    
C36   Br8   S    
C21   C23   A    
C10   C12   A    
C23   Br3   S    
C37   C60   S    
C6    C30   A    
O18   V4    S    
O16   C60   A    
C15   C19   A    
O14   V4    S    
C5    H1    S    
C57   O18   A    
C7    C29   A    
C14   H6    S    
C2    C39   S    
C8    C30   A    
H13   C51   S    
C20   C28   A    
C8    C57   S    
O13   C57   A    
C6    H2    S    
C42   C46   S    
O5    V1    S    
O6    V2    S    
C27   Br5   S    
C24   Br4   S    
C38   C54   T    
C48   C56   S    
C47   C55   S    
O14   C58   A    
C41   H17   S    
C34   C48   S    
C16   C20   A    
C44   C54   S    
C10   H4    S    
C35   C51   S    
C9    H3    S    
C46   C48   S    
O15   V3    S    
C45   C47   S    
C36   C44   S    
C34   C42   S    
C58   O17   A    
C34   H12   S    
C41   C43   S    
O4    V2    S    
C11   H7    S    
C33   C35   S    
C16   C18   A    
C12   H8    S    
C40   C56   T    
O11   V4    S    
C39   C55   T    
O6    C4    A    
O19   V4    S    
O1    V2    S    
O2    V1    S    
C49   C51   S    
C7    C27   A    
O4    C2    A    
C38   C59   S    
C46   F2    S    
C26   H10   S    
C45   F1    S    
C44   C50   S    
C43   C53   S    
O15   C59   A    
O3    V1    S    
O13   V3    S    
C18   C32   A    
H14   C52   S    
C50   C52   S    
C1    C40   S    
O3    C1    A    
C33   C41   S    
C4    C31   S    
C11   C13   A    
C48   C52   S    
C12   C14   A    
C19   C27   A    
C22   C24   A    
O7    V1    S    
C10   C32   A    
C1    O8    A    
C15   C17   A    
O8    V2    S    
C24   C26   A    
C49   H15   S    
C8    C28   A    
C14   C16   A    
O20   V3    S    
C19   C21   A    
C20   C22   A    
C34   C36   S    
C43   C49   S    
C41   C45   S    
C18   C26   A    
C28   Br6   S    
C29   Br1   S    
C36   C52   S    
C33   C47   S    
C13   H5    S    
C9    C11   A    
O16   V4    S    
C23   C25   A    
C17   C31   A    
O9    V2    S    
C17   C25   A    
C42   C44   S    
C47   C51   S    
O10   V1    S    
C3    C32   S    
C5    C21   A    
C35   C43   S    
C6    C22   A    
O12   C60   A    
O17   V3    S    
O11   C59   A    
C7    C58   S    
