data_mof_unit_32665.cif
_audit_creation_date              2012-12-10T17:47:46-0500
_audit_creation_method            fapswitch 2.2
_symmetry_space_group_name_H-M    P1
_symmetry_Int_Tables_number       1
_space_group_crystal_system       triclinic
_cell_length_a                    10.645303
_cell_length_b                    10.699782
_cell_length_c                    9.883406
_cell_angle_alpha                 87.191894
_cell_angle_beta                  90.114874
_cell_angle_gamma                 92.076639
_cell_volume                      1123.6536276

loop_
_atom_site_label
_atom_site_type_symbol
_atom_type_description
_atom_site_fract_x
_atom_site_fract_y
_atom_site_fract_z
_atom_type_partial_charge
C1    C     C_R   0.512513 0.260623 0.504265 0.885434
C2    C     C_R   0.483810 0.054139 0.626126 0.051147
C3    C     C_R   0.534913 0.127871 0.515140 -0.142614
C4    C     C_R   0.257768 0.501089 0.499933 0.817111
C5    C     C_R   0.582968 0.071606 0.401073 0.092314
C6    C     C_R   0.556387 0.944682 0.386009 -0.029698
C7    C     C_R   0.488618 0.874862 0.489079 -0.216413
C8    C     C_R   0.327013 0.342503 0.147390 -0.132869
C9    C     C_R   0.239839 0.267886 0.080227 -0.183339
C10   C     C_R   0.240273 0.268272 0.940203 -0.208242
C11   C     C_R   0.328657 0.342400 0.866783 -0.189043
C12   C     C_3   0.878520 0.503968 0.501452 0.145205
C13   C     C_R   0.414859 0.422765 0.931246 0.149834
C14   C     C_R   0.414461 0.422926 0.075966 0.172782
C15   C     C_R   0.582647 0.572716 0.067884 -0.111386
C16   C     C_R   0.493646 0.740253 0.496264 0.887691
C17   C     C_R   0.582193 0.573221 0.924551 -0.122410
C18   C     C_R   0.742115 0.499985 0.500459 0.843575
C19   C     C_3   0.071570 0.491828 0.647872 -0.410197
C20   C     C_3   0.928812 0.487706 0.648885 -0.376817
C21   C     C_3   0.076646 0.630795 0.433045 -0.193710
C22   C     C_3   0.067208 0.390174 0.424030 -0.396095
C23   C     C_3   0.930595 0.630075 0.432406 -0.033909
C24   C     C_3   0.121282 0.503824 0.499383 0.068123
C25   C     C_2   0.128312 0.662602 0.291829 0.929125
C26   C     C_3   0.666705 0.144293 0.297890 -0.845254
C27   C     C_3   0.261028 0.842334 0.928563 -0.855935
C28   C     C_2   0.596021 0.888323 0.259521 0.957123
C29   C     C_3   0.882751 0.747814 0.497423 -0.896452
C30   C     C_3   0.923697 0.393037 0.420856 -0.453230
C31   C     C_R   0.474223 0.095793 0.759551 -0.220237
C32   C     C_R   0.404986 0.026231 0.858514 -0.142940
C33   C     C_R   0.341547 0.915382 0.826016 0.219437
C34   C     C_R   0.359191 0.869191 0.697957 -0.139574
C35   C     C_R   0.441870 0.932425 0.602954 0.046407
H1    H     H_    0.106978 0.572475 0.706086 0.184162
H2    H     H_    0.173092 0.207660 0.137434 0.154642
H3    H     H_    0.174432 0.207792 0.888195 0.156849
H4    H     H_    0.329302 0.331580 0.760252 0.211692
H5    H     H_    0.649217 0.633086 0.867503 0.153387
H6    H     H_    0.894069 0.396107 0.695743 0.178279
H7    H     H_    0.895087 0.561631 0.713753 0.188113
H8    H     H_    0.113653 0.705724 0.498704 0.122039
H9    H     H_    0.103711 0.389479 0.319032 0.220700
H10   H     H_    0.096297 0.301492 0.476827 0.157873
H11   H     H_    0.883518 0.302752 0.465519 0.164282
H12   H     H_    0.891764 0.402028 0.313574 0.206376
H13   H     H_    0.134123 0.620543 0.095103 0.342051
H14   H     H_    0.753047 0.092404 0.279990 0.242804
H15   H     H_    0.615313 0.158556 0.200758 0.248526
H16   H     H_    0.700671 0.236081 0.333295 0.236769
H17   H     H_    0.255672 0.891282 0.024813 0.288348
H18   H     H_    0.164299 0.829432 0.888074 0.218463
H19   H     H_    0.301066 0.749048 0.950453 0.250832
H20   H     H_    0.548110 0.841616 0.070567 0.331719
H21   H     H_    0.916827 0.754590 0.603059 0.235634
H22   H     H_    0.917410 0.832939 0.438059 0.267690
H23   H     H_    0.895274 0.634596 0.326058 0.205863
H24   H     H_    0.778553 0.747864 0.497384 0.255907
H25   H     H_    0.525370 0.177929 0.791962 0.183862
H26   H     H_    0.400125 0.059727 0.959928 0.183580
H27   H     H_    0.310787 0.782041 0.674488 0.147610
H28   H     H_    0.650501 0.631505 0.118924 0.177943
H29   H     H_    0.104778 0.404737 0.700493 0.187661
H30   H     H_    0.323501 0.333163 0.254878 0.197650
N1    N     N_R   0.498810 0.498800 0.142780 -0.117052
N2    N     N_R   0.498760 0.498720 0.857170 -0.123057
O1    O     O_R   0.500000 0.316780 0.614690 -0.655285
O2    O     O_R   0.092076 0.590367 0.183243 -0.824409
O3    O     O_2   0.703450 0.853708 0.247732 -0.677298
O4    O     O_R   0.509831 0.876953 0.153686 -0.784037
O5    O     O_R   0.499990 0.316750 0.385360 -0.627614
O6    O     O_R   0.314800 0.499990 0.614670 -0.648559
O7    O     O_R   0.314790 0.499970 0.385330 -0.623029
O8    O     O_R   0.500010 0.683250 0.614640 -0.619384
O9    O     O_R   0.500000 0.683220 0.385310 -0.572890
O10   O     O_R   0.685210 0.500030 0.614670 -0.627206
O11   O     O_R   0.685200 0.500010 0.385330 -0.631350
O12   O     O_2   0.201470 0.752561 0.273155 -0.621776
Zn1   Zn    Zn3+2 0.500010 0.500020 0.653130 0.917618
Zn2   Zn    Zn3+2 0.499990 0.499980 0.346870 0.969079

loop_
_geom_bond_atom_site_label_1
_geom_bond_atom_site_label_2
_ccdc_geom_bond_type
C2    C35   A    
O1    Zn1   S    
C23   H23   S    
C16   O8    A    
C19   C20   S    
H13   O2    S    
C20   H6    S    
C27   H19   S    
C27   C33   S    
C12   C23   S    
C23   C29   S    
C32   H26   S    
C19   H1    S    
C26   H15   S    
C5    C6    A    
C4    C24   S    
C34   H27   S    
C1    O1    A    
C34   C35   A    
C21   H8    S    
C22   H9    S    
C29   H24   S    
C8    C9    A    
C9    C10   A    
C4    O7    A    
O5    Zn2   S    
C8    H30   S    
C16   O9    A    
C13   C14   A    
C6    C28   S    
C17   N2    A    
C1    O5    A    
C30   H12   S    
C22   H10   S    
C26   H14   S    
C15   N1    A    
C2    C31   A    
C1    C3    S    
C17   H5    S    
C31   H25   S    
C31   C32   A    
C19   H29   S    
C18   O11   A    
C12   C20   S    
C9    H2    S    
C33   C34   A    
C14   N1    A    
C11   H4    S    
C4    O6    A    
C7    C16   S    
C29   H22   S    
C21   C23   S    
C22   C24   S    
C28   O4    S    
C25   O2    S    
O7    Zn2   S    
C27   H17   S    
C13   N2    A    
O10   Zn1   S    
C15   C17   A    
C21   C25   S    
C8    C14   A    
C22   C30   S    
C12   C30   S    
C25   O12   D    
C7    C35   A    
C30   H11   S    
C28   O3    D    
N2    Zn1   S    
C3    C5    A    
O9    Zn2   S    
C20   H7    S    
C27   H18   S    
C6    C7    A    
C29   H21   S    
C10   H3    S    
C32   C33   A    
C2    C3    A    
C26   H16   S    
N1    Zn2   S    
C11   C13   A    
O11   Zn2   S    
C18   O10   A    
O6    Zn1   S    
C19   C24   S    
C10   C11   A    
C5    C26   S    
O8    Zn1   S    
C21   C24   S    
C12   C18   S    
C15   H28   S    
H20   O4    S    
