data_mof_unit_15369.cif
_audit_creation_date              2012-12-11T18:09:08-0500
_audit_creation_method            fapswitch 2.2
_symmetry_space_group_name_H-M    P1
_symmetry_Int_Tables_number       1
_space_group_crystal_system       triclinic
_cell_length_a                    8.214501
_cell_length_b                    12.649416
_cell_length_c                    19.080769
_cell_angle_alpha                 99.21969
_cell_angle_beta                  91.821346
_cell_angle_gamma                 98.464171
_cell_volume                      1932.61241831

loop_
_atom_site_label
_atom_site_type_symbol
_atom_type_description
_atom_site_fract_x
_atom_site_fract_y
_atom_site_fract_z
_atom_type_partial_charge
Ba1   Ba    Ba6+2 0.853180 0.547790 0.465300 1.639573
Ba2   Ba    Ba6+2 0.336650 0.452300 0.534710 1.638470
C1    C     C_3   0.587304 0.872125 0.200423 0.222178
C2    C     C_R   0.016954 0.542720 0.726490 0.056863
C3    C     C_R   0.854501 0.406200 0.810431 -0.164225
C4    C     C_3   0.082200 0.743689 0.269053 0.392478
C5    C     C_R   0.782924 0.414710 0.744535 0.003638
C6    C     C_R   0.341181 0.584231 0.186038 -0.155510
C7    C     C_R   0.409493 0.578858 0.253199 -0.000122
C8    C     C_R   0.136798 0.432256 0.198204 -0.154889
C9    C     C_R   0.171820 0.455647 0.272784 0.057471
C10   C     C_R   0.983473 0.487244 0.844545 0.009705
C11   C     C_R   0.874602 0.472844 0.699784 -0.243836
C12   C     C_3   0.597121 0.827152 0.270295 0.278346
C13   C     C_R   0.209818 0.504285 0.152988 0.005567
C14   C     C_R   0.314734 0.524991 0.298955 -0.244492
C15   C     C_R   0.757493 0.429036 0.957646 -0.083353
C16   C     C_3   0.040765 0.753027 0.191994 -0.361822
C17   C     C_R   0.652173 0.380759 0.002699 -0.070794
C18   C     C_R   0.702162 0.389536 0.073137 -0.069944
C19   C     C_R   0.859353 0.441453 0.096588 -0.089605
C20   C     C_R   0.982418 0.465860 0.048892 0.019267
C21   C     C_R   0.928492 0.461449 0.975677 0.034265
C22   C     C_R   0.152107 0.498120 0.073567 -0.016487
C23   C     C_3   0.478682 0.302285 0.320451 0.304543
C24   C     C_R   0.265348 0.527463 0.021333 0.038955
C25   C     C_R   0.211068 0.524478 0.948342 0.020709
C26   C     C_R   0.041445 0.491958 0.923689 -0.017522
C27   C     C_R   0.436807 0.557657 0.038963 -0.080188
C28   C     C_3   0.238011 0.789355 0.618874 0.276303
C29   C     C_R   0.542874 0.605923 0.994123 -0.067869
C30   C     C_R   0.492116 0.599867 0.924008 -0.066781
C31   C     C_R   0.333558 0.550533 0.900728 -0.079273
C32   C     C_R   0.766800 0.181147 0.521337 -0.274081
C33   C     C_R   0.425360 0.807450 0.469877 -0.277255
C34   C     C_3   0.480036 0.288941 0.239719 -0.424233
C35   C     C_R   0.400736 0.983378 0.441395 -0.118134
C36   C     C_R   0.335119 0.875231 0.439223 -0.013502
C37   C     C_R   0.575375 0.848548 0.508366 0.065001
C38   C     C_R   0.641550 0.960048 0.513250 -0.048152
C39   C     C_R   0.553770 0.027347 0.477915 -0.054724
C40   C     C_3   0.237554 0.910740 0.630527 -0.326304
C41   C     C_R   0.619370 0.137875 0.481980 0.031345
C42   C     C_R   0.857216 0.115650 0.553347 -0.014950
C43   C     C_R   0.793062 0.006442 0.551353 -0.097681
C44   C     C_3   0.952165 0.208338 0.377733 0.282644
C45   C     C_3   0.072957 0.224581 0.728585 0.366476
C46   C     C_3   0.915271 0.085578 0.357478 -0.359350
C47   C     C_3   0.723233 0.701956 0.678763 0.316725
C48   C     C_3   0.743286 0.734975 0.759138 -0.403747
C49   C     C_3   0.403359 0.991721 0.234487 0.281081
C50   C     C_3   0.252161 0.033855 0.208199 -0.291118
C51   C     C_3   0.102398 0.193384 0.801194 -0.363935
C52   C     C_3   0.576218 0.159440 0.690462 0.350911
C53   C     C_3   0.638661 0.087168 0.738563 -0.404880
C54   C     C_R   0.053144 0.562792 0.800922 -0.150097
H1    H     H_    0.637727 0.895124 0.314653 0.002519
H2    H     H_    0.837383 0.674602 0.658967 0.007648
H3    H     H_    0.618975 0.634267 0.666178 0.079422
H4    H     H_    0.688138 0.941318 0.200021 0.006074
H5    H     H_    0.853295 0.798162 0.773845 0.125937
H6    H     H_    0.758723 0.663657 0.784327 0.057705
H7    H     H_    0.632068 0.767345 0.779427 0.125251
H8    H     H_    0.472602 0.790820 0.282697 -0.045101
H9    H     H_    0.362526 0.329536 0.338070 0.007690
H10   H     H_    0.583429 0.366385 0.341154 0.103746
H11   H     H_    0.357489 0.250632 0.214710 0.093783
H12   H     H_    0.309197 0.949498 0.680467 0.120663
H13   H     H_    0.506624 0.369989 0.223866 0.091585
H14   H     H_    0.577338 0.241169 0.219548 0.127838
H15   H     H_    0.608649 0.808258 0.155899 0.071037
H16   H     H_    0.153093 0.783228 0.166255 0.147061
H17   H     H_    0.151248 0.303560 0.726867 0.088978
H18   H     H_    0.941354 0.232447 0.721752 -0.068596
H19   H     H_    0.234423 0.188673 0.810884 0.155595
H20   H     H_    0.066085 0.254615 0.843508 0.067444
H21   H     H_    0.028833 0.113584 0.803856 0.112565
H22   H     H_    0.683615 0.198008 0.664841 -0.076258
H23   H     H_    0.292509 0.945980 0.585614 0.074632
H24   H     H_    0.492856 0.108504 0.647140 0.061224
H25   H     H_    0.721648 0.035700 0.709440 0.097601
H26   H     H_    0.533987 0.034133 0.756481 0.121385
H27   H     H_    0.990084 0.679092 0.283692 0.123163
H28   H     H_    0.708221 0.137848 0.786076 0.110402
H29   H     H_    0.140159 0.633933 0.823039 0.060665
H30   H     H_    0.802854 0.338840 0.835219 0.063486
H31   H     H_    0.394476 0.649967 0.160286 0.076036
H32   H     H_    0.048410 0.361294 0.177155 0.065082
H33   H     H_    0.830509 0.468195 0.645182 0.066682
H34   H     H_    0.109161 0.927291 0.634686 0.140799
H35   H     H_    0.357303 0.532063 0.353992 0.066644
H36   H     H_    0.697300 0.445809 0.910918 0.081472
H37   H     H_    0.524847 0.349810 0.985297 0.077601
H38   H     H_    0.614238 0.365027 0.110605 0.075147
H39   H     H_    0.204811 0.719594 0.272945 -0.055483
H40   H     H_    0.879325 0.464212 0.152578 0.126022
H41   H     H_    0.496224 0.539550 0.085459 0.074578
H42   H     H_    0.670650 0.635408 0.011437 0.073225
H43   H     H_    0.579726 0.624905 0.886405 0.074010
H44   H     H_    0.311912 0.531610 0.844756 0.129003
H45   H     H_    0.837652 0.239728 0.393129 0.003390
H46   H     H_    0.328266 0.032307 0.415698 0.090643
H47   H     H_    0.863722 0.959496 0.579291 0.098235
H48   H     H_    0.816005 0.266047 0.524293 0.063945
H49   H     H_    0.373640 0.723102 0.467391 0.068293
H50   H     H_    0.989297 0.672009 0.161714 0.079857
H51   H     H_    0.948297 0.807908 0.188579 0.138839
H52   H     H_    0.365352 0.773235 0.611899 0.003851
H53   H     H_    0.158964 0.753302 0.570127 0.070537
H54   H     H_    0.511071 0.058089 0.239399 0.068273
H55   H     H_    0.379232 0.969297 0.287831 0.039728
H56   H     H_    0.046017 0.229608 0.422925 0.073665
H57   H     H_    0.143323 0.969054 0.198764 0.125981
H58   H     H_    0.221287 0.099480 0.249286 0.101032
H59   H     H_    0.276863 0.065215 0.157552 0.102556
H60   H     H_    0.816315 0.063327 0.314085 0.096042
H61   H     H_    0.874096 0.048252 0.403874 0.093721
H62   H     H_    0.028156 0.053128 0.338874 0.145505
O1    O     O_2   0.875110 0.423180 0.326290 -0.476934
O2    O     O_2   0.193015 0.123369 0.545767 -0.470806
O3    O     O_3   0.113342 0.143521 0.675893 -0.595745
O4    O     O_3   0.123410 0.433040 0.414950 -0.491635
O5    O     O_3   0.577950 0.634370 0.536140 -0.495995
O6    O     O_2   0.341900 0.231310 0.465740 -0.454047
O7    O     O_3   0.493353 0.204151 0.344176 -0.670698
O8    O     O_2   0.452135 0.438898 0.758639 -0.513777
O9    O     O_3   0.487064 0.233014 0.730339 -0.581416
O10   O     O_3   0.661010 0.625070 0.369680 -0.454509
O11   O     O_2   0.735861 0.548619 0.243439 -0.523898
O12   O     O_3   0.693373 0.791493 0.648468 -0.643861
O13   O     O_3   0.010072 0.250611 0.318498 -0.637013
O14   O     O_3   0.715515 0.756691 0.265700 -0.608987
O15   O     O_2   0.847800 0.768730 0.534310 -0.468484
O16   O     O_3   0.082250 0.684470 0.405440 -0.499340
O17   O     O_2   0.996429 0.876933 0.446899 -0.470336
O18   O     O_3   0.430446 0.899952 0.186024 -0.666248
O19   O     O_3   0.080979 0.842440 0.314753 -0.608916
O20   O     O_2   0.314600 0.576860 0.673750 -0.476569
O21   O     O_3   0.066300 0.567050 0.585060 -0.494203
O22   O     O_3   0.528700 0.375020 0.630330 -0.453661
O23   O     O_3   0.179499 0.749613 0.679144 -0.631994
O24   O     O_3   0.611760 0.365720 0.463870 -0.488749
O25   O     O_3   0.107460 0.315620 0.594570 -0.485820
P1    P     P_3+3 0.042930 0.392230 0.337410 0.970252
P2    P     P_3+3 0.672230 0.754900 0.555730 0.964050
P3    P     P_3+3 0.124044 0.822361 0.402047 0.949595
P4    P     P_3+3 0.146790 0.607860 0.662600 0.973660
P5    P     P_3+3 0.065585 0.174704 0.592271 0.956058
P6    P     P_3+3 0.627292 0.628176 0.280298 0.923423
P7    P     P_3+3 0.518994 0.231010 0.437183 0.920210
P8    P     P_3+3 0.564283 0.365063 0.718567 0.952680

loop_
_geom_bond_atom_site_label_1
_geom_bond_atom_site_label_2
_ccdc_geom_bond_type
Ba2   O25   S    
O16   P3    S    
C44   H56   S    
Ba1   P2    S    
C17   C18   A    
Ba1   O10   S    
O4    P1    S    
C16   H50   S    
C34   H11   S    
C12   O14   S    
C50   H57   S    
C25   C31   A    
C8    H32   S    
C24   C25   A    
C15   C21   A    
C28   O23   S    
C10   C26   S    
Ba2   O21   S    
C7    C14   A    
C22   C24   A    
C1    O18   S    
C8    C13   A    
C35   H46   S    
C45   O3    S    
Ba1   Ba2   S    
Ba1   O1    S    
C29   H42   S    
C2    C11   A    
C23   O7    S    
C16   H51   S    
C36   P3    S    
O6    P7    D    
Ba1   O24   S    
C43   H47   S    
O9    P8    S    
Ba1   O4    S    
O5    P2    S    
C6    C7    A    
C53   H25   S    
C45   C51   S    
C9    P1    S    
C17   H37   S    
C46   H60   S    
C11   H33   S    
C1    H4    S    
C12   H8    S    
C40   H23   S    
C42   P5    S    
C19   C20   A    
C2    C54   A    
O12   P2    S    
C40   H12   S    
C48   H7    S    
C39   C41   A    
C51   H19   S    
C15   H36   S    
Ba1   O15   S    
C34   H14   S    
C52   H24   S    
Ba2   O4    S    
C16   H16   S    
O25   P5    S    
C4    C16   S    
C44   H45   S    
C44   C46   S    
C42   C43   A    
C32   C41   A    
C28   H53   S    
C49   C50   S    
Ba2   O20   S    
O19   P3    S    
C33   C36   A    
C32   C42   A    
C45   H17   S    
C3    C10   A    
C8    C9    A    
C37   C38   A    
C3    C5    A    
C46   H62   S    
Ba2   P4    S    
Ba2   O5    S    
C2    P4    S    
C32   H48   S    
C47   H2    S    
C40   H34   S    
C1    H15   S    
Ba1   O5    S    
O11   P6    D    
C35   C36   A    
C33   H49   S    
C49   O18   S    
O14   P6    S    
C29   C30   A    
O20   P4    D    
O17   P3    D    
C7    P6    S    
C37   P2    S    
O3    P5    S    
C23   H9    S    
C4    H39   S    
C21   C26   A    
C18   C19   A    
C53   H26   S    
C41   P7    S    
O22   P8    S    
C10   C54   A    
C1    C12   S    
C24   C27   A    
C5    P8    S    
C3    H30   S    
O21   P4    S    
C38   C39   A    
O2    P5    D    
C6    C13   A    
Ba2   O6    S    
C51   H21   S    
C48   H6    S    
C20   C22   A    
C51   H20   S    
O15   P2    D    
O1    P1    D    
Ba1   O16   S    
C44   O13   S    
C34   H13   S    
C47   O12   S    
C50   H59   S    
C12   H1    S    
C18   H38   S    
C52   C53   S    
C13   C22   S    
C49   H55   S    
C4    H27   S    
C28   H52   S    
C23   H10   S    
C45   H18   S    
Ba1   O21   S    
C46   H61   S    
C19   H40   S    
C50   H58   S    
C49   H54   S    
C52   O9    S    
C47   H3    S    
C30   H43   S    
C27   H41   S    
C6    H31   S    
Ba2   O22   S    
C30   C31   A    
C31   H44   S    
C4    O19   S    
C27   C29   A    
Ba1   P1    S    
O24   P7    S    
C54   H29   S    
Ba2   O24   S    
C33   C37   A    
C15   C17   A    
O8    P8    D    
C35   C39   A    
C9    C14   A    
O7    P7    S    
O23   P4    S    
C23   C34   S    
O10   P6    S    
C5    C11   A    
C38   C43   A    
C14   H35   S    
C47   C48   S    
C25   C26   A    
C48   H5    S    
C20   C21   A    
C28   C40   S    
C53   H28   S    
O13   P1    S    
C52   H22   S    
