data_mof_unit_67520.cif
_audit_creation_date              2013-03-05T15:41:20-0500
_audit_creation_method            fapswitch 2.2
_symmetry_space_group_name_H-M    P1
_symmetry_Int_Tables_number       1
_space_group_crystal_system       triclinic
_cell_length_a                    10.750367
_cell_length_b                    8.868201
_cell_length_c                    7.543765
_cell_angle_alpha                 100.9048
_cell_angle_beta                  93.60968
_cell_angle_gamma                 92.530149
_cell_volume                      703.653913849

loop_
_atom_site_label
_atom_site_type_symbol
_atom_site_description
_atom_site_fract_x
_atom_site_fract_y
_atom_site_fract_z
_atom_type_partial_charge
O1    O     O_R   0.509190 0.286130 0.619780 -0.595382
O2    O     O_R   0.490810 0.713870 0.380220 -0.595348
O3    O     O_R   0.485310 0.256770 0.308360 -0.603329
O4    O     O_R   0.514690 0.743230 0.691640 -0.603108
C1    C     C_R   0.493563 0.202183 0.457139 0.877352
C2    C     C_R   0.506401 0.797814 0.542857 0.877806
O5    O     O_R   0.328790 0.514640 0.655680 -0.612972
O6    O     O_R   0.671210 0.485360 0.344320 -0.613086
O7    O     O_R   0.304910 0.485280 0.344260 -0.525335
O8    O     O_R   0.695090 0.514720 0.655740 -0.525612
C3    C     C_R   0.260125 0.496199 0.502640 0.907639
C4    C     C_R   0.739875 0.503850 0.497349 0.907938
Cu1   Cu    Cu3+1 0.514140 0.517380 0.684380 0.996056
Cu2   Cu    Cu3+1 0.485860 0.482620 0.315620 0.996040
N1    N     N_2   0.464560 0.456420 0.038510 -0.244200
N2    N     N_2   0.535440 0.543580 0.961490 -0.244313
C5    C     C_3   0.038918 0.412300 0.622227 -0.347066
C6    C     C_3   0.961073 0.587860 0.377701 -0.346564
C7    C     C_3   0.950141 0.358580 0.450160 0.263863
C8    C     C_3   0.049866 0.641561 0.549757 0.263745
H1    H     H_    0.071174 0.339836 0.718700 0.231095
H2    H     H_    0.928834 0.660527 0.281455 0.231049
C9    C     C_3   0.876336 0.503671 0.492268 -0.252417
C10   C     C_3   0.123665 0.496466 0.507642 -0.252345
C11   C     C_3   0.965235 0.559863 0.661724 0.308896
C12   C     C_3   0.034759 0.440287 0.338152 0.309200
H3    H     H_    0.399802 0.384921 0.952113 0.250651
H4    H     H_    0.600205 0.615070 0.047884 0.250512
C13   C     C_2   0.472275 0.038505 0.440458 -0.180686
C14   C     C_2   0.527647 0.961485 0.559523 -0.180813
N3    N     N_R   0.894629 0.203535 0.391911 0.114912
O9    O     O_R   0.965267 0.087895 0.373930 -0.355339
O10   O     O_R   0.774480 0.178951 0.363496 -0.450090
N4    N     N_R   0.105409 0.796583 0.608128 0.114547
O11   O     O_R   0.034736 0.912192 0.627467 -0.354648
O12   O     O_R   0.225581 0.821146 0.636096 -0.450153
N5    N     N_R   0.921404 0.628711 0.836175 0.130001
O13   O     O_R   0.882900 0.539679 0.942260 -0.381811
O14   O     O_R   0.890869 0.771099 0.864603 -0.353594
N6    N     N_R   0.078487 0.371519 0.163559 0.130289
O15   O     O_R   0.119169 0.460599 0.058998 -0.380454
O16   O     O_R   0.106733 0.228287 0.133744 -0.354112
C15   C     C_R   0.378046 0.964850 0.296678 0.064573
C16   C     C_R   0.250758 0.967566 0.326661 -0.032384
C17   C     C_R   0.163621 0.878479 0.199968 0.002009
C18   C     C_R   0.203090 0.794553 0.041011 -0.004908
C19   C     C_R   0.328228 0.801230 0.006695 -0.087109
C20   C     C_R   0.415997 0.888323 0.131583 -0.114715
H5    H     H_    0.220262 0.033945 0.450249 0.196938
H6    H     H_    0.066313 0.870319 0.225086 0.211095
H7    H     H_    0.137687 0.723157 0.944301 0.200824
H8    H     H_    0.357085 0.734893 0.885655 0.228318
H9    H     H_    0.513850 0.888664 0.104945 0.155469
C21   C     C_R   0.621847 0.035169 0.703304 0.064456
C22   C     C_R   0.583862 0.111609 0.868413 -0.114489
C23   C     C_R   0.671568 0.198917 0.993206 -0.087484
C24   C     C_R   0.796671 0.205903 0.958790 -0.005313
C25   C     C_R   0.836192 0.122042 0.799825 0.002418
C26   C     C_R   0.749120 0.032742 0.673220 -0.031840
H10   H     H_    0.486018 0.111090 0.895100 0.155373
H11   H     H_    0.642689 0.265222 0.114235 0.228410
H12   H     H_    0.861982 0.277481 0.055465 0.201289
H13   H     H_    0.933473 0.130419 0.774598 0.211207
H14   H     H_    0.779639 0.966412 0.549623 0.197047

loop_
_geom_bond_atom_site_label_1
_geom_bond_atom_site_label_2
_geom_bond_distance
_ccdc_geom_bond_type
C16   H5    1.082170 S    
N2    H4    1.029090 S    
C7    C9    1.534030 S    
O7    Cu2   1.971393 S    
N3    O10   1.297848 A    
C19   H8    1.060474 S    
C6    H2    1.107976 S    
C14   C21   1.471090 S    
C15   C20   1.395269 A    
C21   C22   1.395237 A    
N4    O12   1.297844 A    
C19   C20   1.386669 A    
C6    C12   1.550095 S    
O6    C4    1.309521 A    
C15   C16   1.401451 A    
C7    N3    1.451107 S    
C22   C23   1.386626 A    
N6    O16   1.300305 A    
C26   H14   1.082145 S    
C8    N4    1.451135 S    
C24   H12   1.071820 S    
N5    O14   1.300467 A    
O2    C2    1.305784 A    
Cu1   Cu2   2.736213 S    
C13   C15   1.471203 S    
O5    C3    1.309622 A    
O7    C3    1.304398 A    
C4    C9    1.469974 S    
C12   N6    1.458417 S    
C24   C25   1.387907 A    
C13   C14   1.352155 D    
O3    Cu2   1.992984 S    
O8    C4    1.304514 A    
C17   H6    1.076534 S    
C22   H10   1.083306 S    
O1    C1    1.305834 A    
N6    O15   1.298548 A    
C5    C7    1.546807 S    
N5    O13   1.298897 A    
C10   C12   1.536094 S    
C1    C13   1.439818 S    
C21   C26   1.401384 A    
C9    C11   1.535884 S    
C20   H9    1.083307 S    
O2    Cu2   2.013693 S    
C5    C10   1.554852 S    
O1    Cu1   2.013691 S    
C8    C11   1.528475 S    
C6    C9    1.554820 S    
C25   H13   1.076563 S    
C17   C18   1.387864 A    
C3    C10   1.469941 S    
O5    Cu1   1.989284 S    
C23   C24   1.386610 A    
C6    C8    1.546814 S    
O4    C2    1.303368 A    
N4    O11   1.294521 A    
C18   C19   1.386690 A    
Cu1   N2    2.056129 S    
O4    Cu1   1.992985 S    
C7    C12   1.528642 S    
C8    C10   1.534036 S    
C23   H11   1.060394 S    
O6    Cu2   1.989286 S    
C2    C14   1.439727 S    
C25   C26   1.396903 A    
Cu2   N1    2.056129 S    
N1    H3    1.029088 S    
C18   H7    1.071837 S    
N3    O9    1.294550 A    
C5    H1    1.108029 S    
C16   C17   1.396909 A    
N1    N2    1.299742 D    
C11   N5    1.458138 S    
C5    C11   1.549974 S    
O3    C1    1.303345 A    
O8    Cu1   1.971393 S    
