data_mof_unit_9468.cif
_audit_creation_date              2012-12-11T15:48:07-0500
_audit_creation_method            fapswitch 2.2
_symmetry_space_group_name_H-M    P1
_symmetry_Int_Tables_number       1
_space_group_crystal_system       triclinic
_cell_length_a                    6.925424
_cell_length_b                    17.619229
_cell_length_c                    19.422874
_cell_angle_alpha                 108.529346
_cell_angle_beta                  89.543656
_cell_angle_gamma                 90.495017
_cell_volume                      2247.01548569

loop_
_atom_site_label
_atom_site_type_symbol
_atom_type_description
_atom_site_fract_x
_atom_site_fract_y
_atom_site_fract_z
_atom_type_partial_charge
O1    O     O_R   0.494330 0.415710 0.413720 -0.512167
O2    O     O_R   0.819360 0.430070 0.560210 -0.540869
O3    O     O_R   0.994320 0.584290 0.586280 -0.523244
C1    C     C_R   0.650050 0.415395 0.581880 0.739361
O4    O     O_R   0.823740 0.406290 0.412670 -0.545554
O5    O     O_R   0.998730 0.560340 0.437690 -0.540108
C2    C     C_R   0.654359 0.382057 0.385402 0.703491
O6    O     O_R   0.489920 0.439660 0.562310 -0.533435
O7    O     O_3   0.662330 0.550570 0.508380 -0.361854
V1    V     V_3+5 0.935370 0.490620 0.498440 1.465303
O8    O     O_R   0.328720 0.569930 0.439790 -0.545194
C3    C     C_R   0.160496 0.585631 0.418725 0.702689
O9    O     O_R   0.324340 0.593710 0.587330 -0.534162
C4    C     C_R   0.154366 0.615559 0.616355 0.729761
V2    V     V_3+5 0.435940 0.509380 0.501560 1.484141
O10   O     O_3   0.159110 0.449430 0.491620 -0.363519
C5    C     C_R   0.297617 0.735483 0.709058 -0.143104
H1    H     H_    0.427151 0.728177 0.676142 0.161567
C6    C     C_R   0.290501 0.798685 0.774393 -0.103765
H2    H     H_    0.416933 0.836457 0.790880 0.156286
C7    C     C_R   0.121429 0.814036 0.816871 -0.075349
C8    C     C_R   0.963539 0.762078 0.794510 -0.177700
H3    H     H_    0.833740 0.771366 0.827572 0.143859
C9    C     C_R   0.972107 0.696297 0.730996 0.143843
C10   C     C_R   0.140114 0.682851 0.686122 -0.080998
C11   C     C_R   0.298636 0.627673 0.317145 -0.197069
C12   C     C_R   0.153213 0.634953 0.369545 -0.103377
C13   C     C_R   0.001957 0.689215 0.374533 -0.159275
C14   C     C_R   0.995897 0.735857 0.327715 0.089197
C15   C     C_R   0.136767 0.725002 0.272518 0.018840
C16   C     C_R   0.290180 0.671095 0.267648 0.019673
C17   C     C_R   0.856279 0.795558 0.337235 -0.231033
C18   C     C_R   0.852745 0.843622 0.291790 0.406885
C19   C     C_R   0.984020 0.829021 0.233047 0.025774
C20   C     C_R   0.127455 0.769890 0.223700 -0.052039
C21   C     C_R   0.267160 0.758221 0.167820 -0.064173
C22   C     C_R   0.421691 0.705756 0.164959 -0.288181
C23   C     C_R   0.433822 0.662407 0.214014 0.385986
C24   C     C_R   0.978928 0.874550 0.185265 -0.273213
C25   C     C_R   0.112999 0.862118 0.128234 -0.165573
C26   C     C_R   0.255051 0.802271 0.118124 0.404891
H4    H     H_    0.415789 0.586283 0.313918 0.157791
H5    H     H_    0.891950 0.696634 0.416153 0.121301
H6    H     H_    0.754888 0.807601 0.382167 0.135553
H7    H     H_    0.871935 0.921051 0.192824 0.171714
H8    H     H_    0.538472 0.699999 0.126359 0.166496
C27   C     C_R   0.733033 0.206253 0.887041 0.372670
C28   C     C_R   0.621857 0.134830 0.868616 -0.216025
C29   C     C_R   0.509763 0.112456 0.804642 0.026501
C30   C     C_R   0.510694 0.160469 0.758608 0.098163
C31   C     C_R   0.616454 0.233424 0.778458 -0.064828
C32   C     C_R   0.718496 0.259539 0.845138 -0.106341
C33   C     C_R   0.406600 0.137471 0.692888 -0.132165
C34   C     C_R   0.410211 0.183795 0.646760 -0.197060
C35   C     C_R   0.517688 0.254532 0.664597 0.147837
C36   C     C_R   0.619614 0.280282 0.730965 0.033025
C37   C     C_R   0.725248 0.352588 0.749227 -0.041519
C38   C     C_R   0.805753 0.383557 0.819050 0.361675
C39   C     C_R   0.800176 0.338241 0.867298 0.134117
C40   C     C_R   0.524429 0.299838 0.616857 -0.216964
C41   C     C_R   0.639740 0.368669 0.632682 -0.085207
C42   C     C_R   0.742229 0.394039 0.698141 -0.167029
H9    H     H_    0.321534 0.083243 0.675422 0.167698
H10   H     H_    0.329731 0.163670 0.596474 0.125650
H11   H     H_    0.444652 0.280378 0.566347 0.106384
H12   H     H_    0.830950 0.447471 0.709856 0.173457
C43   C     C_R   0.804137 0.290845 0.271261 -0.219467
H13   H     H_    0.938897 0.323601 0.285282 0.175062
C44   C     C_R   0.794055 0.227452 0.205971 -0.135185
H14   H     H_    0.921801 0.212631 0.171907 0.135309
C45   C     C_R   0.620560 0.184838 0.184209 -0.094771
C46   C     C_R   0.458683 0.205889 0.230056 -0.254512
H15   H     H_    0.323827 0.173546 0.214593 0.126267
C47   C     C_R   0.469741 0.267009 0.297456 0.429247
C48   C     C_R   0.642238 0.312422 0.317406 -0.147142
O11   O     O_R   0.774940 0.060470 0.937800 -0.529830
O12   O     O_R   0.440880 0.093730 0.087350 -0.551003
O13   O     O_R   0.266130 0.939630 0.062280 -0.516124
C49   C     C_R   0.609806 0.117076 0.115206 0.711411
O14   O     O_R   0.445480 0.069960 0.939820 -0.538968
O15   O     O_R   0.270770 0.915690 0.913690 -0.530803
C50   C     C_R   0.614719 0.085302 0.918245 0.807597
O16   O     O_R   0.770300 0.084410 0.086380 -0.544314
O17   O     O_3   0.602600 0.949510 0.991670 -0.359391
V3    V     V_3+5 0.329470 0.009370 0.001550 1.448133
O18   O     O_R   0.940760 0.906160 0.912560 -0.545317
C51   C     C_R   0.110142 0.883161 0.884719 0.729979
O19   O     O_R   0.936150 0.929930 0.060100 -0.546543
C52   C     C_R   0.104663 0.913270 0.080393 0.748714
V4    V     V_3+5 0.828930 0.990450 0.998310 1.458708
O20   O     O_3   0.105670 0.050490 0.008320 -0.380474
O21   O     O_3   0.385757 0.789806 0.061167 -0.553579
C53   C     C_3   0.352281 0.714365 0.007933 0.066354
H16   H     H_    0.234766 0.677617 0.021616 0.115880
H17   H     H_    0.486948 0.678911 0.000542 0.135055
C54   C     C_3   0.303765 0.726274 0.935988 -0.694959
H18   H     H_    0.416138 0.763872 0.921283 0.234534
H19   H     H_    0.296768 0.667439 0.892530 0.193232
H20   H     H_    0.161190 0.755737 0.940566 0.192231
O22   O     O_3   0.596114 0.617106 0.213519 -0.555988
C55   C     C_3   0.568712 0.539990 0.163245 0.085513
H21   H     H_    0.582358 0.542214 0.106769 0.150015
H22   H     H_    0.424945 0.514107 0.170144 0.115899
C56   C     C_3   0.722989 0.484675 0.175412 -0.647920
H23   H     H_    0.868710 0.506762 0.166395 0.235295
H24   H     H_    0.713305 0.482410 0.231857 0.201161
H25   H     H_    0.701649 0.423262 0.137149 0.209469
O23   O     O_3   0.849818 0.224047 0.947685 -0.546345
C57   C     C_3   0.042738 0.203560 0.925175 0.144083
H26   H     H_    0.093309 0.233442 0.885560 0.127688
H27   H     H_    0.057078 0.137692 0.899702 0.145940
C58   C     C_3   0.174658 0.230509 0.991127 -0.595300
H28   H     H_    0.131574 0.201148 0.031667 0.213989
H29   H     H_    0.326437 0.215488 0.974265 0.169014
H30   H     H_    0.166896 0.296155 0.017389 0.229413
I1    I     I_    0.349049 0.002269 0.774914 -0.487910
O24   O     O_3   0.896837 0.457650 0.840139 -0.537778
C59   C     C_3   0.756719 0.518279 0.865720 0.134986
H31   H     H_    0.666433 0.508654 0.909970 0.134950
H32   H     H_    0.659632 0.520717 0.821194 0.139487
C60   C     C_3   0.858965 0.598764 0.895666 -0.683196
H33   H     H_    0.957209 0.608613 0.853824 0.240984
H34   H     H_    0.751487 0.647728 0.911305 0.177552
H35   H     H_    0.944714 0.600239 0.944145 0.225916
I2    I     I_    0.889383 0.401175 0.976071 -0.452816
O25   O     O_3   0.310156 0.283330 0.343094 -0.550394
C61   C     C_3   0.287642 0.221345 0.374281 0.075626
H36   H     H_    0.422258 0.213307 0.402290 0.100204
H37   H     H_    0.248941 0.163778 0.332255 0.120255
C62   C     C_3   0.125242 0.242312 0.430201 -0.658069
H38   H     H_    0.101419 0.192184 0.452461 0.162042
H39   H     H_    0.163881 0.296742 0.475572 0.223294
H40   H     H_    0.989560 0.252939 0.404677 0.217678
I3    I     I_    0.725235 0.620224 0.713043 -0.497950
O26   O     O_3   0.741940 0.912208 0.311846 -0.556814
C63   C     C_3   0.553829 0.892880 0.284712 0.095842
H41   H     H_    0.484304 0.848967 0.307753 0.132456
H42   H     H_    0.557044 0.868458 0.224412 0.139141
C64   C     C_3   0.433052 0.968631 0.306131 -0.710661
H43   H     H_    0.497047 0.013062 0.282669 0.209262
H44   H     H_    0.283878 0.954410 0.285447 0.192068
H45   H     H_    0.427264 0.995030 0.366189 0.227104

loop_
_geom_bond_atom_site_label_1
_geom_bond_atom_site_label_2
_ccdc_geom_bond_type
C35   C36   A    
C7    C51   S    
C53   H16   S    
C33   H9    S    
O2    C1    A    
C6    H2    S    
C1    O6    A    
C56   H24   S    
V3    O20   S    
O26   C63   S    
C33   C34   A    
O23   C57   S    
C13   C14   A    
C11   C12   A    
C55   H21   S    
C15   C20   A    
O21   C53   S    
C21   C22   A    
C6    C7    A    
C22   C23   A    
C19   C20   A    
C14   C17   A    
C57   H27   S    
O5    C3    A    
C15   C16   A    
C64   H45   S    
V2    O10   S    
C54   H20   S    
C36   C37   A    
C5    H1    S    
C31   C36   A    
C44   C45   A    
C59   H31   S    
C56   H23   S    
C60   H35   S    
C7    C8    A    
O8    V2    S    
C20   C21   A    
C54   H19   S    
O1    V2    S    
C25   C52   S    
C14   C15   A    
O7    V1    S    
C24   H7    S    
O12   V3    S    
C11   C16   A    
C55   H22   S    
O9    C4    A    
C21   C26   A    
C44   H14   S    
O17   V4    S    
C63   C64   S    
C58   H29   S    
C58   H28   S    
C18   C19   A    
O12   C49   A    
O13   C52   A    
C30   C33   A    
C47   C48   A    
C42   H12   S    
C3    C12   S    
C19   C24   A    
C37   C42   A    
O17   V3    S    
C63   H42   S    
O18   V4    S    
C57   C58   S    
O11   C50   A    
C24   C25   A    
O4    C2    A    
O18   C51   A    
C63   H41   S    
C2    C48   S    
C38   C39   A    
C1    C41   S    
C38   O24   S    
C45   C49   S    
C43   H13   S    
C40   C41   A    
C43   C44   A    
C59   C60   S    
C62   H39   S    
C61   H37   S    
O14   V3    S    
C32   C39   A    
C18   O26   S    
C27   C28   A    
C64   H43   S    
C54   H18   S    
C29   I1    S    
C30   C31   A    
C17   H6    S    
C9    C10   A    
C60   H33   S    
O15   C51   A    
O3    C4    A    
O13   V3    S    
C46   C47   A    
C25   C26   A    
O19   V4    S    
C40   H11   S    
C29   C30   A    
O6    V2    S    
O9    V2    S    
C8    C9    A    
C62   H40   S    
C43   C48   A    
V4    O20   S    
C61   H36   S    
O2    V1    S    
C11   H4    S    
C9    I3    S    
O16   V4    S    
C34   C35   A    
C28   C29   A    
O1    C2    A    
C46   H15   S    
O5    V1    S    
O8    C3    A    
C27   C32   A    
C53   C54   S    
C13   H5    S    
O24   C59   S    
C16   C23   A    
C5    C10   A    
C17   C18   A    
C62   H38   S    
O7    V2    S    
C61   C62   S    
C31   C32   A    
O3    V1    S    
V1    O10   S    
C39   I2    S    
C49   O16   A    
C64   H44   S    
C23   O22   S    
C37   C38   A    
C47   O25   S    
C34   H10   S    
O25   C61   S    
O22   C55   S    
C5    C6    A    
O14   C50   A    
C28   C50   S    
C56   H25   S    
C4    C10   S    
C41   C42   A    
C59   H32   S    
C60   H34   S    
O4    V1    S    
C26   O21   S    
C45   C46   A    
O19   C52   A    
C53   H17   S    
C27   O23   S    
C57   H26   S    
C12   C13   A    
C8    H3    S    
C55   C56   S    
C22   H8    S    
C35   C40   A    
C58   H30   S    
O15   V3    S    
O11   V4    S    
