data_mof_unit_58144.cif
_audit_creation_date              2013-03-05T16:02:39-0500
_audit_creation_method            fapswitch 2.2
_symmetry_space_group_name_H-M    P1
_symmetry_Int_Tables_number       1
_space_group_crystal_system       triclinic
_cell_length_a                    6.941471
_cell_length_b                    17.364005
_cell_length_c                    18.773853
_cell_angle_alpha                 106.053484
_cell_angle_beta                  89.254566
_cell_angle_gamma                 90.299978
_cell_volume                      2174.41595524

loop_
_atom_site_label
_atom_site_type_symbol
_atom_site_description
_atom_site_fract_x
_atom_site_fract_y
_atom_site_fract_z
_atom_type_partial_charge
O1    O     O_R   0.494360 0.415680 0.413760 -0.586587
O2    O     O_R   0.818810 0.432910 0.557230 -0.573092
O3    O     O_R   0.994290 0.584320 0.586240 -0.583912
C1    C     C_R   0.649236 0.414500 0.579330 0.947229
O4    O     O_R   0.823740 0.406440 0.412520 -0.589849
O5    O     O_R   0.999250 0.557660 0.440500 -0.575595
C2    C     C_R   0.655380 0.383329 0.384929 0.937947
O6    O     O_R   0.489400 0.442340 0.559500 -0.569089
O7    O     O_3   0.662500 0.549650 0.509350 -0.260752
V1    V     V_3+5 0.935340 0.490790 0.498270 1.146991
O8    O     O_R   0.329270 0.567090 0.442770 -0.571662
C3    C     C_R   0.161922 0.581472 0.417167 0.946151
O9    O     O_R   0.324340 0.593560 0.587480 -0.594384
C4    C     C_R   0.153774 0.616731 0.615193 0.927378
V2    V     V_3+5 0.435970 0.509210 0.501730 1.149249
O10   O     O_3   0.158940 0.450350 0.490650 -0.265400
H1    H     H_    0.914053 0.868777 0.565238 0.173422
C5    C     C_R   0.146285 0.595020 0.770148 -0.051297
C6    C     C_R   0.216018 0.585566 0.837973 0.209639
C7    C     C_R   0.307274 0.649523 0.888875 0.237017
C8    C     C_R   0.324576 0.724022 0.873179 -0.087709
C9    C     C_R   0.214238 0.738161 0.814869 -0.018442
C10   C     C_R   0.168700 0.671277 0.754645 0.056956
C11   C     C_R   0.133276 0.814187 0.816450 -0.230901
C12   C     C_R   0.064949 0.825819 0.749314 0.072038
C13   C     C_R   0.094353 0.765187 0.680956 0.033352
C14   C     C_R   0.139614 0.685184 0.683762 -0.240220
C15   C     C_R   0.978324 0.899215 0.748532 -0.318822
C16   C     C_R   0.913414 0.912313 0.682980 0.383919
C17   C     C_R   0.952941 0.855647 0.616332 -0.242209
C18   C     C_R   0.064976 0.788017 0.614002 0.142206
H2    H     H_    0.957363 0.947138 0.798693 0.177210
C19   C     C_1   0.111439 0.863351 0.132140 -0.293701
C20   C     C_1   0.119279 0.820334 0.175302 0.118895
C21   C     C_1   0.129275 0.769461 0.226586 0.030721
C22   C     C_1   0.137726 0.726523 0.269811 0.009096
C23   C     C_1   0.147414 0.675571 0.321039 0.072914
C24   C     C_1   0.154862 0.632737 0.364375 -0.324352
C25   C     C_1   0.639792 0.362894 0.631687 -0.325864
C26   C     C_1   0.635071 0.321190 0.676022 0.119561
C27   C     C_1   0.631220 0.272154 0.728932 0.067754
C28   C     C_1   0.628573 0.230672 0.773476 0.081677
C29   C     C_1   0.625716 0.180913 0.825786 0.173050
C30   C     C_1   0.623065 0.137788 0.868923 -0.262434
H3    H     H_    0.325246 0.156453 0.438728 0.141874
C31   C     C_R   0.818316 0.393944 0.244770 -0.180015
C32   C     C_R   0.896080 0.401680 0.178328 -0.090525
C33   C     C_R   0.882485 0.338855 0.114066 -0.074603
C34   C     C_R   0.791257 0.267730 0.115736 -0.164877
C35   C     C_R   0.713265 0.257439 0.182586 0.113650
C36   C     C_R   0.726857 0.322069 0.248608 0.118245
C37   C     C_R   0.619025 0.185039 0.183932 -0.298576
C38   C     C_R   0.538087 0.177634 0.251647 0.112007
C39   C     C_R   0.551625 0.242179 0.317553 0.124498
C40   C     C_R   0.645770 0.314696 0.316270 -0.305694
C41   C     C_R   0.446859 0.105709 0.255381 -0.290476
C42   C     C_R   0.367861 0.096758 0.321660 0.276579
C43   C     C_R   0.382562 0.160681 0.386131 -0.116276
C44   C     C_R   0.473780 0.231770 0.384220 -0.219700
H4    H     H_    0.829656 0.445324 0.292685 0.122736
H5    H     H_    0.965809 0.457066 0.176598 0.140663
H6    H     H_    0.941536 0.345480 0.062424 0.147657
H7    H     H_    0.781095 0.221493 0.063788 0.111241
H8    H     H_    0.436936 0.054911 0.206820 0.128213
H9    H     H_    0.483900 0.278131 0.436102 0.124585
O11   O     O_R   0.775690 0.057750 0.940570 -0.564952
O12   O     O_R   0.441200 0.093570 0.087490 -0.587635
O13   O     O_R   0.265840 0.942320 0.059480 -0.580978
C45   C     C_R   0.609482 0.116552 0.115202 0.940420
O14   O     O_R   0.446270 0.067110 0.942790 -0.566656
O15   O     O_R   0.270950 0.915660 0.913750 -0.608240
C46   C     C_R   0.615359 0.084693 0.919918 0.952321
O16   O     O_R   0.770580 0.084400 0.086300 -0.588989
O17   O     O_3   0.602640 0.950400 0.990690 -0.287123
V3    V     V_3+5 0.329740 0.009200 0.001730 1.153597
O18   O     O_R   0.940900 0.906360 0.912450 -0.595862
C47   C     C_R   0.113204 0.880458 0.887102 0.934981
O19   O     O_R   0.935830 0.932820 0.057160 -0.570777
C48   C     C_R   0.103760 0.915744 0.080467 0.947169
V4    V     V_3+5 0.829130 0.990680 0.998180 1.147623
O20   O     O_3   0.106100 0.049590 0.009310 -0.254493
C49   C     C_3   0.271205 0.017542 0.319720 -0.399596
C50   C     C_3   0.190821 0.010309 0.393835 -0.865274
H10   H     H_    0.308032 0.017018 0.434840 0.266935
H11   H     H_    0.077620 0.056110 0.415377 0.262032
H12   H     H_    0.124879 0.950125 0.385775 0.252785
H13   H     H_    0.150837 0.007694 0.279685 0.190879
H14   H     H_    0.377223 0.968489 0.298642 0.197828
C51   C     C_3   0.005451 0.531865 0.727217 -0.275165
C52   C     C_3   0.800453 0.565465 0.735728 -0.806756
H15   H     H_    0.758115 0.583011 0.795149 0.261514
H16   H     H_    0.788119 0.617867 0.713139 0.253011
H17   H     H_    0.696544 0.519491 0.707015 0.230912
H18   H     H_    0.050510 0.506529 0.669081 0.193801
H19   H     H_    0.999098 0.478060 0.747866 0.224367
N1    N     N_R   0.193610 0.510821 0.855834 0.256980
O21   O     O_R   0.091795 0.507187 0.913501 -0.329909
O22   O     O_R   0.284733 0.447433 0.817026 -0.397960
N2    N     N_R   0.379471 0.639184 0.957218 0.258532
O23   O     O_R   0.474630 0.574975 0.957814 -0.323908
O24   O     O_R   0.351495 0.694440 0.019252 -0.404314
C53   C     C_3   0.491382 0.778995 0.906170 -0.190468
C54   C     C_3   0.688227 0.737462 0.895539 -0.868365
H20   H     H_    0.690278 0.682231 0.913815 0.287501
H21   H     H_    0.733424 0.723301 0.836429 0.242377
H22   H     H_    0.796757 0.778401 0.928998 0.258984
H23   H     H_    0.510348 0.825551 0.876670 0.214385
H24   H     H_    0.463078 0.807250 0.965956 0.228558
N3    N     N_R   0.825314 0.986980 0.683311 0.235371
O25   O     O_R   0.714434 0.991801 0.629337 -0.415652
O26   O     O_R   0.872297 0.052258 0.733373 -0.426161
C55   C     C_3   0.167759 0.751436 0.541070 -0.397743
C56   C     C_3   0.286683 0.812946 0.514195 -0.828661
H25   H     H_    0.192866 0.855658 0.496522 0.253355
H26   H     H_    0.383782 0.846636 0.558716 0.280101
H27   H     H_    0.376529 0.781459 0.465564 0.245507
H28   H     H_    0.273898 0.706583 0.545074 0.208086
H29   H     H_    0.057453 0.724720 0.499411 0.186423

loop_
_geom_bond_atom_site_label_1
_geom_bond_atom_site_label_2
_geom_bond_distance
_ccdc_geom_bond_type
O15   V3    2.014864 S    
C34   H7    1.081132 S    
C27   C28   1.245436 T    
C21   C22   1.246656 T    
C2    C40   1.496001 S    
C1    O6    1.311169 A    
C42   C43   1.402292 A    
C38   C39   1.425071 A    
O13   V3    1.843715 S    
C13   C14   1.441104 A    
C23   C24   1.246585 T    
C16   N3    1.434830 S    
C15   C16   1.392677 A    
C5    C6    1.419547 A    
N3    O26   1.299778 A    
O5    C3    1.311609 A    
C17   C18   1.402158 A    
O19   V4    1.851603 S    
C49   H13   1.111767 S    
C42   C49   1.518809 S    
C41   C42   1.400529 A    
C20   C21   1.478142 S    
C51   H18   1.099815 S    
C37   C45   1.495413 S    
C39   C40   1.421600 A    
C33   H6    1.082624 S    
O11   C46   1.313328 A    
C32   C33   1.388682 A    
N1    O22   1.301599 A    
C35   C37   1.420403 A    
C18   C55   1.511802 S    
C41   H8    1.081749 S    
C45   O16   1.296079 A    
O1    V2    2.008843 S    
C10   C14   1.433604 A    
C4    C14   1.493759 S    
O7    V1    2.137096 S    
C56   H27   1.110903 S    
O13   C48   1.310566 A    
C13   C18   1.435904 A    
O17   V4    1.708960 S    
C8    C9    1.420460 A    
C3    C24   1.505561 S    
H1    C17   1.083190 S    
O8    V2    1.851567 S    
C55   C56   1.534521 S    
C35   C36   1.427326 A    
C39   C44   1.413369 A    
H3    C43   1.080877 S    
O17   V3    2.137026 S    
C5    C10   1.439458 A    
C15   H2    1.079229 S    
C11   C12   1.418359 A    
C25   C26   1.245246 T    
O4    C2    1.300389 A    
O19   C48   1.314096 A    
V3    O20   1.694841 S    
C12   C13   1.430113 A    
C31   C36   1.416364 A    
O12   C45   1.300207 A    
C51   H19   1.106585 S    
O2    C1    1.310189 A    
C29   C30   1.245717 T    
C32   H5    1.082698 S    
C16   C17   1.386370 A    
C52   H16   1.109179 S    
C50   H10   1.110810 S    
C1    C25   1.502763 S    
N1    O21   1.301154 A    
C19   C20   1.246515 T    
C53   H23   1.105525 S    
C54   H21   1.109592 S    
O18   C47   1.315952 A    
C53   H24   1.108980 S    
O3    C4    1.295258 A    
C8    C53   1.521701 S    
C26   C27   1.476224 S    
C50   H11   1.110796 S    
C49   C50   1.529332 S    
O6    V2    1.836717 S    
O9    V2    2.003156 S    
C9    C11   1.430063 A    
O12   V3    2.013231 S    
C28   C29   1.476469 S    
O2    V1    1.863623 S    
O15   C47   1.288812 A    
C37   C38   1.421044 A    
C52   H17   1.101902 S    
C56   H25   1.109496 S    
C38   C41   1.415874 A    
C31   C32   1.392767 A    
C33   C34   1.392829 A    
C31   H4    1.081009 S    
O1    C2    1.296333 A    
C5    C51   1.525887 S    
C19   C48   1.503844 S    
O18   V4    2.003037 S    
V4    O20   2.158233 S    
O5    V1    1.843880 S    
O8    C3    1.314070 A    
O11   V4    1.837197 S    
N2    O23   1.301650 A    
C6    C7    1.403304 A    
C43   C44   1.393428 A    
O4    V1    2.013320 S    
O3    V1    2.014887 S    
V1    O10   1.694898 S    
N3    O25   1.301565 A    
C44   H9    1.081306 S    
C55   H29   1.106517 S    
C52   H15   1.108191 S    
C55   H28   1.093105 S    
C7    N2    1.440372 S    
C49   H14   1.111850 S    
O16   V4    2.012658 S    
C30   C46   1.501885 S    
C54   H22   1.107787 S    
C36   C40   1.420353 A    
O7    V2    1.710230 S    
C53   C54   1.533167 S    
C12   C15   1.415837 A    
C11   C47   1.501872 S    
C50   H12   1.110789 S    
C7    C8    1.408167 A    
O14   V3    1.863712 S    
C22   C23   1.478231 S    
C34   C35   1.416150 A    
C54   H20   1.104502 S    
C9    C10   1.416415 A    
O14   C46   1.308008 A    
C51   C52   1.530371 S    
O9    C4    1.306731 A    
N2    O24   1.301033 A    
C6    N1    1.434687 S    
V2    O10   2.158241 S    
C56   H26   1.111403 S    
