data_mof_unit_57036.cif
_audit_creation_date              2012-12-11T17:09:32-0500
_audit_creation_method            fapswitch 2.2
_symmetry_space_group_name_H-M    P1
_symmetry_Int_Tables_number       1
_space_group_crystal_system       triclinic
_cell_length_a                    14.831922
_cell_length_b                    6.977289
_cell_length_c                    13.495878
_cell_angle_alpha                 90.000013
_cell_angle_beta                  99.950155
_cell_angle_gamma                 89.999977
_cell_volume                      1375.63493856

loop_
_atom_site_label
_atom_site_type_symbol
_atom_type_description
_atom_site_fract_x
_atom_site_fract_y
_atom_site_fract_z
_atom_type_partial_charge
O1    O     O_R   0.586930 0.505770 0.416350 -0.525834
O2    O     O_R   0.413070 0.005770 0.583650 -0.525834
O3    O     O_R   0.397900 0.173100 0.389630 -0.536643
O4    O     O_R   0.602100 0.673100 0.610370 -0.536643
C1    C     C_R   0.364449 0.345368 0.362893 0.730528
C2    C     C_R   0.635551 0.845368 0.637107 0.730528
O5    O     O_R   0.585280 0.175870 0.404330 -0.550248
O6    O     O_R   0.414720 0.675870 0.595670 -0.550248
O7    O     O_R   0.601790 0.008380 0.598460 -0.533684
O8    O     O_R   0.398210 0.508380 0.401540 -0.533684
C3    C     C_R   0.613492 0.345119 0.381661 0.721062
C4    C     C_R   0.386508 0.845119 0.618339 0.721062
O9    O     O_3   0.505200 0.340120 0.563670 -0.354281
O10   O     O_3   0.494800 0.840120 0.436330 -0.354280
V1    V     V_3+5 0.499040 0.064180 0.488190 1.531630
V2    V     V_3+5 0.500960 0.564180 0.511810 1.531629
C5    C     C_R   0.266456 0.022491 0.692626 -0.070905
C6    C     C_R   0.733545 0.522491 0.307376 -0.070904
C7    C     C_R   0.317593 0.855888 0.686058 -0.040938
C8    C     C_R   0.682407 0.355888 0.313942 -0.040941
C9    C     C_R   0.302678 0.702138 0.748222 -0.129946
C10   C     C_R   0.697321 0.202140 0.251777 -0.129946
H1    H     H_    0.346260 0.578820 0.752277 0.187700
H2    H     H_    0.653739 0.078824 0.247721 0.187703
C11   C     C_R   0.236712 0.713186 0.811607 -0.127870
C12   C     C_R   0.763286 0.213189 0.188391 -0.127869
H3    H     H_    0.230302 0.597236 0.862275 0.183559
H4    H     H_    0.769696 0.097242 0.137722 0.183564
C13   C     C_R   0.183903 0.878835 0.815754 -0.041382
C14   C     C_R   0.816097 0.378836 0.184246 -0.041385
C15   C     C_R   0.201470 0.033987 0.756336 -0.065008
C16   C     C_R   0.798530 0.533986 0.243665 -0.065005
C17   C     C_3   0.231207 0.230890 0.790119 0.232363
C18   C     C_3   0.768795 0.730891 0.209884 0.232361
C19   C     C_3   0.301416 0.219194 0.719831 0.246654
C20   C     C_3   0.698586 0.719194 0.280172 0.246653
H5    H     H_    0.175601 0.335773 0.765279 0.011147
H6    H     H_    0.824401 0.835772 0.234725 0.011149
H7    H     H_    0.286289 0.317028 0.654061 0.002422
H8    H     H_    0.713712 0.817025 0.345942 0.002423
C21   C     C_1   0.783430 0.877185 0.782986 -0.143104
C22   C     C_1   0.216570 0.377186 0.217014 -0.143103
C23   C     C_1   0.716080 0.860074 0.716880 -0.141869
C24   C     C_1   0.283920 0.360074 0.283120 -0.141868
O11   O     O_R   0.101720 0.231700 0.098560 -0.527750
O12   O     O_R   0.898280 0.731700 0.901440 -0.527751
O13   O     O_R   0.914700 0.558980 0.095690 -0.525213
O14   O     O_R   0.085300 0.058980 0.904310 -0.525214
C25   C     C_R   0.884542 0.390125 0.116023 0.722951
C26   C     C_R   0.115458 0.890125 0.883977 0.722951
O15   O     O_R   0.102080 0.561590 0.110390 -0.542298
O16   O     O_R   0.897920 0.061590 0.889610 -0.542298
O17   O     O_R   0.086950 0.728940 0.916330 -0.550804
O18   O     O_R   0.913050 0.228940 0.083670 -0.550803
C27   C     C_R   0.135981 0.391978 0.137324 0.758800
C28   C     C_R   0.864019 0.891978 0.862676 0.758801
O19   O     O_3   0.994770 0.394510 0.936380 -0.374756
O20   O     O_3   0.005230 0.894510 0.063620 -0.374756
V3    V     V_3+5 0.000970 0.670520 0.011800 1.492807
V4    V     V_3+5 0.999030 0.170520 0.988200 1.492806
Cl1   Cl    Cl    0.277890 0.240572 0.922566 -0.538251
Cl2   Cl    Cl    0.722113 0.740578 0.077437 -0.538255
Cl3   Cl    Cl    0.419699 0.222068 0.780323 -0.500840
Cl4   Cl    Cl    0.580303 0.722071 0.219679 -0.500841

loop_
_geom_bond_atom_site_label_1
_geom_bond_atom_site_label_2
_ccdc_geom_bond_type
O4    V2    S    
O5    C3    A    
C15   C17   S    
C21   C28   S    
C12   C14   A    
C7    C9    A    
O9    V2    S    
O12   V3    S    
C11   H3    S    
O16   V4    S    
C12   H4    S    
O1    C3    A    
C20   H8    S    
O6    C4    A    
O2    C4    A    
C6    C20   S    
C2    O7    A    
O5    V1    S    
O7    V1    S    
O3    V1    S    
C1    O8    A    
O13   C25   A    
O1    V2    S    
O8    V2    S    
C14   C16   A    
O2    V1    S    
C21   C23   T    
O11   C27   A    
C22   C24   T    
C17   Cl1   S    
C2    C23   S    
O19   V4    S    
C4    C7    S    
O14   C26   A    
C17   C19   S    
C14   C25   S    
C8    C10   A    
O14   V4    S    
C6    C8    A    
C13   C26   S    
O9    V1    S    
C9    H1    S    
O17   V3    S    
C19   H7    S    
C5    C15   A    
O10   V2    S    
C3    C8    S    
O19   V3    S    
C26   O17   A    
C6    C16   A    
O13   V3    S    
C25   O18   A    
C20   Cl4   S    
C18   Cl2   S    
O15   V3    S    
C18   C20   S    
C11   C13   A    
C13   C15   A    
O4    C2    A    
C10   C12   A    
C10   H2    S    
O12   C28   A    
C9    C11   A    
O10   V1    S    
O11   V4    S    
O18   V4    S    
O6    V2    S    
C5    C19   S    
O15   C27   A    
C5    C7    A    
O20   V3    S    
C18   H6    S    
O20   V4    S    
C19   Cl3   S    
C1    C24   S    
C17   H5    S    
O16   C28   A    
O3    C1    A    
C22   C27   S    
C16   C18   S    
