data_mof_unit_45888.cif
_audit_creation_date              2012-12-11T16:26:25-0500
_audit_creation_method            fapswitch 2.2
_symmetry_space_group_name_H-M    P1
_symmetry_Int_Tables_number       1
_space_group_crystal_system       triclinic
_cell_length_a                    13.980448
_cell_length_b                    13.980361
_cell_length_c                    31.643929
_cell_angle_alpha                 90.033982
_cell_angle_beta                  89.926008
_cell_angle_gamma                 119.979467
_cell_volume                      5357.34931632

loop_
_atom_site_label
_atom_site_type_symbol
_atom_type_description
_atom_site_fract_x
_atom_site_fract_y
_atom_site_fract_z
_atom_type_partial_charge
C1    C     C_R   0.565266 0.445478 0.809877 0.563258
C2    C     C_R   0.445860 0.565118 0.190318 0.561419
C3    C     C_3   0.793848 0.255118 0.435941 -0.300397
C4    C     C_3   0.442447 0.190237 0.065388 -0.271460
C5    C     C_3   0.744835 0.538699 0.435677 -0.300072
C6    C     C_3   0.297328 0.041849 0.549064 -0.278511
C7    C     C_3   0.205386 0.460050 0.935050 -0.297352
C8    C     C_3   0.744915 0.702340 0.548892 -0.278642
C9    C     C_3   0.251678 0.792538 0.933890 -0.290248
C10   C     C_3   0.958298 0.255446 0.548859 -0.278585
C11   C     C_3   0.538497 0.744027 0.935353 -0.284923
C12   C     C_R   0.435045 0.880707 0.309692 0.561532
C13   C     C_R   0.119804 0.554424 0.190133 0.560124
C14   C     C_1   0.012058 0.501685 0.017743 0.005291
C15   C     C_1   0.514847 0.019039 0.479153 0.010336
C16   C     C_1   0.501972 0.509653 0.018609 0.007871
C17   C     C_1   0.981215 0.495934 0.479196 0.010417
C18   C     C_1   0.482754 0.988212 0.017881 -0.022368
C19   C     C_1   0.504027 0.485234 0.479175 0.010462
C20   C     C_1   0.516157 0.022332 0.517032 0.013797
C21   C     C_R   0.880535 0.434722 0.690205 0.557451
C22   C     C_1   0.009434 0.500743 0.979881 0.006462
C23   C     C_1   0.506148 0.483978 0.517053 0.013890
C24   C     C_1   0.484726 0.990736 0.980002 0.003709
C25   C     C_1   0.978026 0.493903 0.517073 0.013835
C26   C     C_1   0.502425 0.508766 0.980692 0.007664
C27   C     C_R   0.946538 0.479262 0.849054 0.004947
C28   C     C_R   0.533829 0.057213 0.649875 0.003625
C29   C     C_R   0.521464 0.466981 0.849527 0.005319
C30   C     C_R   0.943004 0.476551 0.649903 0.003555
C31   C     C_R   0.531791 0.053558 0.849174 0.005453
C32   C     C_R   0.554311 0.119585 0.809763 0.563635
C33   C     C_R   0.523605 0.466317 0.649890 0.003562
C34   C     C_R   0.480819 0.948162 0.348734 0.003002
C35   C     C_R   0.056990 0.533642 0.149956 0.002731
C36   C     C_R   0.467117 0.519109 0.348757 0.003064
C37   C     C_R   0.476302 0.943243 0.150021 -0.007321
C38   C     C_R   0.051732 0.532791 0.348744 0.002990
C39   C     C_R   0.467819 0.522157 0.150612 0.006271
C40   C     C_R   0.935203 0.556564 0.874520 0.059516
C41   C     C_R   0.623212 0.062923 0.626703 0.057294
C42   C     C_R   0.445181 0.378313 0.875222 0.059875
C43   C     C_R   0.565323 0.445766 0.690200 0.557610
C44   C     C_R   0.937515 0.560377 0.626822 0.057408
C45   C     C_R   0.619604 0.066197 0.875351 0.058093
C46   C     C_R   0.439855 0.377000 0.626799 0.057429
C47   C     C_R   0.562597 0.941218 0.372936 0.061717
C48   C     C_R   0.069243 0.623217 0.124973 0.056758
C49   C     C_R   0.378364 0.437555 0.373069 0.061614
C50   C     C_R   0.550563 0.928608 0.124026 0.055329
C51   C     C_R   0.058764 0.621517 0.373025 0.061604
C52   C     C_R   0.379420 0.442971 0.125789 0.057853
C53   C     C_R   0.960445 0.564784 0.917246 -0.153426
C54   C     C_R   0.880472 0.434895 0.809725 0.563450
C55   C     C_R   0.615531 0.050498 0.583000 -0.148285
C56   C     C_R   0.437691 0.395483 0.918035 -0.154865
C57   C     C_R   0.950026 0.565178 0.583121 -0.148333
C58   C     C_R   0.600714 0.040834 0.918054 -0.150045
C59   C     C_R   0.435043 0.384696 0.583102 -0.148310
C60   C     C_R   0.575293 0.969488 0.415456 -0.148834
C61   C     C_R   0.052367 0.609949 0.081622 -0.154529
C62   C     C_R   0.393930 0.424908 0.415587 -0.148889
C63   C     C_R   0.551967 0.945709 0.080730 -0.135222
C64   C     C_R   0.030606 0.605959 0.415567 -0.149028
C65   C     C_R   0.554288 0.119529 0.690194 0.557562
C66   C     C_R   0.393549 0.438398 0.082491 -0.158172
C67   C     C_R   0.002612 0.502548 0.934805 0.005482
C68   C     C_R   0.517977 0.025443 0.562285 0.015075
C69   C     C_R   0.499628 0.500031 0.935536 0.003998
C70   C     C_R   0.974962 0.492588 0.562322 0.015072
C71   C     C_R   0.495371 0.997656 0.934945 0.006503
C72   C     C_R   0.507584 0.482179 0.562308 0.015049
C73   C     C_R   0.512880 0.010225 0.434034 0.005675
C74   C     C_R   0.016822 0.507739 0.062902 0.006340
C75   C     C_R   0.497094 0.487158 0.434059 0.005649
C76   C     C_R   0.445574 0.564928 0.309703 0.561720
C77   C     C_R   0.486193 0.983770 0.063025 -0.014726
C78   C     C_R   0.989865 0.502810 0.434078 0.005600
C79   C     C_R   0.495837 0.506143 0.063837 0.006524
C80   C     C_R   0.034812 0.442189 0.908778 0.159009
C81   C     C_R   0.421916 0.997515 0.585550 0.154441
C82   C     C_R   0.558749 0.592465 0.909352 0.157308
C83   C     C_R   0.002737 0.424308 0.585497 0.154493
C84   C     C_R   0.403962 0.964319 0.908272 0.155283
C85   C     C_R   0.575895 0.578187 0.585500 0.154423
C86   C     C_R   0.447053 0.037562 0.409050 0.159505
C87   C     C_R   0.434623 0.880227 0.190154 0.556871
C88   C     C_R   0.982874 0.413382 0.087983 0.150750
C89   C     C_R   0.590236 0.552765 0.408973 0.159257
C90   C     C_R   0.429708 0.020482 0.089264 0.153268
C91   C     C_R   0.962366 0.409657 0.409023 0.159335
C92   C     C_R   0.589569 0.567986 0.089114 0.155610
C93   C     C_R   0.009015 0.432609 0.865234 0.087242
C94   C     C_R   0.428824 0.009186 0.629990 0.086605
C95   C     C_R   0.567791 0.576102 0.865728 0.084654
C96   C     C_R   0.990974 0.419483 0.629939 0.086516
C97   C     C_R   0.422037 0.990095 0.864746 0.087335
C98   C     C_R   0.119265 0.554393 0.309696 0.561995
C99   C     C_R   0.580685 0.571292 0.629938 0.086427
C100  C     C_R   0.433312 0.009177 0.365696 0.085094
C101  C     C_R   0.999935 0.425821 0.132176 0.085718
C102  C     C_R   0.575604 0.566453 0.365624 0.085255
C103  C     C_R   0.426757 0.002333 0.133174 0.124445
C104  C     C_R   0.990657 0.424298 0.365653 0.085212
C105  C     C_R   0.575829 0.573617 0.133131 0.086530
C106  C     C_3   0.004859 0.271671 0.053035 -0.266687
C107  C     C_3   0.460839 0.206078 0.435910 -0.300207
C108  C     C_3   0.745548 0.559866 0.060256 -0.275239
Cr1   Cr    Cr6+3 0.504240 0.249200 0.750000 1.141779
Cr2   Cr    Cr6+3 0.744960 0.495760 0.750000 1.141647
Cr3   Cr    Cr6+3 0.750800 0.255040 0.750000 1.141865
Cr4   Cr    Cr6+3 0.249200 0.504240 0.250000 1.142463
Cr5   Cr    Cr6+3 0.495760 0.744960 0.250000 1.142322
Cr6   Cr    Cr6+3 0.255040 0.750800 0.250000 1.140960
H1    H     H_    0.068300 0.680397 0.062265 0.139037
H2    H     H_    0.669551 0.057734 0.938530 0.144398
H3    H     H_    0.939720 0.625572 0.565261 0.124830
H4    H     H_    0.384991 0.325896 0.938112 0.137741
H5    H     H_    0.863758 0.246574 0.084723 0.279742
H6    H     H_    0.046337 0.256362 0.079904 0.187428
H7    H     H_    0.068080 0.334784 0.031712 0.165981
H8    H     H_    0.957478 0.193768 0.034925 0.160497
H9    H     H_    0.316405 0.068474 0.415071 0.288178
H10   H     H_    0.488438 0.251766 0.405521 0.175191
H11   H     H_    0.534237 0.222870 0.455004 0.138753
H12   H     H_    0.632431 0.956793 0.434502 0.141717
H13   H     H_    0.413054 0.236491 0.453845 0.140477
H14   H     H_    0.749933 0.700511 0.084285 0.291004
H15   H     H_    0.762171 0.527787 0.089812 0.170154
H16   H     H_    0.824914 0.610839 0.043367 0.153525
H17   H     H_    0.690460 0.489469 0.039551 0.153752
H18   H     H_    0.931304 0.248053 0.414889 0.288196
H19   H     H_    0.748083 0.237124 0.405598 0.175022
H20   H     H_    0.777184 0.311770 0.455131 0.138783
H21   H     H_    0.763413 0.176917 0.453824 0.140480
H22   H     H_    0.327022 0.033129 0.045484 0.266221
H23   H     H_    0.323623 0.382905 0.063133 0.127967
H24   H     H_    0.390901 0.225117 0.054293 0.152207
H25   H     H_    0.506606 0.207147 0.041153 0.135948
H26   H     H_    0.483031 0.231994 0.095392 0.183921
H27   H     H_    0.751796 0.683252 0.414844 0.288134
H28   H     H_    0.762982 0.511169 0.405261 0.175235
H29   H     H_    0.688149 0.465250 0.454785 0.138702
H30   H     H_    0.822982 0.586367 0.453581 0.140511
H31   H     H_    0.252499 0.892162 0.578387 0.282448
H32   H     H_    0.221122 0.003605 0.529595 0.158150
H33   H     H_    0.366520 0.103024 0.529205 0.161888
H34   H     H_    0.043395 0.675791 0.434676 0.141703
H35   H     H_    0.285127 0.084732 0.576268 0.176448
H36   H     H_    0.071133 0.314937 0.912787 0.291001
H37   H     H_    0.238348 0.412901 0.951806 0.146125
H38   H     H_    0.219209 0.530671 0.955360 0.141745
H39   H     H_    0.251182 0.491888 0.904854 0.172539
H40   H     H_    0.640343 0.747663 0.578242 0.282482
H41   H     H_    0.783117 0.778578 0.529405 0.158172
H42   H     H_    0.736713 0.633068 0.529034 0.161797
H43   H     H_    0.799859 0.714285 0.576070 0.176179
H44   H     H_    0.239548 0.925669 0.911087 0.291631
H45   H     H_    0.603852 0.927696 0.060610 0.145433
H46   H     H_    0.171120 0.758669 0.950418 0.150618
H47   H     H_    0.308543 0.779495 0.954434 0.143716
H48   H     H_    0.239059 0.747009 0.903721 0.170196
H49   H     H_    0.107939 0.359998 0.578205 0.282409
H50   H     H_    0.996514 0.217433 0.529324 0.158134
H51   H     H_    0.897222 0.263636 0.529048 0.161974
H52   H     H_    0.915305 0.200341 0.576029 0.176396
H53   H     H_    0.684517 0.756602 0.913129 0.291016
H54   H     H_    0.584776 0.824543 0.951912 0.153487
H55   H     H_    0.468277 0.686953 0.955778 0.143802
H56   H     H_    0.324091 0.367931 0.434713 0.141727
H57   H     H_    0.506089 0.756823 0.905114 0.166803
H58   H     H_    0.686264 0.060934 0.565074 0.124866
H59   H     H_    0.944387 0.618296 0.937210 0.140508
H60   H     H_    0.374660 0.314017 0.565242 0.124877
I1    I     I_    0.887329 0.670523 0.853161 -0.234315
I2    I     I_    0.670472 0.889506 0.145785 -0.237678
I3    I     I_    0.103443 0.781224 0.349966 -0.227350
I4    I     I_    0.224813 0.319617 0.150015 -0.241920
I5    I     I_    0.929351 0.282062 0.171708 -0.215200
I6    I     I_    0.358509 0.076318 0.325320 -0.218681
I7    I     I_    0.718068 0.642364 0.173363 -0.214384
I8    I     I_    0.923391 0.282442 0.325189 -0.216223
I9    I     I_    0.355915 0.074187 0.173216 -0.165005
I10   I     I_    0.717510 0.641001 0.325125 -0.216064
I11   I     I_    0.280163 0.941468 0.666687 -0.202047
I12   I     I_    0.767577 0.076315 0.654536 -0.233121
I13   I     I_    0.080238 0.364037 0.823606 -0.213355
I14   I     I_    0.661731 0.719977 0.666539 -0.202491
I15   I     I_    0.284232 0.918074 0.822302 -0.213287
I16   I     I_    0.058529 0.338386 0.666529 -0.202628
I17   I     I_    0.635079 0.715597 0.824044 -0.215005
I18   I     I_    0.331694 0.216117 0.854131 -0.240370
I19   I     I_    0.924249 0.691441 0.654779 -0.232189
I20   I     I_    0.782925 0.116750 0.855148 -0.239563
I21   I     I_    0.308865 0.232666 0.654736 -0.232510
I22   I     I_    0.677654 0.896508 0.349797 -0.226850
I23   I     I_    0.103686 0.779575 0.148441 -0.212359
I24   I     I_    0.218558 0.322770 0.350102 -0.226943
N1    N     N_2   0.930309 0.307333 0.068478 -0.505422
N2    N     N_2   0.295403 0.908935 0.925691 -0.499910
N3    N     N_2   0.043164 0.362332 0.563763 -0.495945
N4    N     N_2   0.611356 0.700356 0.927324 -0.489364
N5    N     N_2   0.391757 0.088959 0.428118 -0.502070
N6    N     N_2   0.695938 0.626706 0.069954 -0.492445
N7    N     N_2   0.910931 0.302978 0.428034 -0.502081
N8    N     N_2   0.373339 0.072510 0.071865 -0.474898
N9    N     N_2   0.696909 0.607921 0.427938 -0.502034
N10   N     N_2   0.319527 0.957030 0.563906 -0.495935
N11   N     N_2   0.088818 0.388436 0.926880 -0.501985
N12   N     N_2   0.638001 0.680509 0.563785 -0.495856
O1    O     O_R   0.480350 0.140770 0.796330 -0.456793
O2    O     O_R   0.140770 0.480350 0.203670 -0.457485
O3    O     O_R   0.519650 0.660420 0.296330 -0.456595
O4    O     O_R   0.339580 0.859230 0.203670 -0.461105
O5    O     O_R   0.514930 0.348530 0.793250 -0.469629
O6    O     O_R   0.833600 0.485070 0.706750 -0.471865
O7    O     O_R   0.651470 0.166400 0.793250 -0.469391
O8    O     O_R   0.514930 0.348530 0.706750 -0.471781
O9    O     O_R   0.833600 0.485070 0.793250 -0.470267
O10   O     O_R   0.651470 0.166400 0.706750 -0.471949
O11   O     O_R   0.348530 0.514930 0.293250 -0.471331
O12   O     O_R   0.660420 0.519650 0.703670 -0.460356
O13   O     O_R   0.485070 0.833600 0.206750 -0.469466
O14   O     O_R   0.166400 0.651470 0.293250 -0.471498
O15   O     O_R   0.348530 0.514930 0.206750 -0.471123
O16   O     O_R   0.485070 0.833600 0.293250 -0.471544
O17   O     O_R   0.166400 0.651470 0.206750 -0.472321
O18   O     O_3   0.666667 0.333333 0.750000 -0.288735
O19   O     O_3   0.333333 0.666667 0.250000 -0.287809
O20   O     O_R   0.859230 0.339580 0.796330 -0.456149
O21   O     O_R   0.480350 0.140770 0.703670 -0.460287
O22   O     O_R   0.660420 0.519650 0.796330 -0.456304
O23   O     O_R   0.859230 0.339580 0.703670 -0.460520
O24   O     O_R   0.140770 0.480350 0.296330 -0.456204
O25   O     O_R   0.519650 0.660420 0.203670 -0.457328
O26   O     O_R   0.339580 0.859230 0.296330 -0.457088

loop_
_geom_bond_atom_site_label_1
_geom_bond_atom_site_label_2
_ccdc_geom_bond_type
C104  I8    S    
C11   H57   S    
C81   C94   A    
C76   O11   A    
C46   C59   A    
Cr4   O11   S    
Cr6   O4    S    
Cr2   O6    S    
C94   I11   S    
Cr5   O3    S    
C91   C104  A    
C83   N3    S    
C59   H60   S    
C38   C104  A    
C85   N12   S    
Cr6   O19   S    
C88   C101  A    
C5    H28   S    
C27   C54   S    
C53   H59   S    
C54   O9    A    
C12   O26   A    
C84   N2    S    
C107  N5    S    
C66   C79   A    
C44   I19   S    
Cr5   O19   S    
H5    N1    S    
C68   C81   A    
C14   C74   S    
C88   N1    S    
C50   I2    S    
C51   C64   A    
C13   C35   S    
C10   H51   S    
C29   C42   A    
Cr4   O24   S    
C58   C71   A    
C5    H29   S    
C5    N9    S    
C8    H43   S    
C102  I10   S    
C60   C73   A    
C36   C102  A    
H14   N6    S    
H53   N4    S    
C96   I16   S    
C8    H41   S    
C41   C55   A    
C108  H17   S    
C30   C96   A    
Cr1   O8    S    
C36   C76   S    
C42   C56   A    
C47   C60   A    
C90   N8    S    
C6    H35   S    
C12   O16   A    
C76   O3    A    
C21   O23   A    
C103  I9    S    
C73   C86   A    
C98   O14   A    
C1    O5    A    
H44   N2    S    
Cr4   O15   S    
C63   H45   S    
C57   C70   A    
C86   C100  A    
C27   C40   A    
C108  H16   S    
C32   O7    A    
C92   N6    S    
C9    N2    S    
C38   C98   S    
C59   C72   A    
C62   H56   S    
C97   I15   S    
C39   C52   A    
Cr6   O17   S    
H18   N7    S    
C19   C75   S    
C64   H34   S    
C58   H2    S    
C50   C63   A    
C13   O2    A    
C30   C44   A    
C64   C78   A    
C107  H10   S    
C8    N12   S    
C35   C48   A    
C2    C39   S    
C99   I14   S    
C91   N7    S    
Cr1   O18   S    
C20   C68   S    
C55   C68   A    
C49   I24   S    
C72   C85   A    
C16   C26   T    
C15   C20   T    
C45   C58   A    
C77   C90   A    
C74   C88   A    
C65   O21   A    
C3    N7    S    
H36   N11   S    
C47   I22   S    
C46   I21   S    
C43   O12   A    
C26   C69   S    
C107  H11   S    
C82   N4    S    
C32   O1    A    
Cr5   O13   S    
C5    H30   S    
Cr6   O26   S    
C38   C51   A    
C9    H46   S    
C35   C101  A    
C4    H24   S    
C84   C97   A    
Cr4   O19   S    
C7    H38   S    
C33   C99   A    
C11   N4    S    
C33   C43   S    
C19   C23   T    
H27   N9    S    
C8    H42   S    
C61   H1    S    
C85   C99   A    
C101  I5    S    
C4    H26   S    
C92   C105  A    
C34   C100  A    
C31   C32   S    
C7    H39   S    
C44   C57   A    
C10   H52   S    
C90   C103  A    
C106  H8    S    
C89   C102  A    
C1    C29   S    
C79   C92   A    
C21   O6    A    
Cr1   O1    S    
C9    H47   S    
C70   C83   A    
C108  H15   S    
Cr2   O22   S    
C81   N10   S    
C7    H37   S    
C93   I13   S    
C15   C73   S    
C11   H55   S    
Cr2   O9    S    
C11   H54   S    
C61   C74   A    
C18   C24   T    
C62   C75   A    
C27   C93   A    
C43   O8    A    
Cr3   O10   S    
C7    N11   S    
C57   H3    S    
C12   C34   S    
Cr2   O12   S    
Cr4   O2    S    
C55   H58   S    
C52   C66   A    
C29   C95   A    
C71   C84   A    
C63   C77   A    
C45   I20   S    
Cr5   O25   S    
H49   N3    S    
C10   H50   S    
C82   C95   A    
C106  H6    S    
C56   H4    S    
C23   C72   S    
C37   C87   S    
Cr3   O18   S    
C67   C80   A    
C39   C105  A    
Cr1   O5    S    
C40   I1    S    
C13   O17   A    
C65   O10   A    
C37   C103  A    
C40   C53   A    
C4    N8    S    
C25   C70   S    
Cr6   O14   S    
C95   I17   S    
C78   C91   A    
C21   C30   S    
C33   C46   A    
H9    N5    S    
C48   I23   S    
C3    H20   S    
C105  I7    S    
C14   C22   T    
C60   H12   S    
C28   C65   S    
C17   C25   T    
C108  N6    S    
Cr2   O18   S    
C36   C49   A    
C4    H25   S    
H22   N8    S    
C6    H33   S    
Cr1   O21   S    
C1    O22   A    
Cr5   O16   S    
C89   N9    S    
C66   H23   S    
C18   C77   S    
C6    H32   S    
C83   C96   A    
C106  H7    S    
C37   C50   A    
C17   C78   S    
Cr3   O23   S    
C87   O4    A    
C41   I12   S    
C69   C82   A    
C3    H21   S    
C31   C97   A    
C9    H48   S    
C53   C67   A    
C10   N3    S    
C52   I4    S    
C22   C67   S    
C16   C79   S    
C75   C89   A    
C107  H13   S    
C6    N10   S    
C42   I18   S    
C2    O25   A    
C24   C71   S    
H40   N12   S    
C56   C69   A    
C31   C45   A    
C48   C61   A    
C28   C94   A    
Cr3   O20   S    
C106  N1    S    
C49   C62   A    
C34   C47   A    
Cr3   O7    S    
C3    H19   S    
C80   C93   A    
C51   I3    S    
C86   N5    S    
C54   O20   A    
H31   N10   S    
C98   O24   A    
C28   C41   A    
C2    O15   A    
C87   O13   A    
C80   N11   S    
C100  I6    S    
