data_mof_unit_16898.cif
_audit_creation_date              2012-12-11T14:15:46-0500
_audit_creation_method            fapswitch 2.2
_symmetry_space_group_name_H-M    P1
_symmetry_Int_Tables_number       1
_space_group_crystal_system       triclinic
_cell_length_a                    11.16262
_cell_length_b                    12.708564
_cell_length_c                    23.462731
_cell_angle_alpha                 90.555211
_cell_angle_beta                  97.141076
_cell_angle_gamma                 68.716239
_cell_volume                      3075.10575043

loop_
_atom_site_label
_atom_site_type_symbol
_atom_type_description
_atom_site_fract_x
_atom_site_fract_y
_atom_site_fract_z
_atom_type_partial_charge
C1    C     C_R   0.149364 0.617225 0.429129 0.546780
C2    C     C_2   0.197393 0.225366 0.228890 0.276225
C3    C     C_2   0.138125 0.174499 0.260303 0.006100
C4    C     C_R   0.745903 0.605786 0.404230 0.575255
C5    C     C_1   0.123555 0.203423 0.319494 0.048858
C6    C     C_1   0.218219 0.195091 0.170446 0.009268
C7    C     C_1   0.112681 0.233684 0.368062 0.041391
C8    C     C_1   0.167339 0.747827 0.122898 -0.005860
C9    C     C_2   0.151200 0.678380 0.226943 0.295079
C10   C     C_2   0.228367 0.693350 0.273268 0.019475
C11   C     C_1   0.214415 0.661297 0.330439 0.042155
C12   C     C_R   0.634371 0.571245 0.310666 -0.040304
C13   C     C_1   0.157320 0.715788 0.169691 0.012063
C14   C     C_1   0.193345 0.638219 0.377009 0.038359
C15   C     C_1   0.615012 0.764668 0.862356 0.018315
C16   C     C_R   0.100698 0.282030 0.423480 0.555268
C17   C     C_2   0.652466 0.752664 0.753178 0.261199
C18   C     C_2   0.625921 0.673385 0.721733 -0.100995
C19   C     C_1   0.655828 0.655719 0.663675 0.015091
C20   C     C_1   0.636115 0.758566 0.813118 0.026985
C21   C     C_1   0.691398 0.635714 0.617078 0.028961
C22   C     C_R   0.194711 0.187019 0.856464 0.007807
C23   C     C_R   0.693172 0.738064 0.318574 0.203464
C24   C     C_R   0.105425 0.237979 0.643234 0.006980
C25   C     C_R   0.004349 0.177313 0.715700 -0.025327
C26   C     C_R   0.012973 0.195985 0.657907 -0.115408
C27   C     C_R   0.187595 0.264086 0.685788 -0.108850
C28   C     C_R   0.152148 0.617535 0.590466 0.534298
C29   C     C_R   0.179636 0.248186 0.742807 0.040702
C30   C     C_R   0.091049 0.200863 0.758710 0.057564
C31   C     C_R   0.098140 0.172492 0.816752 -0.127970
C32   C     C_R   0.269108 0.247458 0.840917 -0.118702
C33   C     C_R   0.262257 0.277221 0.784044 -0.121910
C34   C     C_R   0.694428 0.741197 0.258759 0.018792
C35   C     C_R   0.122126 0.745265 0.851670 0.023047
C36   C     C_R   0.201938 0.640300 0.648451 0.027313
C37   C     C_R   0.302529 0.555863 0.742793 -0.138588
C38   C     C_R   0.292976 0.550709 0.683213 -0.151807
C39   C     C_R   0.132878 0.741472 0.674058 0.010454
C40   C     C_R   0.748719 0.602460 0.565432 0.541600
C41   C     C_R   0.124058 0.737457 0.733026 0.009586
C42   C     C_R   0.212477 0.645753 0.768517 0.041745
C43   C     C_R   0.208648 0.647665 0.828548 -0.036820
C44   C     C_R   0.017554 0.820963 0.814796 0.226018
C45   C     C_R   0.682541 0.650318 0.225986 0.034220
C46   C     C_R   0.022136 0.819029 0.756199 -0.089865
C47   C     C_R   0.265985 0.110607 0.069150 0.539362
C48   C     C_R   0.602787 0.774225 0.081035 0.536377
C49   C     C_R   0.189470 0.787348 0.069509 0.543682
C50   C     C_R   0.240006 0.117120 0.908688 0.544776
C51   C     C_R   0.573034 0.777107 0.918035 0.549976
C52   C     C_R   0.099681 0.280008 0.585565 0.541995
C53   C     C_R   0.162318 0.785562 0.907347 0.556996
C54   C     C_R   0.679518 0.752249 0.138781 0.026610
C55   C     C_R   0.680734 0.644059 0.345084 -0.005612
C56   C     C_R   0.699200 0.649349 0.167423 0.045256
C57   C     C_R   0.642685 0.569884 0.251407 0.214896
C58   C     C_3   0.756078 0.539967 0.137101 -0.294395
C59   C     C_3   0.901042 0.135924 0.730267 -0.386978
C60   C     C_3   0.292686 0.546288 0.867089 -0.373493
C61   C     C_3   0.708116 0.943335 0.143467 -0.357838
C62   C     C_3   0.069270 0.852280 0.639378 -0.376018
C63   C     C_3   0.572041 0.497827 0.336184 -0.305736
C64   C     C_3   0.078648 0.092880 0.234310 -0.418228
C65   C     C_3   0.319039 0.755365 0.268066 -0.422394
C66   C     C_R   0.699415 0.840247 0.171142 -0.029969
C67   C     C_R   0.711603 0.831507 0.231072 -0.047673
C68   C     C_1   0.238507 0.162296 0.122950 -0.007305
Cl1   Cl    Cl    0.037897 0.613516 0.233692 -0.564754
Cl2   Cl    Cl    0.698994 0.855267 0.722245 -0.573708
Cl3   Cl    Cl    0.880392 0.922365 0.839747 -0.562452
Cl4   Cl    Cl    0.584683 0.477347 0.209203 -0.627684
Cl5   Cl    Cl    0.701956 0.853329 0.360029 -0.585417
Cl6   Cl    Cl    0.262566 0.324075 0.258886 -0.501274
Cr1   Cr    Cr6+3 0.189770 0.415650 0.511620 1.050450
Cr2   Cr    Cr6+3 0.930400 0.667320 0.496770 1.103447
Cr3   Cr    Cr6+3 0.879870 0.417010 0.491650 1.035254
Cr4   Cr    Cr6+3 0.149500 0.973980 0.985330 1.061715
Cr5   Cr    Cr6+3 0.457000 0.976510 0.994660 1.048030
Cr6   Cr    Cr6+3 0.411170 0.724270 0.995270 1.031369
H1    H     H_    0.592245 0.613825 0.741316 0.082685
H2    H     H_    0.727103 0.899254 0.255339 0.187452
H3    H     H_    0.818101 0.470896 0.168411 0.185378
H4    H     H_    0.679042 0.515062 0.113166 0.198896
H5    H     H_    0.819359 0.549571 0.106108 0.126272
H6    H     H_    0.947006 0.054895 0.755195 0.166671
H7    H     H_    0.834931 0.198924 0.756308 0.158133
H8    H     H_    0.842336 0.121941 0.691179 0.146074
H9    H     H_    0.282241 0.468760 0.849126 0.115066
H10   H     H_    0.395838 0.538109 0.870662 0.148202
H11   H     H_    0.262183 0.551213 0.910585 0.150326
H12   H     H_    0.039411 0.128217 0.830305 0.152279
H13   H     H_    0.760408 0.984482 0.173894 0.130758
H14   H     H_    0.762786 0.919268 0.105949 0.150902
H15   H     H_    0.609417 0.005921 0.129757 0.181041
H16   H     H_    0.112819 0.849683 0.599084 0.150881
H17   H     H_    0.963425 0.872030 0.628893 0.170255
H18   H     H_    0.085411 0.921867 0.664243 0.121369
H19   H     H_    0.543333 0.525870 0.379052 0.126469
H20   H     H_    0.480534 0.504539 0.309116 0.202311
H21   H     H_    0.639222 0.408213 0.339308 0.193578
H22   H     H_    0.049069 0.050064 0.268032 0.148108
H23   H     H_    0.341743 0.261719 0.871841 0.135194
H24   H     H_    0.991600 0.139310 0.203478 0.152825
H25   H     H_    0.149195 0.027013 0.211267 0.122914
H26   H     H_    0.382680 0.749528 0.309173 0.144544
H27   H     H_    0.381148 0.719250 0.233981 0.168273
H28   H     H_    0.261992 0.845830 0.257105 0.127175
H29   H     H_    0.327905 0.315729 0.771910 0.105081
H30   H     H_    0.945710 0.180854 0.624366 0.125740
H31   H     H_    0.255308 0.301594 0.674728 0.134835
H32   H     H_    0.375408 0.485893 0.768011 0.107855
H33   H     H_    0.944381 0.881198 0.728691 0.183112
H34   H     H_    0.351606 0.473890 0.664507 0.128874
O1    O     O_R   0.196340 0.303200 0.448500 -0.482004
O2    O     O_R   0.555390 0.700940 0.062700 -0.508570
O3    O     O_R   0.295020 0.731920 0.049950 -0.481116
O4    O     O_R   0.199310 0.519670 0.454880 -0.491833
O5    O     O_R   0.094290 0.884230 0.921550 -0.447832
O6    O     O_R   0.168980 0.069410 0.926940 -0.499153
O7    O     O_R   0.358400 0.089990 0.927950 -0.504387
O8    O     O_R   0.544850 0.873850 0.939920 -0.470311
O9    O     O_R   0.536020 0.701900 0.936430 -0.522602
O10   O     O_R   0.277070 0.732810 0.932890 -0.514145
O11   O     O_3   0.339220 0.891590 0.991750 -0.257524
O12   O     O_R   0.811960 0.658090 0.547150 -0.477881
O13   O     O_R   0.045660 0.691380 0.441680 -0.477646
O14   O     O_R   0.811930 0.659460 0.430950 -0.427498
O15   O     O_R   0.757900 0.507620 0.421760 -0.528931
O16   O     O_R   0.988630 0.322990 0.439840 -0.496956
O17   O     O_R   0.196380 0.301720 0.573850 -0.515929
O18   O     O_R   0.199350 0.518300 0.571080 -0.510725
O19   O     O_R   0.045700 0.689900 0.567030 -0.511816
O20   O     O_R   0.757930 0.506140 0.547110 -0.518877
O21   O     O_R   0.988670 0.321620 0.556040 -0.501508
O22   O     O_3   0.000020 0.499990 0.500010 -0.262011
O23   O     O_R   0.113660 0.883270 0.047820 -0.509460
O24   O     O_R   0.186930 0.068530 0.043990 -0.500814
O25   O     O_R   0.377770 0.089040 0.054220 -0.510933
O26   O     O_R   0.562800 0.872960 0.056970 -0.506337

loop_
_geom_bond_atom_site_label_1
_geom_bond_atom_site_label_2
_ccdc_geom_bond_type
C24   C52   S    
Cr5   O25   S    
C16   O1    A    
C8    C13   T    
C49   O23   A    
C35   C53   S    
Cr2   O12   S    
C41   C42   A    
C47   C68   S    
Cr4   O6    S    
C24   C27   A    
C63   H21   S    
C17   C20   S    
Cr2   O22   S    
C64   H25   S    
C39   C41   A    
C60   H9    S    
C64   H22   S    
Cr5   O7    S    
C45   C57   A    
C63   H20   S    
C22   C32   A    
C50   O6    A    
C19   C21   T    
C24   C26   A    
C62   H16   S    
C30   C31   A    
C38   H34   S    
C11   C14   T    
C61   H13   S    
C10   C65   S    
C27   C29   A    
Cr6   O11   S    
C29   C33   A    
C18   H1    S    
C51   O9    A    
C44   Cl3   S    
C64   H24   S    
C18   C19   S    
C37   C42   A    
C9    C13   S    
C59   H8    S    
C37   H32   S    
C63   H19   S    
C62   H18   S    
C61   C66   S    
C49   O3    A    
Cr6   O2    S    
C45   C56   A    
Cr1   O17   S    
C41   C46   A    
Cr3   O22   S    
C15   C51   S    
C29   C30   A    
C35   C43   A    
C9    C10   D    
C26   H30   S    
C65   H28   S    
C2    Cl6   S    
C48   O2    A    
C6    C68   T    
C66   C67   A    
Cr5   O11   S    
C27   H31   S    
C17   Cl2   S    
C2    C6    S    
C50   O7    A    
C23   Cl5   S    
Cr4   O24   S    
C44   C46   A    
C15   C20   T    
Cr5   O8    S    
C54   C56   A    
C22   C31   A    
C48   O26   A    
C28   O19   A    
C5    C7    T    
C12   C63   S    
C4    O14   A    
Cr1   O22   S    
Cr3   O16   S    
C25   C26   A    
C3    C64   S    
C40   O20   A    
C28   O18   A    
C48   C54   S    
C37   C38   A    
C58   H4    S    
C62   H17   S    
C23   C34   A    
C40   O12   A    
C61   H15   S    
C17   C18   D    
C32   H23   S    
C34   C45   A    
Cr3   O15   S    
C35   C44   A    
C43   C60   S    
C12   C57   A    
C7    C16   S    
C4    C55   S    
Cr1   O4    S    
Cr2   O14   S    
Cr1   O1    S    
C42   C43   A    
Cr4   O23   S    
C65   H26   S    
C16   O16   A    
Cr1   O18   S    
Cr6   O10   S    
C60   H11   S    
C25   C30   A    
C52   O21   A    
C39   C62   S    
Cr6   O3    S    
Cr5   O26   S    
C46   H33   S    
C61   H14   S    
C52   O17   A    
C36   C39   A    
C1    O13   A    
C9    Cl1   S    
C3    C5    S    
C53   O10   A    
C34   C67   A    
Cr2   O19   S    
C53   O5    A    
C23   C55   A    
C4    O15   A    
C54   C66   A    
C60   H10   S    
Cr3   O21   S    
C58   H5    S    
C22   C50   S    
C32   C33   A    
C36   C38   A    
Cr4   O5    S    
C59   H6    S    
C58   H3    S    
C51   O8    A    
C21   C40   S    
C47   O24   A    
C56   C58   S    
C2    C3    D    
C1    O4    A    
C57   Cl4   S    
C59   H7    S    
C12   C55   A    
C10   C11   S    
C33   H29   S    
C28   C36   S    
C67   H2    S    
C31   H12   S    
Cr3   O20   S    
C47   O25   A    
Cr2   O13   S    
C1    C14   S    
C25   C59   S    
Cr4   O11   S    
C8    C49   S    
C65   H27   S    
Cr6   O9    S    
