data_mof_unit_28898.cif
_audit_creation_date              2013-03-05T16:06:17-0500
_audit_creation_method            fapswitch 2.2
_symmetry_space_group_name_H-M    P1
_symmetry_Int_Tables_number       1
_space_group_crystal_system       triclinic
_cell_length_a                    10.929848
_cell_length_b                    9.579028
_cell_length_c                    27.831693
_cell_angle_alpha                 89.702754
_cell_angle_beta                  92.934299
_cell_angle_gamma                 88.177501
_cell_volume                      2908.54334751

loop_
_atom_site_label
_atom_site_type_symbol
_atom_site_description
_atom_site_fract_x
_atom_site_fract_y
_atom_site_fract_z
_atom_type_partial_charge
O1    O     O_R   0.319640 0.618740 0.500000 -0.540808
O2    O     O_R   0.680360 0.381260 0.500000 -0.537993
O3    O     O_R   0.680360 0.618740 0.500000 -0.548752
O4    O     O_R   0.319640 0.381260 0.500000 -0.534995
C1    C     C_R   0.262224 0.502797 0.502796 0.824154
C2    C     C_R   0.737018 0.497982 0.495860 0.842546
O5    O     O_R   0.500020 0.618770 0.430260 -0.549289
O6    O     O_R   0.499980 0.381230 0.569740 -0.537764
O7    O     O_R   0.499980 0.618770 0.569740 -0.550319
O8    O     O_R   0.500020 0.381230 0.430260 -0.533011
C3    C     C_R   0.502332 0.500104 0.407242 0.855038
C4    C     C_R   0.498217 0.499603 0.592769 0.845873
Cu1   Cu    Cu3+1 0.500000 0.640660 0.500000 1.090177
Cu2   Cu    Cu3+1 0.500000 0.359340 0.500000 1.102911
C5    C     C_R   0.396897 0.575852 0.175205 0.621155
C6    C     C_R   0.603490 0.570269 0.824562 0.618923
O9    O     O_2   0.292094 0.597419 0.198075 -0.484734
O10   O     O_2   0.707417 0.589305 0.801531 -0.485491
N1    N     N_R   0.504715 0.549190 0.201258 -0.462007
N2    N     N_R   0.496645 0.545400 0.798707 -0.461234
C7    C     C_R   0.613170 0.530826 0.179291 0.574400
C8    C     C_R   0.388999 0.529403 0.820861 0.574475
C9    C     C_R   0.512677 0.396612 0.273485 -0.048237
C10   C     C_R   0.490366 0.394119 0.726762 -0.046794
C11   C     C_R   0.514519 0.381889 0.324390 -0.119355
C12   C     C_R   0.488384 0.380240 0.675866 -0.114443
C13   C     C_R   0.499775 0.635697 0.331056 -0.116793
C14   C     C_R   0.501808 0.633328 0.668743 -0.136365
C15   C     C_R   0.497215 0.649064 0.281381 -0.074112
C16   C     C_R   0.504109 0.645779 0.718379 -0.074138
C17   C     C_R   0.503012 0.531215 0.252480 0.262245
C18   C     C_R   0.498711 0.527897 0.747512 0.263256
C19   C     C_R   0.504342 0.551567 0.101373 -0.040773
C20   C     C_R   0.497262 0.549233 0.898599 -0.040440
C21   C     C_R   0.394512 0.577003 0.124732 -0.035202
C22   C     C_R   0.605927 0.572457 0.875028 -0.035997
C23   C     C_R   0.285027 0.601256 0.097241 -0.098672
C24   C     C_R   0.714354 0.595901 0.902316 -0.098978
C25   C     C_R   0.614978 0.531057 0.128886 -0.046010
C26   C     C_R   0.387423 0.529995 0.871267 -0.044855
C27   C     C_R   0.506506 0.503621 0.353670 -0.119533
C28   C     C_R   0.495090 0.502061 0.646358 -0.121418
H1    H     H_    0.495905 0.730806 0.351765 0.219084
H2    H     H_    0.505956 0.728519 0.647858 0.212276
H3    H     H_    0.491796 0.752219 0.265130 0.175882
H4    H     H_    0.509094 0.748359 0.734424 0.176291
H5    H     H_    0.200141 0.626621 0.114172 0.204207
H6    H     H_    0.798062 0.619730 0.885178 0.204812
C29   C     C_R   0.387802 0.530408 0.972993 -0.020335
C30   C     C_R   0.614925 0.529722 0.027140 -0.020671
C31   C     C_R   0.611937 0.551656 0.976523 0.063025
C32   C     C_R   0.389704 0.553608 0.023424 0.063647
C33   C     C_R   0.498838 0.544130 0.949469 0.070532
C34   C     C_R   0.503150 0.545361 0.050545 0.070736
C35   C     C_R   0.280331 0.495813 0.944900 -0.052463
C36   C     C_R   0.724037 0.494565 0.055529 -0.051737
C37   C     C_R   0.280395 0.502377 0.894610 -0.165688
C38   C     C_R   0.723413 0.501755 0.105777 -0.164977
O11   O     O_2   0.284361 0.510542 0.794124 -0.491060
O12   O     O_2   0.718448 0.509824 0.206222 -0.489552
C39   C     C_R   0.282933 0.591336 0.047356 -0.128408
C40   C     C_R   0.716922 0.587447 0.952279 -0.127910
H7    H     H_    0.197942 0.477014 0.873567 0.222493
H8    H     H_    0.807017 0.475737 0.127029 0.222496
H9    H     H_    0.197062 0.616400 0.027782 0.161958
H10   H     H_    0.801611 0.612147 0.971631 0.163056
C41   C     C_R   0.067060 0.383928 0.514603 -0.089375
C42   C     C_R   0.929646 0.620926 0.481127 -0.064116
C43   C     C_R   0.942535 0.373094 0.501471 -0.089882
C44   C     C_R   0.056132 0.631196 0.491368 -0.090277
C45   C     C_R   0.871299 0.495302 0.490624 -0.157274
C46   C     C_R   0.126952 0.508831 0.505208 -0.171965
C47   C     C_R   0.423539 0.077289 0.468670 0.366422
C48   C     C_R   0.574935 0.922968 0.531962 0.350289
C49   C     C_R   0.576830 0.071168 0.531152 0.333246
C50   C     C_R   0.426506 0.929135 0.467659 0.338512
N3    N     N_R   0.500000 0.852070 0.500000 -0.282945
N4    N     N_R   0.500000 0.147930 0.500000 -0.285825
Cl1   Cl    Cl    0.317830 0.168959 0.429237 -0.454216
Cl2   Cl    Cl    0.674074 0.831781 0.574051 -0.441204
Cl3   Cl    Cl    0.681122 0.155754 0.570455 -0.431612
Cl4   Cl    Cl    0.337361 0.845931 0.422665 -0.496414
C51   C     C_2   0.482568 0.238201 0.655066 0.976636
O13   O     O_2   0.560560 0.149058 0.667500 -0.517733
O14   O     O_R   0.384918 0.204050 0.623455 -0.693375
H11   H     H_    0.390681 0.103485 0.612386 0.328735
C52   C     C_2   0.522646 0.239299 0.345513 0.976894
O15   O     O_2   0.445821 0.154424 0.333463 -0.515444
O16   O     O_R   0.621254 0.199710 0.377032 -0.699728
H12   H     H_    0.616737 0.099419 0.388487 0.325253
C53   C     C_2   0.481297 0.270301 0.758857 0.909395
O17   O     O_2   0.404863 0.182580 0.749538 -0.541725
O18   O     O_R   0.559140 0.255316 0.800139 -0.735085
H13   H     H_    0.543228 0.168033 0.819298 0.345975
C54   C     C_2   0.523822 0.272714 0.241672 0.907088
O19   O     O_2   0.601664 0.180845 0.251242 -0.542937
O20   O     O_R   0.446300 0.262273 0.200392 -0.734623
H14   H     H_    0.463682 0.174365 0.181452 0.346344
C55   C     C_2   0.174961 0.427802 0.965814 0.849871
O21   O     O_2   0.070961 0.450340 0.948580 -0.591013
O22   O     O_R   0.195645 0.333416 0.004110 -0.723639
H15   H     H_    0.117674 0.290411 0.014489 0.356743
C56   C     C_2   0.833154 0.425737 0.035154 0.849636
O23   O     O_2   0.935865 0.448305 0.052291 -0.590430
O24   O     O_R   0.817780 0.330713 0.997495 -0.723583
H16   H     H_    0.898205 0.287675 0.987353 0.355900
C57   C     C_2   0.130242 0.271629 0.544037 0.974234
O25   O     O_2   0.151253 0.290639 0.587002 -0.513638
O26   O     O_R   0.166648 0.146231 0.522959 -0.712995
H17   H     H_    0.211591 0.080169 0.546861 0.355857
C58   C     C_2   0.857895 0.739835 0.458424 0.949134
O27   O     O_2   0.811300 0.728007 0.417812 -0.567565
O28   O     O_R   0.837050 0.860850 0.484746 -0.666654
H18   H     H_    0.771737 0.924160 0.468322 0.311816
C59   C     C_2   0.895309 0.234917 0.487968 0.953991
O29   O     O_2   0.913161 0.133521 0.514499 -0.489044
O30   O     O_R   0.835592 0.220967 0.442751 -0.698679
H19   H     H_    0.818665 0.120789 0.434348 0.345107
C60   C     C_2   0.107913 0.772898 0.491793 0.990280
O31   O     O_2   0.165831 0.813033 0.527574 -0.556696
O32   O     O_R   0.082275 0.863942 0.452854 -0.684184
H20   H     H_    0.114130 0.960756 0.458800 0.402185

loop_
_geom_bond_atom_site_label_1
_geom_bond_atom_site_label_2
_geom_bond_distance
_ccdc_geom_bond_type
C52   O15   1.223103 D    
O22   H15   1.012782 S    
C13   C15   1.386572 A    
C58   O27   1.223043 D    
O3    C2    1.303055 A    
N1    C17   1.436204 S    
O20   H14   1.013772 S    
O14   H11   1.013939 S    
C5    N1    1.367898 A    
C19   C25   1.405614 A    
C12   C51   1.483340 S    
O1    C1    1.296830 A    
N1    C7    1.368198 A    
C10   C12   1.422564 A    
C1    C46   1.482771 S    
C32   C39   1.411143 A    
C59   O29   1.221653 D    
C11   C52   1.482470 S    
C41   C46   1.411546 A    
C14   C28   1.408519 A    
C43   C45   1.407852 A    
O7    Cu1   1.951206 S    
C4    C28   1.493900 S    
C54   O19   1.223096 D    
C36   C38   1.400888 A    
C59   O30   1.396711 S    
C48   N3    1.374912 A    
C47   N4    1.372625 A    
C23   H5    1.083283 S    
C24   H6    1.083287 S    
O3    Cu1   1.975807 S    
C6    N2    1.368129 A    
C9    C11   1.422113 A    
C48   Cl2   1.763112 S    
Cu1   Cu2   2.694772 S    
C57   O26   1.395040 S    
O2    C2    1.302645 A    
C31   C40   1.411167 A    
C5    C21   1.403644 A    
O7    C4    1.307391 A    
C32   C34   1.418024 A    
C37   H7    1.084229 S    
C60   O32   1.398975 S    
C38   H8    1.084241 S    
C2    C45   1.481718 S    
Cu1   N3    2.025102 S    
C48   C49   1.420504 A    
C40   H10   1.080327 S    
C50   N3    1.371781 A    
C7    O12   1.349712 S    
C56   O24   1.398887 S    
O8    Cu2   1.951206 S    
C50   Cl4   1.757143 S    
C8    O11   1.349728 S    
C49   Cl3   1.758618 S    
C29   C35   1.426302 A    
C25   C38   1.398524 A    
C14   H2    1.082219 S    
C30   C36   1.426596 A    
C15   H3    1.083214 S    
C31   C33   1.418157 A    
C42   C58   1.482114 S    
C9    C17   1.411575 A    
O5    C3    1.307867 A    
C10   C18   1.411981 A    
C39   H9    1.080403 S    
C53   O18   1.398222 S    
C13   C27   1.408293 A    
C51   O13   1.223119 D    
C7    C25   1.403989 A    
C44   C60   1.487029 S    
O6    C4    1.305490 A    
C29   C32   1.421410 A    
C8    C26   1.403907 A    
C30   C31   1.421829 A    
C47   Cl1   1.762418 S    
C58   O28   1.393362 S    
O18   H13   1.013773 S    
C30   C34   1.417803 A    
O32   H20   1.012361 S    
C42   C44   1.403829 A    
C51   O14   1.396144 S    
N2    C8    1.368460 A    
C35   C37   1.400781 A    
C47   C50   1.418967 A    
C20   C26   1.405677 A    
O1    Cu1   1.989088 S    
C57   O25   1.221733 D    
C11   C27   1.429045 A    
C10   C53   1.489966 S    
C53   O17   1.223102 D    
C12   C28   1.429415 A    
O28   H18   1.011187 S    
N2    C18   1.436773 S    
C19   C34   1.415575 A    
C5    O9    1.349404 S    
C43   C59   1.479303 S    
O6    Cu2   1.953367 S    
C26   C37   1.398654 A    
C21   C23   1.399320 A    
C16   H4    1.083234 S    
C36   C56   1.483830 S    
O4    C1    1.309472 A    
C23   C39   1.391207 A    
C60   O31   1.222773 D    
C54   O20   1.398142 S    
O24   H16   1.012874 S    
C55   O21   1.223213 D    
C52   O16   1.395947 S    
C14   C16   1.386234 A    
C15   C17   1.391203 A    
O26   H17   1.013259 S    
C6    C22   1.403699 A    
C16   C18   1.391273 A    
C41   C57   1.480138 S    
C42   C45   1.409745 A    
C29   C33   1.417528 A    
C22   C24   1.399370 A    
C19   C21   1.409255 A    
C9    C54   1.489981 S    
C3    C27   1.494256 S    
C20   C22   1.409090 A    
Cu2   N4    2.025103 S    
O4    Cu2   1.975807 S    
O2    Cu2   1.989088 S    
C49   N4    1.370072 A    
O8    C3    1.305220 A    
C13   H1    1.081432 S    
O5    Cu1   1.953367 S    
C20   C33   1.415587 A    
C6    O10   1.349412 S    
C35   C55   1.483926 S    
C56   O23   1.223178 D    
C44   C46   1.424257 A    
C41   C43   1.398295 A    
O16   H12   1.014131 S    
O30   H19   1.009436 S    
C55   O22   1.398883 S    
C24   C40   1.391282 A    
