data_mof_unit_63939.cif
_audit_creation_date              2012-10-26T21:18:20-0400
_audit_creation_method            fapswitch 2.2
_symmetry_space_group_name_H-M    P1
_symmetry_Int_Tables_number       1
_space_group_crystal_system       triclinic
_cell_length_a                    10.47312
_cell_length_b                    11.729009
_cell_length_c                    17.270166
_cell_angle_alpha                 89.987185
_cell_angle_beta                  85.22863
_cell_angle_gamma                 89.954802
_cell_volume                      2114.10293883

loop_
_atom_site_label
_atom_site_type_symbol
_atom_type_description
_atom_site_fract_x
_atom_site_fract_y
_atom_site_fract_z
_atom_type_partial_charge
C1    C     C_R   0.499968 0.716664 0.500004 0.572288
C2    C     C_R   0.517416 0.499310 0.349578 0.605865
C3    C     C_R   0.470246 0.504821 0.735083 0.033462
C4    C     C_R   0.529748 0.495186 0.264914 0.033453
C5    C     C_R   0.540106 0.586114 0.774284 0.194808
C6    C     C_R   0.459847 0.413924 0.225711 0.194815
C7    C     C_R   0.528981 0.588927 0.855048 -0.031926
C8    C     C_R   0.470959 0.411121 0.144947 -0.031938
C9    C     C_R   0.449577 0.511079 0.897257 -0.024553
C10   C     C_R   0.550400 0.488944 0.102739 -0.024558
C11   C     C_R   0.377307 0.432600 0.858659 -0.089695
C12   C     C_R   0.500032 0.283336 0.499996 0.572286
C13   C     C_R   0.622709 0.567390 0.141339 -0.089698
C14   C     C_R   0.387266 0.428726 0.777802 0.198897
C15   C     C_R   0.612754 0.571260 0.222197 0.198894
C16   C     C_2   0.445445 0.508523 0.982601 0.273572
C17   C     C_2   0.554530 0.491512 0.017394 0.273585
C18   C     C_1   0.499929 0.838041 0.500009 0.052131
C19   C     C_1   0.500071 0.161959 0.499992 0.052128
C20   C     C_1   0.499967 0.940264 0.500005 0.022509
C21   C     C_1   0.500033 0.059736 0.499996 0.022508
C22   C     C_1   0.927924 0.500002 0.499995 0.167703
C23   C     C_1   0.072076 0.499998 0.500004 0.167703
C24   C     C_R   0.482583 0.500691 0.650422 0.605879
Cl1   Cl    Cl    0.639167 0.688461 0.724500 -0.531253
Cl2   Cl    Cl    0.360759 0.311594 0.275490 -0.531248
Cl3   Cl    Cl    0.700277 0.676866 0.267515 -0.528890
Cl4   Cl    Cl    0.299789 0.323090 0.732484 -0.528902
Cu1   Cu    Cu3+1 0.374700 0.500000 0.500000 1.133106
Cu2   Cu    Cu3+1 0.625300 0.500000 0.500000 1.133109
H1    H     H_    0.316108 0.372218 0.891524 0.178433
H2    H     H_    0.683932 0.627757 0.108477 0.178451
H3    H     H_    0.416977 0.348740 0.114865 0.190786
H4    H     H_    0.582919 0.651340 0.885131 0.190767
H5    H     H_    0.737616 0.462721 0.008333 0.342721
H6    H     H_    0.262350 0.537275 0.991657 0.342719
N1    N     N_1   0.813590 0.500000 0.499990 -0.165946
N2    N     N_1   0.186410 0.500000 0.500010 -0.165946
O1    O     O_R   0.394190 0.662800 0.500010 -0.505902
O2    O     O_3   0.330191 0.521839 0.027060 -0.695308
O3    O     O_R   0.605810 0.337200 0.499990 -0.505900
O4    O     O_R   0.605810 0.662800 0.499990 -0.461654
O5    O     O_R   0.394190 0.337200 0.500010 -0.461655
O6    O     O_R   0.381920 0.500000 0.613600 -0.468150
O7    O     O_R   0.618080 0.500000 0.386400 -0.468140
O8    O     O_R   0.593540 0.500000 0.613600 -0.463009
O9    O     O_R   0.406460 0.500000 0.386400 -0.463004
O10   O     O_3   0.669783 0.478202 0.972934 -0.695302

loop_
_geom_bond_atom_site_label_1
_geom_bond_atom_site_label_2
_ccdc_geom_bond_type
Cu1   N2    S    
C2    C4    S    
Cu2   O3    S    
Cu1   Cu2   S    
C2    O9    A    
C23   N2    T    
C13   H2    S    
C15   Cl3   S    
C17   O10   S    
C24   O8    A    
Cu1   O1    S    
C4    C15   A    
C3    C24   S    
C11   H1    S    
Cu1   O6    S    
Cu1   O5    S    
C9    C11   A    
C1    C18   S    
C6    Cl2   S    
C3    C14   A    
C16   O2    S    
C5    Cl1   S    
H5    O10   S    
C12   C19   S    
C8    C10   A    
C19   C21   T    
C9    C16   S    
Cu1   O9    S    
C12   O5    A    
C18   C20   T    
C8    H3    S    
C13   C15   A    
C2    O7    A    
C24   O6    A    
C11   C14   A    
C1    O1    A    
C10   C17   S    
C7    C9    A    
C1    O4    A    
H6    O2    S    
C20   C21   S    
C12   O3    A    
C4    C6    A    
C7    H4    S    
C5    C7    A    
C22   C23   S    
Cu2   O4    S    
C6    C8    A    
Cu2   O7    S    
C14   Cl4   S    
C22   N1    T    
Cu2   O8    S    
Cu2   N1    S    
C16   C17   D    
C3    C5    A    
C10   C13   A    
