data_mof_unit_10750.cif
_audit_creation_date              2012-12-10T20:27:11-0500
_audit_creation_method            fapswitch 2.2
_symmetry_space_group_name_H-M    P1
_symmetry_Int_Tables_number       1
_space_group_crystal_system       triclinic
_cell_length_a                    10.650072
_cell_length_b                    10.646288
_cell_length_c                    9.846427
_cell_angle_alpha                 89.518962
_cell_angle_beta                  99.197856
_cell_angle_gamma                 91.733963
_cell_volume                      1101.55814067

loop_
_atom_site_label
_atom_site_type_symbol
_atom_type_description
_atom_site_fract_x
_atom_site_fract_y
_atom_site_fract_z
_atom_type_partial_charge
C1    C     C_R   0.495008 0.259648 0.499614 0.906727
C2    C     C_R   0.470958 0.127747 0.497034 -0.119166
C3    C     C_R   0.438785 0.064258 0.371282 -0.202024
C4    C     C_R   0.435540 0.934151 0.370842 -0.205930
C5    C     C_R   0.466038 0.869949 0.495971 -0.091712
C6    C     C_R   0.472105 0.934111 0.619745 0.215973
C7    C     C_3   0.566130 0.927344 0.749645 -0.454708
C8    C     C_3   0.568582 0.069776 0.749949 -0.480203
C9    C     C_R   0.448942 0.400004 0.063305 0.175540
C10   C     C_R   0.566610 0.590360 0.080487 0.141131
C11   C     C_R   0.564890 0.590110 0.936318 -0.048601
C12   C     C_R   0.259692 0.510945 0.449527 0.901707
C13   C     C_R   0.450004 0.399387 0.921166 0.190780
C14   C     C_3   0.317600 0.345391 0.891994 -0.457875
C15   C     C_3   0.315553 0.348823 0.046061 -0.473936
C16   C     C_R   0.489675 0.739299 0.498200 0.925320
C17   C     C_R   0.724273 0.546110 0.548841 0.853048
C18   C     C_2   0.123429 0.523251 0.443012 -0.484149
C19   C     C_2   0.075376 0.567504 0.553379 0.484760
C20   C     C_2   0.850433 0.603897 0.561756 0.288064
C21   C     C_2   0.946716 0.525584 0.567017 -0.358845
C22   C     C_R   0.474196 0.062179 0.620221 0.132592
H1    H     H_    0.928690 0.424567 0.572231 0.128213
H2    H     H_    0.661726 0.112569 0.734031 0.223020
H3    H     H_    0.614448 0.663381 0.887220 0.142823
H4    H     H_    0.248559 0.408815 0.832106 0.254471
H5    H     H_    0.315135 0.248300 0.850768 0.199287
H6    H     H_    0.248008 0.417427 0.075401 0.238819
H7    H     H_    0.309199 0.253834 0.092453 0.196131
H8    H     H_    0.061777 0.473379 0.360984 0.155617
H9    H     H_    0.425356 0.113988 0.273917 0.167296
H10   H     H_    0.419224 0.885210 0.273402 0.175046
H11   H     H_    0.523170 0.885176 0.835815 0.217373
H12   H     H_    0.657909 0.887194 0.733887 0.238593
H13   H     H_    0.527309 0.109781 0.836393 0.207373
N1    N     N_R   0.499160 0.499140 0.142600 -0.104234
N2    N     N_R   0.499160 0.499180 0.856960 -0.092098
O1    O     O_R   0.500020 0.316790 0.614700 -0.613682
O2    O     O_R   0.500000 0.316760 0.385350 -0.616618
O3    O     O_R   0.317820 0.500020 0.571850 -0.569761
O4    O     O_R   0.317800 0.499980 0.342510 -0.609528
O5    O     O_R   0.500000 0.683240 0.614650 -0.618542
O6    O     O_R   0.499980 0.683210 0.385300 -0.617781
O7    O     O_R   0.682200 0.500020 0.657490 -0.620779
O8    O     O_R   0.682180 0.499980 0.428150 -0.622359
Zn1   Zn    Zn3+2 0.500010 0.500020 0.653140 1.000551
Zn2   Zn    Zn3+2 0.499990 0.499980 0.346860 0.964278
C23   C     C_3   0.643313 0.692759 0.160781 -0.698689
H14   H     H_    0.702809 0.653200 0.251989 0.293842
H15   H     H_    0.709732 0.740731 0.099498 0.203423
H16   H     H_    0.579698 0.765351 0.188056 0.250279
S1    S     S_3+6 0.154480 0.675639 0.682772 0.090223
O9    O     O_2   0.069034 0.696062 0.787602 -0.226953
O10   O     O_2   0.277930 0.632274 0.760891 -0.304819
O11   O     O_3   0.182981 0.814098 0.608616 -0.460159
H17   H     H_    0.215645 0.791933 0.523558 0.330950
S2    S     S_3+6 0.863798 0.766860 0.517036 0.024382
O12   O     O_2   0.903466 0.844024 0.644502 -0.228147
O13   O     O_2   0.959576 0.786005 0.421481 -0.284094
O14   O     O_3   0.725754 0.821565 0.437247 -0.638151
H18   H     H_    0.742684 0.912205 0.422164 0.385911

loop_
_geom_bond_atom_site_label_1
_geom_bond_atom_site_label_2
_ccdc_geom_bond_type
C2    C22   A    
C9    N1    A    
C8    C22   S    
O11   H17   S    
C12   O3    A    
C6    C7    S    
C18   H8    S    
C14   H5    S    
C13   N2    A    
N2    Zn1   S    
S1    O11   S    
S2    O14   S    
C23   H15   S    
C2    C3    A    
O4    Zn2   S    
C17   O7    A    
C7    C8    S    
C4    H10   S    
C13   C14   S    
C14   H4    S    
C3    H9    S    
C7    H11   S    
C16   O6    A    
C15   H6    S    
C12   O4    A    
C1    O1    A    
C23   H14   S    
C19   C21   S    
S1    O10   D    
C15   H7    S    
S2    O12   D    
O8    Zn2   S    
C21   H1    S    
C10   C23   S    
C5    C6    A    
C7    H12   S    
O1    Zn1   S    
S2    O13   D    
C10   C11   A    
O3    Zn1   S    
C3    C4    A    
C6    C22   A    
C11   H3    S    
C16   O5    A    
C4    C5    A    
C17   C20   S    
C20   C21   D    
N1    Zn2   S    
O2    Zn2   S    
C1    C2    S    
O5    Zn1   S    
C12   C18   S    
C11   N2    A    
C1    O2    A    
C14   C15   S    
C18   C19   D    
C5    C16   S    
C9    C13   A    
O7    Zn1   S    
C8    H2    S    
C20   S2    S    
C9    C15   S    
O6    Zn2   S    
C19   S1    S    
C23   H16   S    
C17   O8    A    
S1    O9    D    
O14   H18   S    
C10   N1    A    
C8    H13   S    
