data_mof_unit_34958.cif
_audit_creation_date              2012-12-11T14:43:39-0500
_audit_creation_method            fapswitch 2.2
_symmetry_space_group_name_H-M    P1
_symmetry_Int_Tables_number       1
_space_group_crystal_system       triclinic
_cell_length_a                    20.860239
_cell_length_b                    7.100599
_cell_length_c                    16.435808
_cell_angle_alpha                 89.998316
_cell_angle_beta                  93.120319
_cell_angle_gamma                 89.999853
_cell_volume                      2430.86575741

loop_
_atom_site_label
_atom_site_type_symbol
_atom_type_description
_atom_site_fract_x
_atom_site_fract_y
_atom_site_fract_z
_atom_type_partial_charge
O1    O     O_R   0.564840 0.505290 0.579830 -0.526580
O2    O     O_R   0.435160 0.005290 0.420170 -0.526585
O3    O     O_R   0.556720 0.179930 0.409350 -0.536825
O4    O     O_R   0.443280 0.679930 0.590650 -0.536821
C1    C     C_R   0.570122 0.344503 0.381283 0.764478
C2    C     C_R   0.429877 0.844498 0.618715 0.764497
O5    O     O_R   0.572280 0.175810 0.578530 -0.535970
O6    O     O_R   0.427720 0.675810 0.421470 -0.535965
O7    O     O_R   0.450830 0.001920 0.590540 -0.529238
O8    O     O_R   0.549170 0.501920 0.409460 -0.529244
C3    C     C_R   0.590359 0.344439 0.604218 0.740214
C4    C     C_R   0.409643 0.844442 0.395780 0.740219
O9    O     O_3   0.460130 0.338030 0.503750 -0.378080
O10   O     O_3   0.539870 0.838030 0.496250 -0.378088
V1    V     V_3+5 0.507400 0.064560 0.499310 1.528653
V2    V     V_3+5 0.492600 0.564560 0.500690 1.528668
C5    C     C_R   0.142435 0.916785 0.169199 -0.110480
C6    C     C_R   0.857568 0.416797 0.830797 -0.110483
C7    C     C_R   0.356701 0.852790 0.332077 -0.117141
C8    C     C_R   0.643303 0.352774 0.667918 -0.117137
C9    C     C_R   0.315276 0.789417 0.193690 -0.109377
C10   C     C_R   0.684741 0.289284 0.806291 -0.109426
C11   C     C_R   0.366461 0.792763 0.252209 0.300434
C12   C     C_R   0.633553 0.292665 0.747777 0.300429
C13   C     C_R   0.295922 0.920896 0.350958 -0.277943
C14   C     C_R   0.704077 0.420937 0.649041 -0.277971
C15   C     C_R   0.243863 0.921317 0.291731 0.086560
C16   C     C_R   0.756139 0.421335 0.708264 0.086575
C17   C     C_R   0.253951 0.850695 0.212711 0.034011
C18   C     C_R   0.746060 0.350628 0.787274 0.034027
C19   C     C_R   0.203190 0.847118 0.152697 -0.159685
C20   C     C_R   0.796822 0.347035 0.847287 -0.159736
C21   C     C_R   0.132827 0.992316 0.246328 -0.192007
C22   C     C_R   0.867168 0.492401 0.753677 -0.192060
C23   C     C_R   0.182336 0.993982 0.307930 0.308094
C24   C     C_R   0.817661 0.494051 0.692071 0.308017
H1    H     H_    0.211577 0.795366 0.092355 0.175215
H2    H     H_    0.788443 0.295201 0.907619 0.175234
H3    H     H_    0.086266 0.049759 0.259028 0.128729
H4    H     H_    0.913724 0.549892 0.740983 0.128732
H5    H     H_    0.323856 0.742030 0.132635 0.204903
H6    H     H_    0.676168 0.241830 0.867338 0.204904
H7    H     H_    0.290154 0.972802 0.411977 0.117005
H8    H     H_    0.709839 0.472912 0.588031 0.117023
C25   C     C_R   0.387298 0.804854 0.837823 0.335665
C26   C     C_R   0.612692 0.304860 0.162170 0.335675
C27   C     C_R   0.392916 0.849423 0.692374 -0.156754
C28   C     C_R   0.607079 0.349444 0.307620 -0.156734
C29   C     C_R   0.088184 0.989552 0.743768 -0.169815
C30   C     C_R   0.911805 0.489581 0.256229 -0.169954
C31   C     C_R   0.124001 0.026317 0.676649 0.340645
C32   C     C_R   0.875967 0.526520 0.323304 0.340545
C33   C     C_R   0.189904 0.991020 0.681528 -0.195717
C34   C     C_R   0.810065 0.491252 0.318423 -0.195727
C35   C     C_R   0.220721 0.904412 0.750690 0.051630
C36   C     C_R   0.779262 0.404524 0.249286 0.051610
C37   C     C_R   0.182909 0.855194 0.818000 -0.024201
C38   C     C_R   0.817082 0.355237 0.181992 -0.024175
C39   C     C_R   0.288529 0.869124 0.754753 0.035123
C40   C     C_R   0.711458 0.369193 0.245229 0.035102
C41   C     C_R   0.319133 0.807130 0.829287 -0.112267
C42   C     C_R   0.680858 0.307153 0.170705 -0.112251
C43   C     C_R   0.281082 0.730213 0.889334 0.277713
C44   C     C_R   0.718912 0.230217 0.110666 0.277716
C45   C     C_R   0.213660 0.749542 0.882790 0.145690
C46   C     C_R   0.786335 0.249546 0.117215 0.145695
C47   C     C_R   0.326931 0.887663 0.686298 -0.240300
C48   C     C_R   0.673061 0.387715 0.313688 -0.240342
C49   C     C_R   0.423298 0.809554 0.768411 0.245577
C50   C     C_R   0.576694 0.309577 0.231585 0.245573
C51   C     C_R   0.116009 0.909532 0.815091 -0.102890
C52   C     C_R   0.883988 0.409535 0.184909 -0.102890
H9    H     H_    0.306429 0.917487 0.626055 0.106462
H10   H     H_    0.693569 0.417545 0.373927 0.106460
H11   H     H_    0.038078 0.031144 0.741486 0.114758
H12   H     H_    0.961921 0.531084 0.258549 0.114941
H13   H     H_    0.216075 0.036425 0.630359 0.102021
H14   H     H_    0.783888 0.536757 0.369572 0.102113
O11   O     O_R   0.950790 0.256670 0.090520 -0.519330
O12   O     O_R   0.049210 0.756670 0.909480 -0.519330
O13   O     O_R   0.927720 0.590370 0.921470 -0.535516
O14   O     O_R   0.072280 0.090370 0.078530 -0.535518
C53   C     C_R   0.910169 0.422001 0.895020 0.718197
C54   C     C_R   0.089832 0.921997 0.104977 0.718217
O15   O     O_R   0.943270 0.586180 0.090640 -0.537130
O16   O     O_R   0.056730 0.086180 0.909360 -0.537145
O17   O     O_R   0.064850 0.759970 0.079840 -0.526296
O18   O     O_R   0.935150 0.259970 0.920160 -0.526312
C55   C     C_R   0.925660 0.416257 0.114113 0.733540
C56   C     C_R   0.074342 0.916258 0.885891 0.733526
O19   O     O_3   0.039850 0.428050 0.996240 -0.346396
O20   O     O_3   0.960150 0.928050 0.003760 -0.346400
V3    V     V_3+5 0.992610 0.701540 0.000700 1.557266
V4    V     V_3+5 0.007390 0.201540 0.999300 1.557243
N1    N     N_2   0.094497 0.113745 0.606080 -0.521841
H15   H     H_    0.126127 0.174201 0.567713 0.254836
C57   C     C_3   0.045628 0.002544 0.562548 -0.527236
H16   H     H_    0.024941 0.084356 0.509827 0.205838
H17   H     H_    0.006079 0.967389 0.602491 0.197028
H18   H     H_    0.066913 0.870682 0.539495 0.195882
N2    N     N_2   0.905473 0.614034 0.393838 -0.521901
H19   H     H_    0.873859 0.675467 0.431950 0.254768
C58   C     C_3   0.953927 0.502104 0.437766 -0.527287
H20   H     H_    0.974842 0.584183 0.490271 0.205952
H21   H     H_    0.993382 0.465018 0.397978 0.197168
H22   H     H_    0.932170 0.371299 0.461173 0.195820
Br1   Br    Br    0.167135 0.587066 0.952008 -0.495272
Br2   Br    Br    0.832866 0.087025 0.048026 -0.495286
N3    N     N_2   0.169014 0.073860 0.384585 -0.530770
H23   H     H_    0.187656 0.001851 0.434899 0.245808
C59   C     C_3   0.178872 0.275294 0.389230 -0.546382
H24   H     H_    0.163954 0.328549 0.448759 0.186895
H25   H     H_    0.149515 0.347749 0.340193 0.210271
H26   H     H_    0.230420 0.309434 0.383379 0.203240
N4    N     N_2   0.830986 0.573903 0.615411 -0.530769
H27   H     H_    0.812344 0.501885 0.565100 0.245822
C60   C     C_3   0.821141 0.775340 0.610745 -0.546328
H28   H     H_    0.836078 0.828561 0.551218 0.186832
H29   H     H_    0.850490 0.847800 0.659785 0.210192
H30   H     H_    0.769592 0.809508 0.616570 0.203213
Br3   Br    Br    0.450281 0.729021 0.218709 -0.359655
Br4   Br    Br    0.549737 0.228887 0.781281 -0.359647
Br5   Br    Br    0.513637 0.748847 0.776972 -0.352188
Br6   Br    Br    0.486350 0.248928 0.223029 -0.352219
Br7   Br    Br    0.318651 0.549737 0.967323 -0.374534
Br8   Br    Br    0.681348 0.049713 0.032692 -0.374546
Br9   Br    Br    0.433260 0.839926 0.942213 -0.204416
Br10  Br    Br    0.566729 0.339885 0.057778 -0.204383

loop_
_geom_bond_atom_site_label_1
_geom_bond_atom_site_label_2
_ccdc_geom_bond_type
C43   C45   A    
N2    H19   S    
O14   V4    S    
C35   C39   A    
C15   C17   A    
N4    C60   S    
C33   H13   S    
N1    H15   S    
O1    C3    A    
C54   O17   A    
O2    C4    A    
C13   H7    S    
C2    O7    A    
C57   H16   S    
C14   H8    S    
C11   Br3   S    
O5    C3    A    
C21   H3    S    
C26   C42   A    
C22   H4    S    
C26   Br10  S    
N3    C59   S    
C49   Br5   S    
C48   H10   S    
N4    H27   S    
C40   C42   A    
C27   C47   A    
C41   C43   A    
C30   C52   A    
C27   C49   A    
C42   C44   A    
O16   V4    S    
C57   H17   S    
O15   V3    S    
C38   C46   A    
C8    C12   A    
C29   C31   A    
C30   C32   A    
C29   H11   S    
C47   H9    S    
C20   H2    S    
C59   H26   S    
C23   N3    S    
C39   C47   A    
C25   C41   A    
O5    V1    S    
C53   O18   A    
O6    V2    S    
C5    C21   A    
O20   V4    S    
O13   C53   A    
C32   C34   A    
O18   V4    S    
C33   C35   A    
C9    C11   A    
C32   N2    S    
C1    C28   S    
C34   C36   A    
C3    C8    S    
C39   C41   A    
C26   C50   A    
C2    C27   S    
C25   C49   A    
O11   V4    S    
C59   H25   S    
O16   C56   A    
C60   H30   S    
C46   Br2   S    
O15   C55   A    
C15   C23   A    
C9    C17   A    
C28   C48   A    
C36   C40   A    
C31   C33   A    
C44   C46   A    
O4    V2    S    
C7    C11   A    
C30   H12   S    
O19   V3    S    
O13   V3    S    
O6    C4    A    
C37   C45   A    
C12   Br4   S    
C6    C53   S    
C58   H21   S    
O1    V2    S    
C37   C51   A    
O2    V1    S    
C6    C22   A    
C40   C48   A    
C43   Br7   S    
C9    H5    S    
O4    C2    A    
O14   C54   A    
C35   C37   A    
C50   Br6   S    
C5    C19   A    
C10   C12   A    
C6    C20   A    
C57   H18   S    
O3    V1    S    
C10   C18   A    
C59   H24   S    
C14   C16   A    
C28   C50   A    
O3    C1    A    
N1    C57   S    
C13   C15   A    
C44   Br8   S    
C5    C54   S    
C60   H29   S    
O7    V1    S    
C1    O8    A    
C17   C19   A    
O8    V2    S    
N3    H23   S    
O19   V4    S    
C18   C20   A    
C52   C55   S    
C38   C52   A    
C10   H6    S    
C51   C56   S    
C8    C14   A    
C25   Br9   S    
O17   V3    S    
C4    C7    S    
C16   C18   A    
O20   V3    S    
C21   C23   A    
C36   C38   A    
C58   H22   S    
C22   C24   A    
O12   C56   A    
C7    C13   A    
O11   C55   A    
C19   H1    S    
C16   C24   A    
N2    C58   S    
C29   C51   A    
O9    V2    S    
C58   H20   S    
O10   V1    S    
O12   V3    S    
C60   H28   S    
C24   N4    S    
C45   Br1   S    
C31   N1    S    
C34   H14   S    
