data_mof_unit_32614.cif
_audit_creation_date              2012-10-26T20:13:55-0400
_audit_creation_method            fapswitch 2.2
_symmetry_space_group_name_H-M    P1
_symmetry_Int_Tables_number       1
_space_group_crystal_system       triclinic
_cell_length_a                    8.72881
_cell_length_b                    10.825591
_cell_length_c                    9.552233
_cell_angle_alpha                 89.785241
_cell_angle_beta                  97.965475
_cell_angle_gamma                 90.180109
_cell_volume                      893.915486494

loop_
_atom_site_label
_atom_site_type_symbol
_atom_type_description
_atom_site_fract_x
_atom_site_fract_y
_atom_site_fract_z
_atom_type_partial_charge
C1    C     C_R   0.502300 0.262408 0.500524 0.548296
C2    C     C_R   0.626587 0.540546 0.942059 0.216680
C3    C     C_3   0.697811 0.666180 0.944850 0.084986
C4    C     C_R   0.203841 0.500034 0.463762 0.550916
C5    C     C_3   0.696554 0.666636 0.103723 -0.200042
C6    C     C_R   0.501908 0.737713 0.500135 0.545648
C7    C     C_R   0.796154 0.500203 0.536245 0.544860
C8    C     C_2   0.037898 0.500080 0.443902 -0.158098
C9    C     C_2   0.962086 0.500506 0.556137 -0.159534
C10   C     C_R   0.502292 0.063332 0.626332 0.025875
C11   C     C_R   0.516090 0.129388 0.503000 0.008901
C12   C     C_R   0.548533 0.936499 0.383023 -0.158398
C13   C     C_R   0.549272 0.065206 0.383267 -0.159045
C14   C     C_R   0.514907 0.871026 0.502404 0.006626
C15   C     C_R   0.501601 0.936078 0.626082 0.013267
C16   C     C_3   0.377981 0.929677 0.719692 -0.263416
C17   C     C_3   0.379290 0.069856 0.720225 -0.266379
C18   C     C_R   0.626205 0.540962 0.089352 0.129230
C19   C     C_R   0.382436 0.447461 0.059713 -0.006924
C20   C     C_R   0.382420 0.447449 0.910940 -0.018996
Cu1   Cu    Cu3+1 0.499990 0.499980 0.640670 0.947511
Cu2   Cu    Cu3+1 0.500010 0.500020 0.359330 0.941608
H1    H     H_    0.977895 0.499584 0.336275 0.132031
H2    H     H_    0.420117 0.889007 0.824874 0.131653
H3    H     H_    0.270085 0.111349 0.666760 0.135774
H4    H     H_    0.423244 0.109658 0.825317 0.140570
H5    H     H_    0.286076 0.406521 0.103131 0.128793
H6    H     H_    0.841568 0.687580 0.810253 0.336715
H7    H     H_    0.286073 0.406413 0.843534 0.122332
H8    H     H_    0.622965 0.738184 0.887046 0.118157
H9    H     H_    0.813500 0.665748 0.166998 0.160146
H10   H     H_    0.615856 0.736035 0.136842 0.098586
H11   H     H_    0.022072 0.501010 0.663780 0.138822
H12   H     H_    0.569114 0.113827 0.288080 0.138263
H13   H     H_    0.567753 0.889170 0.287774 0.126247
H14   H     H_    0.268111 0.889487 0.665666 0.144697
N1    N     N_R   0.500980 0.500930 0.148050 -0.245004
N2    N     N_R   0.500990 0.500890 0.852140 -0.258337
O1    O     O_R   0.500000 0.319640 0.618810 -0.497450
O2    O     O_R   0.500020 0.319680 0.381230 -0.507356
O3    O     O_R   0.274830 0.499980 0.591380 -0.507932
O4    O     O_R   0.274850 0.500020 0.353800 -0.498227
O5    O     O_R   0.499980 0.680320 0.618770 -0.510289
O6    O     O_R   0.500000 0.680360 0.381190 -0.505092
O7    O     O_R   0.725150 0.499980 0.646200 -0.487845
O8    O     O_R   0.725170 0.500020 0.408620 -0.502783
O9    O     O_3   0.848851 0.662190 0.910830 -0.706044

loop_
_geom_bond_atom_site_label_1
_geom_bond_atom_site_label_2
_ccdc_geom_bond_type
C3    H8    S    
H6    O9    S    
C2    C18   A    
C19   H5    S    
C2    N2    A    
C19   C20   A    
Cu1   O1    S    
C4    C8    S    
C6    O5    A    
C5    H10   S    
Cu2   O2    S    
C2    C3    S    
C17   H3    S    
C13   H12   S    
C16   H2    S    
C6    O6    A    
Cu1   Cu2   S    
C16   H14   S    
C12   H13   S    
C9    H11   S    
C11   C13   A    
Cu2   O4    S    
C4    O4    A    
Cu1   O3    S    
C17   H4    S    
C7    O7    A    
C3    O9    S    
Cu2   O8    S    
C18   N1    A    
C12   C14   A    
Cu1   O7    S    
C20   H7    S    
C6    C14   S    
C4    O3    A    
C1    O1    A    
C10   C17   S    
C15   C16   S    
C7    O8    A    
C8    H1    S    
C20   N2    A    
C12   C13   A    
C10   C11   A    
C7    C9    S    
C14   C15   A    
C16   C17   S    
C5    C18   S    
C19   N1    A    
C1    O2    A    
C3    C5    S    
C10   C15   A    
Cu1   O5    S    
Cu2   N1    S    
Cu2   O6    S    
Cu1   N2    S    
C8    C9    D    
C5    H9    S    
C1    C11   S    
