data_mof_unit_24869.cif
_audit_creation_date              2013-03-05T15:45:10-0500
_audit_creation_method            fapswitch 2.2
_symmetry_space_group_name_H-M    P1
_symmetry_Int_Tables_number       1
_space_group_crystal_system       triclinic
_cell_length_a                    24.730257
_cell_length_b                    17.140238
_cell_length_c                    15.645281
_cell_angle_alpha                 90.041097
_cell_angle_beta                  50.481834
_cell_angle_gamma                 90.676827
_cell_volume                      5115.33619083

loop_
_atom_site_label
_atom_site_type_symbol
_atom_site_description
_atom_site_fract_x
_atom_site_fract_y
_atom_site_fract_z
_atom_type_partial_charge
C1    C     C_R   0.348092 0.137628 0.768855 0.426584
C2    C     C_R   0.667344 0.895923 0.195471 0.511991
C3    C     C_R   0.654300 0.137186 0.228346 0.422409
C4    C     C_R   0.332327 0.895696 0.805462 0.522975
C5    C     C_R   0.847092 0.637319 0.768953 0.418047
C6    C     C_R   0.167559 0.402215 0.192374 0.514643
C7    C     C_R   0.152898 0.639200 0.232712 0.436480
C8    C     C_R   0.832530 0.394829 0.804939 0.509452
N1    N     N_R   0.388930 0.078160 0.705470 -0.148086
N2    N     N_R   0.611070 0.921840 0.294530 -0.151863
N3    N     N_R   0.611070 0.078160 0.294530 -0.150690
N4    N     N_R   0.388930 0.921840 0.705470 -0.152199
N5    N     N_R   0.888930 0.578160 0.705470 -0.150584
N6    N     N_R   0.111070 0.421840 0.294530 -0.150857
N7    N     N_R   0.111070 0.578160 0.294530 -0.148913
N8    N     N_R   0.888930 0.421840 0.705470 -0.152914
C9    C     C_R   0.616963 0.097645 0.590274 -0.102332
C10   C     C_R   0.413787 0.855282 0.407012 -0.153579
C11   C     C_R   0.384609 0.102040 0.409068 -0.067158
C12   C     C_R   0.587055 0.856872 0.594564 -0.152326
C13   C     C_R   0.116912 0.599014 0.590144 -0.069557
C14   C     C_R   0.910792 0.355248 0.408815 -0.155444
C15   C     C_R   0.884182 0.601396 0.409409 -0.071774
C16   C     C_R   0.086864 0.356349 0.594001 -0.154857
H1    H     H_    0.597690 0.088133 0.673678 0.192184
H2    H     H_    0.446169 0.838449 0.321616 0.196081
H3    H     H_    0.403119 0.099393 0.325338 0.202196
H4    H     H_    0.557567 0.841237 0.680484 0.202561
H5    H     H_    0.097595 0.595512 0.674342 0.197650
H6    H     H_    0.941747 0.338057 0.323599 0.179949
H7    H     H_    0.902851 0.599035 0.325564 0.202679
H8    H     H_    0.058625 0.341080 0.679752 0.203697
N9    N     N_R   0.580500 0.077840 0.556650 -0.071291
N10   N     N_R   0.419500 0.922160 0.443350 -0.065265
N11   N     N_R   0.419500 0.077840 0.443350 -0.074877
N12   N     N_R   0.580500 0.922160 0.556650 -0.065533
N13   N     N_R   0.080500 0.577840 0.556650 -0.074366
N14   N     N_R   0.919500 0.422160 0.443350 -0.062204
N15   N     N_R   0.919500 0.577840 0.443350 -0.076492
N16   N     N_R   0.080500 0.422160 0.556650 -0.066269
C17   C     C_R   0.689809 0.098982 0.407928 0.512256
C18   C     C_R   0.334156 0.857232 0.590722 0.530476
C19   C     C_R   0.311111 0.098096 0.591955 0.560319
C20   C     C_R   0.665822 0.858817 0.410290 0.542830
C21   C     C_R   0.190370 0.591746 0.407933 0.560517
C22   C     C_R   0.831980 0.359436 0.592562 0.523338
C23   C     C_R   0.810668 0.595832 0.592121 0.560790
C24   C     C_R   0.164472 0.357834 0.409495 0.525903
N17   N     N_R   0.626210 0.077590 0.443410 -0.095665
N18   N     N_R   0.373790 0.922410 0.556590 -0.088752
N19   N     N_R   0.373790 0.077590 0.556590 -0.095935
N20   N     N_R   0.626210 0.922410 0.443410 -0.083882
N21   N     N_R   0.126210 0.577590 0.443410 -0.097138
N22   N     N_R   0.873790 0.422410 0.556590 -0.088694
N23   N     N_R   0.873790 0.577590 0.556590 -0.097347
N24   N     N_R   0.126210 0.422410 0.443410 -0.084788
C25   C     C_R   0.562860 0.138196 0.232882 0.521829
C26   C     C_R   0.422494 0.893881 0.803464 0.495725
C27   C     C_R   0.440329 0.138201 0.763215 0.547113
C28   C     C_R   0.577569 0.893898 0.196535 0.491075
C29   C     C_R   0.062663 0.638937 0.233960 0.546775
C30   C     C_R   0.922724 0.393106 0.802951 0.496532
C31   C     C_R   0.937982 0.638454 0.766157 0.528278
C32   C     C_R   0.077157 0.399515 0.195029 0.466588
N25   N     N_R   0.554800 0.077270 0.294580 -0.102682
N26   N     N_R   0.445200 0.922730 0.705420 -0.108157
N27   N     N_R   0.445200 0.077270 0.705420 -0.106569
N28   N     N_R   0.554800 0.922730 0.294580 -0.108097
N29   N     N_R   0.054800 0.577270 0.294580 -0.100065
N30   N     N_R   0.945200 0.422730 0.705420 -0.108139
N31   N     N_R   0.945200 0.577270 0.705420 -0.103925
N32   N     N_R   0.054800 0.422730 0.294580 -0.106873
C33   C     C_R   0.380505 0.178559 0.802533 -0.299440
C34   C     C_R   0.647816 0.873458 0.133361 -0.279407
C35   C     C_R   0.623904 0.179011 0.193451 -0.280714
C36   C     C_R   0.351800 0.873717 0.867688 -0.283825
C37   C     C_R   0.877450 0.679030 0.804879 -0.292616
C38   C     C_R   0.147716 0.385621 0.129564 -0.306104
C39   C     C_R   0.123021 0.680820 0.196652 -0.292342
C40   C     C_R   0.852182 0.372391 0.866756 -0.283310
C41   C     C_R   0.686468 0.110594 0.498742 -0.121177
C42   C     C_R   0.360186 0.812311 0.497611 -0.157797
C43   C     C_R   0.316948 0.116123 0.501367 -0.202979
C44   C     C_R   0.640539 0.815362 0.504430 -0.168123
C45   C     C_R   0.186114 0.608651 0.497574 -0.194189
C46   C     C_R   0.856570 0.312767 0.501746 -0.155933
C47   C     C_R   0.816108 0.614152 0.502004 -0.203042
C48   C     C_R   0.139638 0.314387 0.503372 -0.166986
Ni1   Ni    Ni4+2 0.382710 1.000000 0.629850 0.233862
Ni2   Ni    Ni4+2 0.617290 1.000000 0.370150 0.236962
Ni3   Ni    Ni4+2 0.882710 0.500000 0.629850 0.232356
Ni4   Ni    Ni4+2 0.117290 0.500000 0.370150 0.241452
Ni5   Ni    Ni4+2 0.513020 1.000000 0.629850 0.262622
Ni6   Ni    Ni4+2 0.486980 1.000000 0.370150 0.263775
Ni7   Ni    Ni4+2 0.013020 0.500000 0.629850 0.260495
Ni8   Ni    Ni4+2 0.986980 0.500000 0.370150 0.274448
C49   C     C_R   0.234146 0.219747 0.581789 -0.151620
C50   C     C_R   0.706574 0.691934 0.435723 -0.173330
C51   C     C_R   0.812057 0.147628 0.401509 -0.128008
C52   C     C_R   0.288155 0.689683 0.578463 -0.160443
C53   C     C_R   0.726084 0.710626 0.591825 -0.154708
C54   C     C_R   0.203672 0.189893 0.440649 -0.179281
C55   C     C_R   0.294435 0.683556 0.394279 -0.157320
C56   C     C_R   0.772879 0.199533 0.601390 -0.159496
H9    H     H_    0.246809 0.233220 0.635065 0.167710
H10   H     H_    0.699353 0.685668 0.374630 0.158286
H11   H     H_    0.832354 0.124829 0.322463 0.172012
H12   H     H_    0.285592 0.692168 0.650127 0.177502
H13   H     H_    0.734672 0.720623 0.650847 0.177963
H14   H     H_    0.192038 0.179204 0.385551 0.143651
H15   H     H_    0.295812 0.686468 0.323786 0.190883
H16   H     H_    0.758800 0.214801 0.680216 0.194698
C57   C     C_R   0.681973 0.759146 0.594111 -0.102105
C58   C     C_R   0.249996 0.142034 0.436946 -0.102522
C59   C     C_R   0.338028 0.733399 0.393538 -0.096676
C60   C     C_R   0.728847 0.148846 0.600944 -0.144710
C61   C     C_R   0.189606 0.267520 0.584102 -0.110173
C62   C     C_R   0.752465 0.643317 0.432206 -0.103902
C63   C     C_R   0.853331 0.202577 0.401932 -0.146301
C64   C     C_R   0.242832 0.639599 0.580002 -0.095453
H17   H     H_    0.658263 0.805837 0.654024 0.144891
H18   H     H_    0.274294 0.093904 0.379469 0.139695
H19   H     H_    0.370858 0.771500 0.322144 0.147960
H20   H     H_    0.680351 0.130460 0.679742 0.149757
H21   H     H_    0.169401 0.317688 0.638091 0.149552
H22   H     H_    0.780795 0.599236 0.368780 0.142681
H23   H     H_    0.901199 0.222274 0.323221 0.133535
H24   H     H_    0.204811 0.604686 0.653275 0.153830
C65   C     C_R   0.674555 0.752383 0.513218 0.137126
C66   C     C_R   0.265512 0.158320 0.506782 0.119341
C67   C     C_R   0.330913 0.741838 0.489063 0.126187
C68   C     C_R   0.744195 0.130580 0.500143 0.148647
C69   C     C_R   0.176051 0.254327 0.511282 0.143144
C70   C     C_R   0.763068 0.654465 0.509047 0.115661
C71   C     C_R   0.828925 0.236239 0.502032 0.140238
C72   C     C_R   0.243507 0.640277 0.489871 0.108206
H25   H     H_    0.217736 0.908024 0.037917 0.208399
H26   H     H_    0.682928 0.297658 0.212472 0.177765
H27   H     H_    0.784256 0.903243 0.963804 0.216502
H28   H     H_    0.309435 0.293761 0.813271 0.190017
H29   H     H_    0.718370 0.406788 0.037373 0.212015
H30   H     H_    0.182668 0.800223 0.214386 0.184391
H31   H     H_    0.226668 0.274981 0.064752 0.153537
H32   H     H_    0.814817 0.795007 0.791444 0.185003
C73   C     C_2   0.655728 0.248036 0.120300 0.358422
C74   C     C_2   0.306137 0.840306 0.981209 0.339043
C75   C     C_2   0.347595 0.239334 0.885588 0.289394
C76   C     C_2   0.693021 0.837866 0.021703 0.331046
C77   C     C_2   0.154873 0.749896 0.123327 0.352277
C78   C     C_2   0.806618 0.338388 0.979817 0.337183
C79   C     C_2   0.845587 0.746992 0.879052 0.352459
C80   C     C_2   0.196965 0.364465 0.013386 0.344729
C81   C     C_2   0.686638 0.302453 0.139615 -0.194758
C82   C     C_2   0.237916 0.859539 0.053896 -0.165807
C83   C     C_2   0.304770 0.287117 0.886692 -0.107384
C84   C     C_2   0.762365 0.854886 0.949723 -0.158863
C85   C     C_2   0.186161 0.804496 0.141705 -0.200440
C86   C     C_2   0.738454 0.357765 0.052651 -0.158102
C87   C     C_2   0.812539 0.799744 0.862932 -0.192505
C88   C     C_2   0.239637 0.307416 0.993659 -0.115389
O1    O     O_3   0.278304 0.143024 0.819515 -0.707474
H33   H     H_    0.260552 0.088702 0.832464 0.362368
O2    O     O_3   0.734960 0.915419 0.149665 -0.672664
H34   H     H_    0.732495 0.953559 0.199589 0.362619
O3    O     O_3   0.724636 0.140436 0.174108 -0.682100
H35   H     H_    0.739704 0.085644 0.163626 0.355006
O4    O     O_3   0.264985 0.914480 0.851301 -0.674517
H36   H     H_    0.267967 0.952377 0.800615 0.357896
O5    O     O_3   0.778147 0.643247 0.815401 -0.658363
H37   H     H_    0.759773 0.589071 0.831063 0.367424
O6    O     O_3   0.234869 0.425257 0.145066 -0.646964
H38   H     H_    0.232185 0.457525 0.200104 0.368789
O7    O     O_3   0.220974 0.648620 0.190269 -0.660350
H39   H     H_    0.240004 0.595445 0.174853 0.376698
O8    O     O_3   0.765092 0.413317 0.851209 -0.667973
H40   H     H_    0.767933 0.453325 0.802796 0.360756
O9    O     O_3   0.749268 0.078220 0.305950 -0.758233
H41   H     H_    0.773295 0.128359 0.268370 0.350909
O10   O     O_3   0.271673 0.846951 0.695828 -0.704975
H42   H     H_    0.240216 0.814658 0.691311 0.335671
O11   O     O_3   0.249959 0.076433 0.694229 -0.752893
H43   H     H_    0.210143 0.083797 0.694583 0.335387
O12   O     O_3   0.727938 0.849352 0.304938 -0.700789
H44   H     H_    0.755853 0.809518 0.306349 0.341073
O13   O     O_3   0.248122 0.560257 0.310615 -0.764407
H45   H     H_    0.284507 0.550126 0.317687 0.336526
O14   O     O_3   0.767257 0.354927 0.695425 -0.707150
H46   H     H_    0.733275 0.339425 0.684594 0.328561
O15   O     O_3   0.750236 0.570300 0.692782 -0.745541
H47   H     H_    0.710644 0.573542 0.691848 0.339705
O16   O     O_3   0.224153 0.346180 0.302242 -0.716461
H48   H     H_    0.248985 0.300676 0.300236 0.343562
O17   O     O_3   0.518958 0.153109 0.209697 -0.733235
H49   H     H_    0.532108 0.204631 0.172406 0.348809
O18   O     O_3   0.458682 0.906332 0.842157 -0.730451
H50   H     H_    0.427767 0.891817 0.921651 0.350595
O19   O     O_3   0.485745 0.152971 0.783890 -0.728671
H51   H     H_    0.477037 0.206375 0.813860 0.344293
O20   O     O_3   0.542152 0.905731 0.156646 -0.728256
H52   H     H_    0.573120 0.891014 0.077551 0.350097
O21   O     O_3   0.018871 0.654070 0.210606 -0.727182
H53   H     H_    0.031300 0.706248 0.175217 0.344725
O22   O     O_3   0.958862 0.405118 0.841802 -0.730087
H54   H     H_    0.928128 0.389621 0.920933 0.349755
O23   O     O_3   0.982975 0.654810 0.787236 -0.731564
H55   H     H_    0.970751 0.706405 0.823158 0.347710
O24   O     O_3   0.039111 0.409846 0.159543 -0.717312
H56   H     H_    0.066622 0.388726 0.083664 0.348520
N33   N     N_R   0.333721 0.780024 0.007530 0.258366
O25   O     O_R   0.382752 0.734755 0.929954 -0.342096
O26   O     O_R   0.317408 0.777691 0.104668 -0.354935
N34   N     N_R   0.659669 0.252013 0.024551 0.247216
O27   O     O_R   0.665520 0.188325 0.974086 -0.357784
O28   O     O_R   0.647160 0.317160 0.997793 -0.317547
N35   N     N_R   0.663421 0.777533 0.997683 0.256970
O29   O     O_R   0.611524 0.734342 0.077465 -0.353591
O30   O     O_R   0.681568 0.772736 0.899442 -0.356105
N36   N     N_R   0.348433 0.235493 0.976937 0.234956
O31   O     O_R   0.352139 0.168540 0.012004 -0.365380
O32   O     O_R   0.347042 0.299177 0.023616 -0.312182
N37   N     N_R   0.834127 0.277389 0.005321 0.258065
O33   O     O_R   0.883587 0.232888 0.926948 -0.355691
O34   O     O_R   0.817052 0.273382 0.102921 -0.369397
N38   N     N_R   0.158786 0.753431 0.027564 0.248427
O35   O     O_R   0.165059 0.689580 0.977049 -0.312161
O36   O     O_R   0.146205 0.818352 0.000460 -0.326311
N39   N     N_R   0.205585 0.410787 0.928589 0.246807
O37   O     O_R   0.223004 0.378496 0.839029 -0.402077
O38   O     O_R   0.185897 0.483148 0.948254 -0.312626
N40   N     N_R   0.843250 0.750775 0.973327 0.246458
O39   O     O_R   0.839521 0.686811 0.021696 -0.355912
O40   O     O_R   0.853396 0.816854 0.002469 -0.321126

loop_
_geom_bond_atom_site_label_1
_geom_bond_atom_site_label_2
_geom_bond_distance
_ccdc_geom_bond_type
C1    C33   1.391423 A    
O22   H54   0.989521 S    
C80   C88   1.332100 D    
O3    H35   0.988946 S    
C56   C71   1.404323 A    
C53   C57   1.361846 A    
O21   H53   0.989197 S    
C26   O18   1.377555 S    
N20   Ni2   1.860625 S    
O2    H34   0.990336 S    
C18   C42   1.395000 A    
N17   Ni2   1.855717 S    
O6    H38   0.989546 S    
N29   Ni8   1.841500 S    
C61   C69   1.394752 A    
N38   O35   1.301221 A    
C37   C79   1.476677 S    
C16   H8    1.076977 S    
O1    H33   0.988997 S    
O13   H45   0.991200 S    
C8    O8    1.371710 S    
C38   C80   1.452859 S    
H31   C88   1.091679 S    
C62   C70   1.396510 A    
C59   C67   1.396799 A    
C53   C70   1.397122 A    
C35   C73   1.470573 S    
C40   C78   1.479061 S    
N13   Ni7   1.842249 S    
C57   C65   1.394136 A    
C51   C68   1.405850 A    
C33   C75   1.451954 S    
C17   O9    1.363901 S    
C27   O19   1.373211 S    
C48   C69   1.431732 S    
N35   O30   1.301293 A    
C63   H23   1.080611 S    
N32   Ni8   1.868580 S    
C19   N19   1.324192 A    
C6    C38   1.377447 A    
C79   N40   1.440329 S    
N31   Ni7   1.868577 S    
O19   H51   0.989767 S    
C53   H13   1.084285 S    
C14   N14   1.339783 A    
C44   C65   1.435510 S    
C19   C43   1.365363 A    
C30   N30   1.345439 A    
C55   H15   1.082711 S    
O5    H37   0.988666 S    
C81   C86   1.465042 S    
C24   O16   1.374259 S    
N23   Ni3   1.860625 S    
C28   O20   1.377617 S    
C29   O21   1.372592 S    
N7    Ni4   1.859267 S    
C56   C60   1.388486 A    
N12   Ni5   1.869413 S    
C26   N26   1.345778 A    
N15   N23   1.366679 A    
O8    H40   0.990328 S    
C76   C84   1.350951 D    
N16   N24   1.366679 A    
C60   C68   1.403390 A    
C45   C72   1.444682 S    
C61   H21   1.083771 S    
C24   C48   1.389866 A    
C57   H17   1.083250 S    
C52   C64   1.391686 A    
C77   N38   1.439882 S    
C22   O14   1.369995 S    
C4    N4    1.344203 A    
C75   C83   1.337884 D    
C27   C33   1.382414 A    
C5    N5    1.341908 A    
C2    C34   1.384940 A    
C39   C77   1.472495 S    
C73   N34   1.439584 S    
C27   N27   1.336348 A    
C20   N20   1.339648 A    
C7    N7    1.342653 A    
C23   N23   1.323073 A    
C1    O1    1.370473 S    
O20   H52   0.989682 S    
C8    N8    1.343494 A    
C15   C47   1.372986 A    
N5    Ni3   1.855419 S    
N13   N21   1.366755 A    
C58   C66   1.396262 A    
C47   C70   1.430884 S    
N40   O39   1.301205 A    
C9    N9    1.342143 A    
C11   C43   1.370169 A    
C10   C42   1.376945 A    
C17   N17   1.338611 A    
C50   C62   1.388616 A    
C6    O6    1.375360 S    
N7    N29   1.390975 A    
C32   O24   1.376128 S    
C13   C45   1.375854 A    
C52   C67   1.403867 A    
C52   H12   1.082793 S    
C26   C36   1.391453 A    
O24   H56   0.990227 S    
N4    Ni1   1.859266 S    
C59   H19   1.080591 S    
C82   C85   1.466695 S    
N1    Ni1   1.855419 S    
O4    H36   0.990664 S    
C56   H16   1.079751 S    
C41   C68   1.477869 S    
O18   H50   0.989479 S    
N5    N31   1.391340 A    
N27   Ni5   1.868577 S    
O11   H43   0.990715 S    
C13   H5    1.079668 S    
C19   O11   1.375953 S    
N28   Ni6   1.868580 S    
O16   H48   0.986489 S    
C25   O17   1.372419 S    
C64   C72   1.399612 A    
C58   H18   1.083174 S    
C23   O15   1.376753 S    
C55   C59   1.361839 A    
C55   C72   1.398421 A    
N1    N27   1.391340 A    
O12   H44   0.986797 S    
N37   O33   1.301296 A    
C54   C58   1.387908 A    
C6    N6    1.337166 A    
C80   N39   1.439965 S    
C16   C48   1.377235 A    
N9    Ni5   1.842249 S    
N18   Ni1   1.855720 S    
N36   O32   1.301464 A    
N39   O37   1.300618 A    
N14   N22   1.366755 A    
C18   O10   1.372251 S    
C17   C41   1.384112 A    
C10   H2    1.073706 S    
C22   N22   1.335993 A    
N21   Ni4   1.855717 S    
N33   O25   1.301284 A    
C1    N1    1.338156 A    
H32   C87   1.086519 S    
N40   O40   1.300691 A    
C10   N10   1.324627 A    
C20   O12   1.373327 S    
N6    Ni4   1.855423 S    
C18   N18   1.342682 A    
N26   Ni5   1.841499 S    
H26   C81   1.086900 S    
N25   Ni6   1.841500 S    
N39   O38   1.301202 A    
C31   N31   1.349730 A    
C43   C66   1.425771 S    
O9    H41   0.990631 S    
C12   C44   1.375257 A    
N11   N19   1.366679 A    
C74   C82   1.348776 D    
C78   N37   1.441562 S    
C54   H14   1.083338 S    
H30   C85   1.086661 S    
C5    C37   1.383651 A    
C2    N2    1.343406 A    
C12   H4    1.076551 S    
C74   N33   1.441289 S    
C11   H3    1.079313 S    
C3    C35   1.382987 A    
C3    O3    1.366783 S    
C7    C39   1.384414 A    
C31   C37   1.400525 A    
N11   Ni6   1.869411 S    
C30   C40   1.391220 A    
C24   N24   1.336769 A    
O23   H55   0.989305 S    
N33   O26   1.301325 A    
C30   O22   1.377454 S    
C14   H6    1.075281 S    
C83   C88   1.448479 S    
N6    N32   1.391335 A    
C49   H9    1.084582 S    
C84   C87   1.469136 S    
N10   Ni6   1.842249 S    
C25   N25   1.346740 A    
C9    H1    1.078615 S    
C20   C44   1.390525 A    
N38   O36   1.300624 A    
C2    O2    1.372390 S    
C49   C66   1.395136 A    
N10   N18   1.366755 A    
C64   H24   1.082731 S    
N2    N28   1.391335 A    
C34   C76   1.484200 S    
C51   C63   1.383767 A    
C51   H11   1.071466 S    
N12   N20   1.366679 A    
C78   C86   1.348509 D    
C76   N35   1.441581 S    
C50   H10   1.083339 S    
C4    O4    1.372530 S    
C21   C45   1.369014 A    
C29   N29   1.347738 A    
C25   C35   1.392625 A    
N30   Ni7   1.841499 S    
C54   C69   1.401058 A    
C73   C81   1.349946 D    
N22   Ni3   1.855720 S    
N37   O34   1.301360 A    
C75   N36   1.444006 S    
C11   N11   1.342385 A    
N19   Ni1   1.860625 S    
N3    Ni2   1.859267 S    
C21   O13   1.378021 S    
N36   O31   1.301444 A    
N4    N26   1.390980 A    
H27   C84   1.081444 S    
C29   C39   1.396640 A    
C15   N15   1.344156 A    
C21   N21   1.324712 A    
C7    O7    1.368329 S    
C50   C65   1.402245 A    
C28   C34   1.395088 A    
C16   N16   1.326982 A    
N8    N30   1.390980 A    
C79   C87   1.352474 D    
H25   C82   1.082144 S    
C9    C41   1.383239 A    
H29   C86   1.082197 S    
C14   C46   1.392636 A    
N35   O29   1.301300 A    
C49   C61   1.362205 A    
O15   H47   0.990711 S    
C62   H22   1.083079 S    
C63   C71   1.397793 A    
N15   Ni8   1.869411 S    
C4    C36   1.386752 A    
C3    N3    1.343824 A    
C32   C38   1.373165 A    
N34   O28   1.300559 A    
H28   C83   1.084889 S    
C36   C74   1.480304 S    
O10   H42   0.988069 S    
C12   N12   1.325909 A    
C46   C71   1.470698 S    
N24   Ni4   1.860625 S    
N2    Ni2   1.855423 S    
C13   N13   1.345254 A    
N34   O27   1.301186 A    
C28   N28   1.349268 A    
N8    Ni3   1.859266 S    
O17   H49   0.989195 S    
C31   O23   1.372917 S    
N14   Ni8   1.842249 S    
C8    C40   1.386583 A    
C5    O5    1.368436 S    
O14   H46   0.990700 S    
N16   Ni7   1.869413 S    
C77   C85   1.350113 D    
C42   C67   1.450308 S    
C60   H20   1.080510 S    
O7    H39   0.987780 S    
N9    N17   1.366755 A    
N3    N25   1.390975 A    
C32   N32   1.340989 A    
C15   H7    1.079433 S    
C22   C46   1.392370 A    
C23   C47   1.364840 A    
