data_mof_unit_61718.cif
_audit_creation_date              2012-12-10T20:11:56-0500
_audit_creation_method            fapswitch 2.2
_symmetry_space_group_name_H-M    P1
_symmetry_Int_Tables_number       1
_space_group_crystal_system       triclinic
_cell_length_a                    13.636681
_cell_length_b                    18.501772
_cell_length_c                    19.33452
_cell_angle_alpha                 90.219367
_cell_angle_beta                  90.577826
_cell_angle_gamma                 83.384408
_cell_volume                      4845.40751088

loop_
_atom_site_label
_atom_site_type_symbol
_atom_type_description
_atom_site_fract_x
_atom_site_fract_y
_atom_site_fract_z
_atom_type_partial_charge
C1    C     C_R   0.500237 0.500069 0.634312 0.867378
C2    C     C_R   0.499764 0.499931 0.365688 0.867380
C3    C     C_R   0.501376 0.433933 0.254226 -0.177427
C4    C     C_R   0.498631 0.566065 0.745774 -0.177427
C5    C     C_R   0.499349 0.499807 0.290565 -0.037604
C6    C     C_R   0.500658 0.500192 0.709435 -0.037605
C7    C     C_R   0.435270 0.459758 0.034961 -0.178283
C8    C     C_R   0.564753 0.540237 0.965039 -0.178285
C9    C     C_R   0.435609 0.459933 0.963329 -0.182167
C10   C     C_R   0.564414 0.540061 0.036671 -0.182167
C11   C     C_R   0.500363 0.500162 0.928250 0.107172
C12   C     C_R   0.499659 0.499833 0.071750 0.107172
C13   C     C_R   0.439011 0.278147 0.456010 0.031452
C14   C     C_R   0.560988 0.721853 0.543990 0.031451
C15   C     C_R   0.438439 0.202288 0.455848 -0.314688
C16   C     C_R   0.561560 0.797712 0.544152 -0.314688
C17   C     C_R   0.500637 0.158388 0.500982 0.029410
C18   C     C_R   0.499363 0.841612 0.499018 0.029410
C19   C     C_R   0.562980 0.193108 0.545460 -0.357089
C20   C     C_R   0.437021 0.806891 0.454540 -0.357089
C21   C     C_R   0.561484 0.269224 0.544216 0.745267
C22   C     C_R   0.438516 0.730776 0.455784 0.745267
C23   C     C_R   0.685820 0.487213 0.500096 0.906033
C24   C     C_R   0.314180 0.512787 0.499904 0.906035
C25   C     C_R   0.588295 0.030284 0.510378 -0.184803
C26   C     C_R   0.411705 0.969715 0.489622 -0.184803
C27   C     C_R   0.588002 0.954398 0.509271 -0.182360
C28   C     C_R   0.411998 0.045602 0.490729 -0.182359
C29   C     C_R   0.499684 0.922831 0.498951 0.163468
C30   C     C_R   0.500316 0.077169 0.501049 0.163467
C31   C     C_1   0.210607 0.522377 0.499719 -0.152718
C32   C     C_1   0.789392 0.477623 0.500281 -0.152718
C33   C     C_2   0.019203 0.531298 0.499547 -0.158068
C34   C     C_2   0.980797 0.468702 0.500453 -0.158068
C35   C     C_1   0.877037 0.471110 0.500406 0.021336
C36   C     C_1   0.122963 0.528890 0.499594 0.021336
C37   C     C_R   0.496973 0.565673 0.254613 -0.162791
C38   C     C_R   0.503042 0.434325 0.745386 -0.162789
C39   C     C_R   0.496932 0.565620 0.183000 -0.179526
C40   C     C_R   0.503089 0.434377 0.816999 -0.179528
C41   C     C_R   0.499205 0.499791 0.146863 0.113210
C42   C     C_R   0.500815 0.500205 0.853137 0.113210
C43   C     C_R   0.501260 0.433968 0.182577 -0.174178
C44   C     C_R   0.498753 0.566029 0.817424 -0.174176
H1    H     H_    0.026455 0.416484 0.501200 0.163761
H2    H     H_    0.973544 0.583515 0.498800 0.163761
H3    H     H_    0.611636 0.161812 0.581701 0.168712
H4    H     H_    0.388364 0.838187 0.418299 0.168712
H5    H     H_    0.658009 0.052206 0.517254 0.139785
H6    H     H_    0.341991 0.947794 0.482746 0.139785
H7    H     H_    0.657587 0.920375 0.515468 0.137523
H8    H     H_    0.342413 0.079625 0.484532 0.137523
H9    H     H_    0.494995 0.617188 0.281667 0.183947
H10   H     H_    0.505021 0.382810 0.718332 0.183951
H11   H     H_    0.494225 0.616899 0.155781 0.138320
H12   H     H_    0.505800 0.383097 0.844217 0.138321
H13   H     H_    0.503970 0.382687 0.155026 0.134904
H14   H     H_    0.496042 0.617310 0.844975 0.134905
H15   H     H_    0.503461 0.382457 0.281001 0.161797
H16   H     H_    0.496540 0.617542 0.719000 0.161796
H17   H     H_    0.384083 0.429200 0.061656 0.138018
H18   H     H_    0.615938 0.570795 0.938343 0.138019
H19   H     H_    0.384690 0.429483 0.935288 0.136653
H20   H     H_    0.615333 0.570512 0.064712 0.136652
H21   H     H_    0.390584 0.177732 0.419810 0.155492
H22   H     H_    0.609416 0.822268 0.580190 0.155492
N1    N     N_R   0.499990 0.310560 0.500020 -0.161609
N2    N     N_R   0.500010 0.689440 0.499980 -0.161610
O1    O     O_R   0.500000 0.439160 0.601820 -0.581741
O2    O     O_R   0.500000 0.560840 0.398180 -0.581739
O3    O     O_R   0.500040 0.560790 0.601820 -0.634254
O4    O     O_R   0.499960 0.439210 0.398180 -0.634255
O5    O     O_R   0.640320 0.430440 0.499980 -0.568611
O6    O     O_R   0.359680 0.569560 0.500020 -0.568611
O7    O     O_R   0.640370 0.552060 0.499990 -0.623500
O8    O     O_R   0.359630 0.447940 0.500010 -0.623499
Zn1   Zn    Zn3+2 0.499970 0.418790 0.500000 1.006730
Zn2   Zn    Zn3+2 0.500030 0.581210 0.500000 1.006731
F1    F     F_    0.621756 0.301740 0.587564 -0.662050
F2    F     F_    0.378245 0.698260 0.412436 -0.662048
C45   C     C_1   0.374373 0.321154 0.408874 0.241837
N3    N     N_1   0.322091 0.355391 0.370819 -0.218743
C46   C     C_1   0.625626 0.678846 0.591126 0.241837
N4    N     N_1   0.677908 0.644609 0.629181 -0.218742

loop_
_geom_bond_atom_site_label_1
_geom_bond_atom_site_label_2
_ccdc_geom_bond_type
C17   C30   S    
C5    C37   A    
C27   C29   A    
O1    Zn1   S    
N1    Zn1   S    
C45   N3    T    
C39   C41   A    
C3    C43   A    
C12   C41   S    
C19   C21   A    
C26   H6    S    
C19   H3    S    
O2    Zn2   S    
C15   H21   S    
C13   C45   S    
C33   C36   S    
C11   C42   S    
C7    C9    A    
C34   C35   S    
C7    H17   S    
C39   H11   S    
C44   H14   S    
C40   H12   S    
C6    C38   A    
C37   H9    S    
C40   C42   A    
C21   N1    A    
C33   H2    S    
C41   C43   A    
C21   F1    S    
C42   C44   A    
C14   C46   S    
C23   O5    A    
C2    O4    A    
C27   H7    S    
N2    Zn2   S    
C7    C12   A    
C1    C6    S    
C32   C35   T    
O8    Zn1   S    
C4    C6    A    
C18   C29   S    
C24   O8    A    
C4    C44   A    
C1    O1    A    
O4    Zn1   S    
C46   N4    T    
C38   H10   S    
C4    H16   S    
C33   C34   D    
C34   H1    S    
C1    O3    A    
C9    C11   A    
C22   N2    A    
C20   H4    S    
C10   C12   A    
C8    C10   A    
C20   C22   A    
C13   C15   A    
C14   C16   A    
C2    C5    S    
C16   H22   S    
C13   N1    A    
C25   C30   A    
C15   C17   A    
C14   N2    A    
C9    H19   S    
C10   H20   S    
C23   O7    A    
C3    C5    A    
C25   C27   A    
C26   C28   A    
C23   C32   S    
C28   C30   A    
C24   C31   S    
C22   F2    S    
C37   C39   A    
C38   C40   A    
C28   H8    S    
C24   O6    A    
C8    C11   A    
C17   C19   A    
C18   C20   A    
O7    Zn2   S    
C25   H5    S    
C43   H13   S    
C26   C29   A    
C16   C18   A    
O6    Zn2   S    
O5    Zn1   S    
C31   C36   T    
C2    O2    A    
O3    Zn2   S    
C8    H18   S    
C3    H15   S    
