data_mof_unit_28712.cif
_audit_creation_date              2012-12-10T18:58:14-0500
_audit_creation_method            fapswitch 2.2
_symmetry_space_group_name_H-M    P1
_symmetry_Int_Tables_number       1
_space_group_crystal_system       triclinic
_cell_length_a                    11.055411
_cell_length_b                    10.820122
_cell_length_c                    9.551641
_cell_angle_alpha                 89.79287
_cell_angle_beta                  102.625597
_cell_angle_gamma                 90.295684
_cell_volume                      1114.92899608

loop_
_atom_site_label
_atom_site_type_symbol
_atom_type_description
_atom_site_fract_x
_atom_site_fract_y
_atom_site_fract_z
_atom_type_partial_charge
C1    C     C_R   0.501695 0.262448 0.500727 0.798913
C2    C     C_R   0.512038 0.129468 0.504906 -0.098382
C3    C     C_R   0.552349 0.065464 0.395990 -0.202206
C4    C     C_R   0.552291 0.936610 0.396048 -0.212404
C5    C     C_R   0.511139 0.871118 0.504211 -0.094947
C6    C     C_R   0.486091 0.936128 0.620582 0.120847
C7    C     C_3   0.374673 0.929916 0.685336 -0.461014
C8    C     C_3   0.376217 0.070128 0.686497 -0.472076
C9    C     C_R   0.593310 0.557263 0.096889 0.186537
C10   C     C_R   0.415057 0.433464 0.053195 -0.062166
C11   C     C_R   0.415012 0.433497 0.904338 -0.074524
C12   C     C_R   0.262844 0.499850 0.441855 0.859244
C13   C     C_R   0.593635 0.556352 0.949489 0.231307
C14   C     C_3   0.630190 0.688831 0.949148 -0.447827
C15   C     C_3   0.626281 0.691638 0.107667 -0.254368
C16   C     C_R   0.501502 0.737722 0.500350 0.795826
C17   C     C_R   0.737153 0.499904 0.558154 0.852924
C18   C     C_2   0.127944 0.499146 0.409118 -0.337248
C19   C     C_2   0.067314 0.498806 0.515692 -0.148851
C20   C     C_2   0.872042 0.499942 0.590946 -0.358959
C21   C     C_2   0.932740 0.497588 0.484486 -0.141152
C22   C     C_R   0.486890 0.063450 0.621030 0.140485
Cu1   Cu    Cu3+1 0.499990 0.499980 0.640670 0.943825
Cu2   Cu    Cu3+1 0.500010 0.500020 0.359330 0.937342
H1    H     H_    0.883055 0.494899 0.372882 0.184254
H2    H     H_    0.399453 0.109760 0.796400 0.199218
H3    H     H_    0.344922 0.381387 0.091414 0.139499
H4    H     H_    0.344809 0.381447 0.831085 0.133649
H5    H     H_    0.723298 0.699793 0.924396 0.227594
H6    H     H_    0.557352 0.747010 0.882488 0.192624
H7    H     H_    0.549236 0.749102 0.128437 0.148602
H8    H     H_    0.117069 0.499553 0.627343 0.177458
H9    H     H_    0.922001 0.502190 0.702412 0.154642
H10   H     H_    0.077922 0.498690 0.297635 0.162521
H11   H     H_    0.579638 0.114436 0.308620 0.168094
H12   H     H_    0.580515 0.889117 0.309516 0.148129
H13   H     H_    0.292177 0.890005 0.611023 0.204519
H14   H     H_    0.395558 0.889194 0.794814 0.195041
H15   H     H_    0.294403 0.111965 0.613307 0.195985
N1    N     N_R   0.500780 0.500930 0.148120 -0.194236
N2    N     N_R   0.500790 0.500890 0.852210 -0.184432
O1    O     O_R   0.500000 0.319640 0.618810 -0.578429
O2    O     O_R   0.500010 0.319680 0.381230 -0.585280
O3    O     O_R   0.320680 0.500000 0.575130 -0.585503
O4    O     O_R   0.320690 0.500040 0.337550 -0.578431
O5    O     O_R   0.499990 0.680320 0.618770 -0.581652
O6    O     O_R   0.500000 0.680360 0.381190 -0.596094
O7    O     O_R   0.679310 0.499960 0.662450 -0.575614
O8    O     O_R   0.679320 0.500000 0.424870 -0.597116
C23   C     C_2   0.748146 0.715926 0.210824 0.380681
H16   H     H_    0.753910 0.705593 0.324978 0.091839
O9    O     O_2   0.839816 0.750086 0.169368 -0.548688

loop_
_geom_bond_atom_site_label_1
_geom_bond_atom_site_label_2
_ccdc_geom_bond_type
C10   H3    S    
C2    C22   A    
C8    C22   S    
Cu1   Cu2   S    
C4    H12   S    
C15   H7    S    
C6    C7    S    
C12   O4    A    
C8    H15   S    
C8    H2    S    
C23   O9    D    
Cu1   N2    S    
C17   O7    A    
C3    H11   S    
C13   N2    A    
C2    C3    A    
C7    H13   S    
Cu2   O4    S    
C7    C8    S    
C12   O3    A    
Cu1   O5    S    
C13   C14   S    
C18   H10   S    
Cu1   O1    S    
C11   H4    S    
C14   H6    S    
C19   H8    S    
C16   O6    A    
C19   C21   S    
C7    H14   S    
C11   N2    A    
C9    C15   S    
C5    C6    A    
C10   C11   A    
C20   H9    S    
C14   H5    S    
C12   C18   S    
C3    C4    A    
C6    C22   A    
C1    O1    A    
C17   C20   S    
C20   C21   D    
C10   N1    A    
C1    C2    S    
C15   C23   S    
C16   O5    A    
Cu2   O8    S    
Cu2   O2    S    
C9    C13   A    
C14   C15   S    
C18   C19   D    
C5    C16   S    
C21   H1    S    
Cu1   O7    S    
C23   H16   S    
Cu2   N1    S    
Cu2   O6    S    
C1    O2    A    
C9    N1    A    
C17   O8    A    
Cu1   O3    S    
C4    C5    A    
