data_mof_unit_8712.cif
_audit_creation_date              2012-12-11T14:13:31-0500
_audit_creation_method            fapswitch 2.2
_symmetry_space_group_name_H-M    P1
_symmetry_Int_Tables_number       1
_space_group_crystal_system       triclinic
_cell_length_a                    17.630694
_cell_length_b                    17.630687
_cell_length_c                    17.431158
_cell_angle_alpha                 90.217577
_cell_angle_beta                  89.782369
_cell_angle_gamma                 89.998574
_cell_volume                      5418.24474001

loop_
_atom_site_label
_atom_site_type_symbol
_atom_type_description
_atom_site_fract_x
_atom_site_fract_y
_atom_site_fract_z
_atom_type_partial_charge
C1    C     C_R   0.600175 0.314735 0.123649 0.032638
C2    C     C_R   0.193463 0.106780 0.603825 0.021579
C3    C     C_R   0.229757 0.453862 0.222247 -0.180122
C4    C     C_R   0.161026 0.485607 0.244738 -0.108681
C5    C     C_R   0.104422 0.497643 0.190566 -0.089255
C6    C     C_R   0.115129 0.474752 0.114521 -0.118857
C7    C     C_R   0.184429 0.443214 0.091337 -0.186510
C8    C     C_R   0.566990 0.759331 0.861474 0.106498
C9    C     C_R   0.549671 0.778543 0.785565 -0.182553
C10   C     C_R   0.513487 0.846652 0.769773 -0.109728
C11   C     C_R   0.495286 0.896391 0.829539 -0.098669
C12   C     C_R   0.517271 0.880030 0.904492 -0.121929
C13   C     C_R   0.893492 0.193871 0.603485 0.022408
C14   C     C_R   0.553143 0.811268 0.920921 -0.175076
C15   C     C_R   0.757127 0.434677 0.854520 0.108689
C16   C     C_R   0.769787 0.453379 0.777348 -0.178268
C17   C     C_R   0.838312 0.485385 0.754766 -0.109994
C18   C     C_R   0.894882 0.498223 0.808882 -0.088405
C19   C     C_R   0.884465 0.475709 0.884903 -0.119359
C20   C     C_R   0.815467 0.443716 0.908128 -0.187684
C21   C     C_R   0.434783 0.242681 0.854913 0.107800
C22   C     C_R   0.453863 0.229755 0.777754 -0.180125
C23   C     C_R   0.485608 0.161025 0.755264 -0.108679
C24   C     C_R   0.806511 0.893983 0.605057 0.021322
C25   C     C_R   0.497644 0.104421 0.809437 -0.089258
C26   C     C_R   0.474753 0.115130 0.885481 -0.118858
C27   C     C_R   0.443215 0.184430 0.908665 -0.186505
C28   C     C_R   0.240616 0.566810 0.861699 0.105900
C29   C     C_R   0.221263 0.548755 0.785894 -0.184510
C30   C     C_R   0.152896 0.512919 0.770278 -0.108086
C31   C     C_R   0.102916 0.496004 0.830094 -0.099201
C32   C     C_R   0.119484 0.518722 0.904953 -0.121517
C33   C     C_R   0.188621 0.554037 0.921241 -0.174179
C34   C     C_R   0.067648 0.735571 0.620504 0.092152
C35   C     C_R   0.106779 0.193463 0.396174 0.021579
C36   C     C_R   0.077168 0.673427 0.571172 -0.154240
C37   C     C_R   0.039483 0.605679 0.586657 -0.107252
C38   C     C_R   0.991862 0.600592 0.650556 -0.148423
C39   C     C_R   0.986753 0.660566 0.702840 -0.118277
C40   C     C_R   0.025760 0.727774 0.688511 -0.143304
C41   C     C_R   0.263067 0.067231 0.623285 0.092760
C42   C     C_R   0.326229 0.070159 0.574527 -0.160121
C43   C     C_R   0.393337 0.034394 0.595961 -0.122258
C44   C     C_R   0.397169 0.996254 0.665903 -0.134350
C45   C     C_R   0.335130 0.995562 0.715803 -0.108281
C46   C     C_R   0.193871 0.893492 0.396515 0.022408
C47   C     C_R   0.268230 0.031800 0.694914 -0.145637
C48   C     C_R   0.933279 0.263563 0.622609 0.092629
C49   C     C_R   0.929486 0.326547 0.574152 -0.160297
C50   C     C_R   0.964801 0.394024 0.595645 -0.122573
C51   C     C_R   0.003397 0.398379 0.665320 -0.133220
C52   C     C_R   0.005135 0.336444 0.714847 -0.108865
C53   C     C_R   0.969276 0.269200 0.693944 -0.146286
C54   C     C_R   0.735110 0.932904 0.619832 0.092057
C55   C     C_R   0.673246 0.922779 0.570724 -0.153979
C56   C     C_R   0.605172 0.960043 0.586270 -0.108248
C57   C     C_R   0.893983 0.806511 0.394942 0.021322
C58   C     C_R   0.599482 0.007899 0.649972 -0.147588
C59   C     C_R   0.659278 0.013826 0.701923 -0.118626
C60   C     C_R   0.726781 0.975158 0.687597 -0.144048
C61   C     C_R   0.067231 0.263067 0.376714 0.092760
C62   C     C_R   0.070158 0.326229 0.425472 -0.160121
C63   C     C_R   0.034393 0.393337 0.404039 -0.122259
C64   C     C_R   0.996254 0.397170 0.334096 -0.134348
C65   C     C_R   0.995562 0.335130 0.284197 -0.108280
C66   C     C_R   0.031800 0.268230 0.305086 -0.145638
C67   C     C_R   0.263563 0.933279 0.377391 0.092629
C68   C     C_R   0.806933 0.106302 0.394633 0.020642
C69   C     C_R   0.326547 0.929485 0.425848 -0.160297
C70   C     C_R   0.394024 0.964800 0.404356 -0.122571
C71   C     C_R   0.398379 0.003397 0.334681 -0.133221
C72   C     C_R   0.336445 0.005136 0.285154 -0.108866
C73   C     C_R   0.269200 0.969276 0.306057 -0.146287
C74   C     C_R   0.932904 0.735110 0.380168 0.092056
C75   C     C_R   0.922779 0.673246 0.429276 -0.153978
C76   C     C_R   0.960043 0.605172 0.413731 -0.108247
C77   C     C_R   0.007900 0.599482 0.350030 -0.147592
C78   C     C_R   0.013827 0.659277 0.298079 -0.118626
C79   C     C_R   0.595381 0.688185 0.120684 -0.171740
C80   C     C_R   0.975158 0.726781 0.312403 -0.144048
C81   C     C_R   0.735571 0.067648 0.379496 0.092152
C82   C     C_R   0.673427 0.077168 0.428829 -0.154242
C83   C     C_R   0.605679 0.039482 0.413343 -0.107250
C84   C     C_R   0.600593 0.991862 0.349443 -0.148422
C85   C     C_R   0.660567 0.986753 0.297159 -0.118276
C86   C     C_R   0.727774 0.025761 0.311488 -0.143304
C87   C     C_R   0.311657 0.595368 0.120599 -0.172626
C88   C     C_R   0.404810 0.312048 0.120645 -0.171468
C89   C     C_R   0.685361 0.600522 0.123582 0.032528
C90   C     C_R   0.687636 0.404920 0.121011 -0.170589
C91   C     C_R   0.595368 0.311657 0.879401 -0.172625
C92   C     C_R   0.312049 0.404810 0.879353 -0.171468
C93   C     C_R   0.404919 0.687637 0.878990 -0.170588
C94   C     C_R   0.688185 0.595381 0.879316 -0.171740
C95   C     C_R   0.105254 0.195632 0.599340 -0.148504
C96   C     C_R   0.804225 0.106354 0.597890 -0.150939
C97   C     C_R   0.894074 0.804557 0.598915 -0.150453
C98   C     C_R   0.195281 0.895191 0.600340 -0.147971
C99   C     C_R   0.106354 0.804224 0.402110 -0.150939
C100  C     C_R   0.399525 0.685058 0.124740 0.032130
C101  C     C_R   0.804557 0.894075 0.401085 -0.150453
C102  C     C_R   0.895191 0.195281 0.399660 -0.147970
C103  C     C_R   0.195632 0.105254 0.400660 -0.148505
C104  C     C_R   0.668174 0.338318 0.154640 0.074048
C105  C     C_R   0.661957 0.668891 0.154392 0.074484
C106  C     C_R   0.330938 0.661733 0.154952 0.073015
C107  C     C_R   0.338355 0.331410 0.154823 0.072724
C108  C     C_R   0.668891 0.661957 0.845607 0.074484
C109  C     C_R   0.661733 0.330937 0.845048 0.073014
C110  C     C_R   0.331411 0.338356 0.845175 0.072724
C111  C     C_R   0.314916 0.399730 0.124589 0.032323
C112  C     C_R   0.338317 0.668176 0.845361 0.074048
C113  C     C_R   0.181799 0.820880 0.618930 0.075107
C114  C     C_R   0.179790 0.182446 0.617039 0.074834
C115  C     C_R   0.817656 0.181058 0.615587 0.073506
C116  C     C_R   0.819604 0.818307 0.617549 0.073830
C117  C     C_R   0.182446 0.179790 0.382961 0.074834
C118  C     C_R   0.181058 0.817656 0.384413 0.073506
C119  C     C_R   0.818307 0.819604 0.382451 0.073830
C120  C     C_R   0.820880 0.181799 0.381070 0.075107
C121  C     C_2   0.741342 0.658240 0.728556 -0.129173
C122  C     C_R   0.600522 0.685360 0.876418 0.032528
C123  C     C_2   0.341728 0.744749 0.731530 -0.128721
C124  C     C_2   0.255932 0.342392 0.730494 -0.130698
C125  C     C_2   0.657483 0.259393 0.727291 -0.131098
C126  C     C_2   0.744749 0.341729 0.268471 -0.128721
C127  C     C_2   0.342391 0.255933 0.269506 -0.130699
C128  C     C_2   0.259393 0.657483 0.272709 -0.131098
C129  C     C_2   0.658241 0.741343 0.271443 -0.129173
C130  C     C_2   0.305257 0.212829 0.329805 -0.137745
C131  C     C_2   0.788061 0.304378 0.328163 -0.136436
C132  C     C_2   0.695107 0.784183 0.332210 -0.140790
C133  C     C_R   0.685058 0.399525 0.875260 0.032130
C134  C     C_2   0.216679 0.694210 0.333976 -0.142053
C135  C     C_2   0.304378 0.788061 0.671838 -0.136437
C136  C     C_2   0.784182 0.695107 0.667789 -0.140791
C137  C     C_2   0.694210 0.216678 0.666024 -0.142053
C138  C     C_2   0.212828 0.305257 0.670195 -0.137745
C139  C     C_2   0.713209 0.699130 0.787111 -0.192401
C140  C     C_2   0.300746 0.712637 0.787625 -0.192410
C141  C     C_2   0.287331 0.301194 0.786524 -0.188207
C142  C     C_2   0.698538 0.287015 0.785652 -0.187707
C143  C     C_2   0.712635 0.300747 0.212377 -0.192408
C144  C     C_R   0.399730 0.314916 0.875410 0.032323
C145  C     C_2   0.301193 0.287329 0.213474 -0.188205
C146  C     C_2   0.287015 0.698538 0.214348 -0.187707
C147  C     C_2   0.699130 0.713210 0.212889 -0.192403
C148  C     C_2   0.236929 0.234557 0.354526 -0.184157
C149  C     C_2   0.766289 0.236094 0.352408 -0.185370
C150  C     C_2   0.764501 0.764021 0.354190 -0.184982
C151  C     C_2   0.236839 0.763606 0.356529 -0.183751
C152  C     C_2   0.236094 0.766289 0.647593 -0.185370
C153  C     C_2   0.764021 0.764501 0.645809 -0.184981
C154  C     C_2   0.763606 0.236838 0.643472 -0.183750
C155  C     C_R   0.314735 0.600175 0.876352 0.032638
C156  C     C_2   0.234557 0.236930 0.645473 -0.184157
C157  C     C_R   0.566809 0.240617 0.138302 0.105899
C158  C     C_R   0.548750 0.221265 0.214107 -0.184509
C159  C     C_R   0.512914 0.152898 0.229721 -0.108084
C160  C     C_R   0.496005 0.102916 0.169907 -0.099201
C161  C     C_R   0.518726 0.119482 0.095048 -0.121516
C162  C     C_R   0.554040 0.188620 0.078760 -0.174179
C163  C     C_R   0.759331 0.566990 0.138525 0.106498
C164  C     C_R   0.778544 0.549673 0.214435 -0.182556
C165  C     C_R   0.846653 0.513489 0.230226 -0.109728
C166  C     C_R   0.106302 0.806933 0.605367 0.020642
C167  C     C_R   0.896392 0.495287 0.170460 -0.098668
C168  C     C_R   0.880029 0.517271 0.095507 -0.121929
C169  C     C_R   0.811268 0.553143 0.079078 -0.175075
C170  C     C_R   0.434677 0.757127 0.145480 0.108689
C171  C     C_R   0.453379 0.769787 0.222651 -0.178268
C172  C     C_R   0.485385 0.838313 0.245233 -0.109993
C173  C     C_R   0.498224 0.894882 0.191117 -0.088407
C174  C     C_R   0.475710 0.884464 0.115096 -0.119360
C175  C     C_R   0.443717 0.815467 0.091871 -0.187682
C176  C     C_R   0.242681 0.434783 0.145088 0.107801
H1    H     H_    0.571375 0.743848 0.121256 0.144289
H2    H     H_    0.749403 0.081760 0.587729 0.129445
H3    H     H_    0.961792 0.442974 0.558640 0.097237
H4    H     H_    0.031189 0.449964 0.681333 0.102828
H5    H     H_    0.034524 0.340202 0.769067 0.114425
H6    H     H_    0.970418 0.221275 0.732640 0.116269
H7    H     H_    0.677622 0.886189 0.520930 0.110004
H8    H     H_    0.557216 0.952497 0.548542 0.096800
H9    H     H_    0.548902 0.040520 0.658796 0.102817
H10   H     H_    0.654273 0.049835 0.752065 0.120277
H11   H     H_    0.773471 0.980627 0.727464 0.117593
H12   H     H_    0.100435 0.323773 0.479267 0.112732
H13   H     H_    0.918628 0.749615 0.588882 0.129592
H14   H     H_    0.036602 0.442372 0.441361 0.097560
H15   H     H_    0.967883 0.448387 0.318223 0.102617
H16   H     H_    0.966562 0.338505 0.229758 0.114363
H17   H     H_    0.031281 0.220157 0.266194 0.116315
H18   H     H_    0.323696 0.898745 0.479381 0.112971
H19   H     H_    0.442974 0.961790 0.441361 0.097236
H20   H     H_    0.449965 0.031188 0.318668 0.102829
H21   H     H_    0.340203 0.034525 0.230934 0.114425
H22   H     H_    0.221276 0.970418 0.267360 0.116270
H23   H     H_    0.886188 0.677622 0.479070 0.110004
H24   H     H_    0.250126 0.920575 0.592111 0.126835
H25   H     H_    0.952497 0.557217 0.451460 0.096801
H26   H     H_    0.040522 0.548902 0.341207 0.102818
H27   H     H_    0.049837 0.654273 0.247936 0.120278
H28   H     H_    0.980628 0.773470 0.272536 0.117593
H29   H     H_    0.677371 0.113476 0.478831 0.109751
H30   H     H_    0.557545 0.046438 0.451320 0.097084
H31   H     H_    0.550392 0.958693 0.340767 0.102438
H32   H     H_    0.655975 0.950987 0.246831 0.120307
H33   H     H_    0.774695 0.020731 0.271482 0.117662
H34   H     H_    0.081760 0.749403 0.412271 0.129446
H35   H     H_    0.749615 0.918628 0.411117 0.129592
H36   H     H_    0.920575 0.250127 0.407889 0.126835
H37   H     H_    0.250389 0.079845 0.408979 0.126577
H38   H     H_    0.735113 0.597207 0.726750 0.143256
H39   H     H_    0.403101 0.741895 0.731298 0.141904
H40   H     H_    0.259070 0.403737 0.730856 0.142220
H41   H     H_    0.256048 0.571235 0.120966 0.144178
H42   H     H_    0.596468 0.265742 0.726138 0.143409
H43   H     H_    0.741896 0.403101 0.268702 0.141904
H44   H     H_    0.403736 0.259073 0.269145 0.142220
H45   H     H_    0.265743 0.596467 0.273862 0.143408
H46   H     H_    0.597207 0.735113 0.273250 0.143256
H47   H     H_    0.329974 0.158852 0.345505 0.136168
H48   H     H_    0.841968 0.329156 0.344158 0.135966
H49   H     H_    0.668963 0.836685 0.350915 0.134323
H50   H     H_    0.163989 0.668227 0.352183 0.134652
H51   H     H_    0.329156 0.841967 0.655842 0.135965
H52   H     H_    0.429128 0.256632 0.121320 0.147076
H53   H     H_    0.836685 0.668963 0.649084 0.134323
H54   H     H_    0.668227 0.163988 0.647817 0.134652
H55   H     H_    0.158851 0.329974 0.654495 0.136169
H56   H     H_    0.718728 0.760452 0.789781 0.150926
H57   H     H_    0.239210 0.715497 0.788995 0.151184
H58   H     H_    0.284283 0.239656 0.787195 0.151636
H59   H     H_    0.759868 0.281411 0.787582 0.151245
H60   H     H_    0.715494 0.239211 0.211008 0.151184
H61   H     H_    0.239656 0.284280 0.212802 0.151635
H62   H     H_    0.281411 0.759868 0.212419 0.151245
H63   H     H_    0.743079 0.429126 0.122059 0.147271
H64   H     H_    0.760452 0.718728 0.210218 0.150926
H65   H     H_    0.216131 0.291119 0.341570 0.150723
H66   H     H_    0.709773 0.215263 0.339200 0.148389
H67   H     H_    0.786517 0.708431 0.338606 0.149503
H68   H     H_    0.292559 0.785497 0.341387 0.152027
H69   H     H_    0.215262 0.709773 0.660802 0.148389
H70   H     H_    0.708431 0.786517 0.661393 0.149503
H71   H     H_    0.785497 0.292559 0.658613 0.152027
H72   H     H_    0.291119 0.216132 0.658428 0.150722
H73   H     H_    0.559533 0.260548 0.260766 0.121299
H74   H     H_    0.571235 0.256048 0.879034 0.144178
H75   H     H_    0.496605 0.140753 0.288063 0.106439
H76   H     H_    0.464502 0.051900 0.181009 0.097540
H77   H     H_    0.507695 0.079035 0.049985 0.099298
H78   H     H_    0.570137 0.202068 0.020386 0.119127
H79   H     H_    0.739333 0.561267 0.261039 0.121858
H80   H     H_    0.858787 0.497825 0.288648 0.106789
H81   H     H_    0.947037 0.463300 0.181667 0.097349
H82   H     H_    0.920284 0.505113 0.050472 0.099210
H83   H     H_    0.797960 0.568695 0.020643 0.119321
H84   H     H_    0.444557 0.725872 0.265084 0.121124
H85   H     H_    0.256633 0.429129 0.878677 0.147076
H86   H     H_    0.501187 0.846463 0.304501 0.104514
H87   H     H_    0.525503 0.946793 0.208117 0.099786
H88   H     H_    0.483174 0.930167 0.074814 0.098009
H89   H     H_    0.426127 0.807475 0.032953 0.120760
H90   H     H_    0.273623 0.445497 0.264764 0.120777
H91   H     H_    0.152744 0.501724 0.304011 0.104445
H92   H     H_    0.052269 0.524580 0.207554 0.100177
H93   H     H_    0.069395 0.481494 0.074204 0.097910
H94   H     H_    0.192661 0.425404 0.032379 0.120609
H95   H     H_    0.561264 0.739331 0.738961 0.121857
H96   H     H_    0.429126 0.743080 0.877943 0.147271
H97   H     H_    0.497822 0.858785 0.711352 0.106788
H98   H     H_    0.463299 0.947036 0.818331 0.097350
H99   H     H_    0.505115 0.920285 0.949527 0.099210
H100  H     H_    0.568697 0.797961 0.979356 0.119321
H101  H     H_    0.725871 0.444557 0.734916 0.121124
H102  H     H_    0.846462 0.501187 0.695498 0.104515
H103  H     H_    0.946793 0.525502 0.791882 0.099786
H104  H     H_    0.930168 0.483173 0.925184 0.098009
H105  H     H_    0.807475 0.426126 0.967046 0.120760
H106  H     H_    0.445497 0.273621 0.735236 0.120777
H107  H     H_    0.743848 0.571375 0.878743 0.144289
H108  H     H_    0.501725 0.152742 0.695991 0.104445
H109  H     H_    0.524581 0.052269 0.792450 0.100178
H110  H     H_    0.481495 0.069396 0.925800 0.097911
H111  H     H_    0.425405 0.192663 0.967622 0.120609
H112  H     H_    0.260545 0.559541 0.739234 0.121300
H113  H     H_    0.140750 0.496613 0.711936 0.106441
H114  H     H_    0.051900 0.464502 0.818991 0.097540
H115  H     H_    0.079039 0.507686 0.950017 0.099298
H116  H     H_    0.202070 0.570130 0.979616 0.119127
H117  H     H_    0.113477 0.677371 0.521169 0.109751
H118  H     H_    0.079844 0.250389 0.591021 0.126576
H119  H     H_    0.046440 0.557545 0.548680 0.097084
H120  H     H_    0.958694 0.550391 0.659232 0.102439
H121  H     H_    0.950986 0.655974 0.753168 0.120308
H122  H     H_    0.020729 0.774695 0.728518 0.117662
H123  H     H_    0.323773 0.100436 0.520733 0.112732
H124  H     H_    0.442372 0.036602 0.558639 0.097559
H125  H     H_    0.448386 0.967883 0.681777 0.102618
H126  H     H_    0.338504 0.966562 0.770242 0.114363
H127  H     H_    0.220156 0.031281 0.733806 0.116315
H128  H     H_    0.898746 0.323696 0.520619 0.112971
N1    N     N_R   0.574080 0.369570 0.076720 -0.059984
N2    N     N_R   0.130430 0.074080 0.576720 -0.060745
N3    N     N_R   0.925920 0.130430 0.576720 -0.060900
N4    N     N_R   0.869570 0.925920 0.576720 -0.060419
N5    N     N_R   0.074080 0.130430 0.423280 -0.060746
N6    N     N_R   0.130430 0.925920 0.423280 -0.060900
N7    N     N_R   0.925920 0.869570 0.423280 -0.060419
N8    N     N_R   0.869570 0.074080 0.423280 -0.060298
N9    N     N_R   0.574050 0.630410 0.076720 -0.052433
N10   N     N_R   0.369590 0.574050 0.076720 -0.052270
N11   N     N_R   0.425950 0.369590 0.076720 -0.051621
N12   N     N_R   0.630430 0.574080 0.076720 -0.060032
N13   N     N_R   0.630410 0.425950 0.076720 -0.051755
N14   N     N_R   0.574050 0.369590 0.923280 -0.052269
N15   N     N_R   0.369590 0.425950 0.923280 -0.051621
N16   N     N_R   0.425950 0.630410 0.923280 -0.051755
N17   N     N_R   0.630410 0.574050 0.923280 -0.052433
N18   N     N_R   0.074050 0.130410 0.576720 -0.053867
N19   N     N_R   0.869590 0.074050 0.576720 -0.053753
N20   N     N_R   0.925950 0.869590 0.576720 -0.053629
N21   N     N_R   0.130410 0.925950 0.576720 -0.053768
N22   N     N_R   0.074050 0.869590 0.423280 -0.053753
N23   N     N_R   0.425920 0.630430 0.076720 -0.059988
N24   N     N_R   0.869590 0.925950 0.423280 -0.053629
N25   N     N_R   0.925950 0.130410 0.423280 -0.053768
N26   N     N_R   0.130410 0.074050 0.423280 -0.053867
N27   N     N_R   0.369570 0.425920 0.076720 -0.059920
N28   N     N_R   0.574080 0.630430 0.923280 -0.060032
N29   N     N_R   0.630430 0.425920 0.923280 -0.059988
N30   N     N_R   0.425920 0.369570 0.923280 -0.059920
N31   N     N_R   0.369570 0.574080 0.923280 -0.059984
N32   N     N_R   0.074080 0.869570 0.576720 -0.060298
Ni1   Ni    Ni4+2 0.500000 0.370760 0.000000 0.202444
Ni2   Ni    Ni4+2 0.629240 0.500000 0.000000 0.202311
Ni3   Ni    Ni4+2 0.500000 0.629240 0.000000 0.202311
Ni4   Ni    Ni4+2 0.370760 0.500000 0.000000 0.202444
Ni5   Ni    Ni4+2 0.000000 0.870760 0.500000 0.207085
Ni6   Ni    Ni4+2 0.129240 0.000000 0.500000 0.205192
Ni7   Ni    Ni4+2 0.000000 0.129240 0.500000 0.205192
Ni8   Ni    Ni4+2 0.870760 0.000000 0.500000 0.207085

loop_
_geom_bond_atom_site_label_1
_geom_bond_atom_site_label_2
_ccdc_geom_bond_type
C157  C158  A    
C132  C150  D    
C160  H76   S    
N5    N26   A    
C55   C56   A    
C77   H26   S    
C66   H17   S    
C31   H114  S    
C147  H64   S    
C44   C45   A    
N19   Ni8   S    
C68   C81   S    
C171  H84   S    
C83   H30   S    
C144  N30   A    
C5    C6    A    
N10   N23   A    
C42   H123  S    
C2    C41   S    
C24   C54   S    
C126  C143  D    
C44   H125  S    
C59   H10   S    
C19   C20   A    
C70   H19   S    
C112  C155  A    
C131  H48   S    
C17   H102  S    
C19   H104  S    
C59   C60   A    
C21   C22   A    
C103  C117  A    
C114  C156  S    
N24   Ni8   S    
C127  H44   S    
C45   C47   A    
C15   C20   A    
C100  C170  S    
C51   C52   A    
C113  C166  A    
C72   C73   A    
C56   H8    S    
C23   H108  S    
C96   N19   A    
C75   C76   A    
C37   C38   A    
C153  H70   S    
N26   Ni6   S    
C90   C104  A    
C152  H69   S    
C13   C115  A    
C127  C145  D    
C168  C169  A    
C28   C33   A    
C29   H112  S    
C140  H57   S    
C131  C149  D    
C164  H79   S    
C20   H105  S    
C10   H97   S    
C122  N28   A    
C62   H12   S    
C28   C29   A    
C49   H128  S    
N11   Ni1   S    
C137  H54   S    
C6    C7    A    
C136  H53   S    
C100  C106  A    
C165  H80   S    
C159  H75   S    
C128  C146  D    
C32   C33   A    
C136  C153  D    
C2    C114  A    
N30   Ni1   S    
N31   Ni4   S    
C134  C151  D    
C69   C70   A    
C129  C147  D    
C93   C112  A    
C18   H103  S    
C14   H100  S    
C3    C176  A    
C22   C23   A    
C167  H81   S    
C157  C162  A    
C91   H74   S    
N7    Ni5   S    
C112  C140  S    
N14   N29   A    
C158  H73   S    
C162  H78   S    
C46   N6    A    
C85   C86   A    
C4    H91   S    
C46   C118  A    
C120  C149  S    
C135  H51   S    
C117  C148  S    
C36   C37   A    
N10   Ni4   S    
C38   C39   A    
C91   N14   A    
C78   C80   A    
C170  C171  A    
C135  C152  D    
C111  N27   A    
C174  C175  A    
C72   H21   S    
N12   Ni2   S    
C83   C84   A    
C79   H1    S    
C9    C10   A    
N4    N20   A    
C125  H42   S    
C97   H13   S    
C37   H119  S    
C3    H90   S    
C73   H22   S    
C38   H120  S    
C12   H99   S    
C48   C53   A    
C103  N26   A    
C111  C176  S    
C95   H118  S    
C57   N7    A    
C78   H27   S    
C22   H106  S    
N3    Ni7   S    
C39   C40   A    
C76   H25   S    
C149  H66   S    
C25   C26   A    
C1    N1    A    
C88   N11   A    
C123  C135  S    
C143  H60   S    
C110  C141  S    
C29   C30   A    
C128  C134  S    
C35   N5    A    
C31   C32   A    
N6    N22   A    
C7    C176  A    
C17   C18   A    
C41   C47   A    
C104  C143  S    
C35   C61   S    
N2    N18   A    
C109  C142  S    
C142  H59   S    
N14   Ni1   S    
C24   C116  A    
N16   N31   A    
C124  C141  D    
C3    C4    A    
N11   N27   A    
C33   H116  S    
C52   C53   A    
C54   C55   A    
N8    N25   A    
C107  C111  A    
C7    H94   S    
N7    N24   A    
C21   C144  S    
C129  H46   S    
C90   N13   A    
C128  H45   S    
C108  C139  S    
C75   H23   S    
C63   H14   S    
N15   Ni4   S    
C121  C139  D    
C50   H3    S    
C71   C72   A    
C53   H6    S    
C68   C120  A    
C8    C122  S    
N17   Ni2   S    
C88   H52   S    
C64   C65   A    
C102  N25   A    
C56   C58   A    
C34   C36   A    
C9    H95   S    
C61   C62   A    
C10   C11   A    
N2    Ni6   S    
C27   H111  S    
C63   C64   A    
C32   H115  S    
C4    C5    A    
C154  H71   S    
C49   C50   A    
C89   C105  A    
N21   N32   A    
N21   Ni6   S    
C94   H107  S    
C58   H9    S    
C43   H124  S    
C123  H39   S    
C41   C42   A    
C161  C162  A    
C77   C78   A    
C101  H35   S    
C26   C27   A    
C90   H63   S    
C124  C138  S    
C164  C165  A    
N13   Ni2   S    
C30   C31   A    
N8    Ni8   S    
C130  H47   S    
C95   C114  A    
C100  N23   A    
N28   Ni3   S    
C18   C19   A    
C168  H82   S    
C30   H113  S    
C16   C17   A    
C28   C155  S    
C86   H33   S    
C70   C71   A    
C67   C73   A    
N23   Ni3   S    
C92   H85   S    
C129  C132  S    
C119  C150  S    
C21   C27   A    
C101  N24   A    
C74   C80   A    
C6    H93   S    
C113  C152  S    
C97   N20   A    
C95   N18   A    
C155  N31   A    
C170  C175  A    
C84   C85   A    
C156  H72   S    
C167  C168  A    
N6    Ni6   S    
C88   C107  A    
C98   C113  A    
C125  C137  S    
C58   C59   A    
C109  C133  A    
C11   H98   S    
C62   C63   A    
C159  C160  A    
C50   C51   A    
C39   H121  S    
C52   H5    S    
C97   C116  A    
C110  C144  A    
C116  C153  S    
C36   H117  S    
C60   H11   S    
C115  C154  S    
C42   C43   A    
N18   Ni7   S    
C64   H15   S    
C102  C120  A    
C126  H43   S    
C2    N2    A    
C13   N3    A    
C98   H24   S    
C121  H38   S    
C102  H36   S    
C80   H28   S    
N29   Ni2   S    
C48   C49   A    
C1    C157  S    
C69   H18   S    
C137  C154  D    
C121  C136  S    
C163  C169  A    
C5    H92   S    
C82   C83   A    
C93   N16   A    
C55   H7    S    
C68   N8    A    
C79   N9    A    
C34   C166  S    
C89   C163  S    
N15   N30   A    
C171  C172  A    
C163  C164  A    
C43   C44   A    
C92   C110  A    
C175  H89   S    
C161  H77   S    
C81   C82   A    
C54   C60   A    
C173  C174  A    
C87   C106  A    
C94   C108  A    
C16   H101  S    
N17   N28   A    
C166  N32   A    
C34   C40   A    
C134  H50   S    
C138  H55   S    
C26   H110  S    
C107  C145  S    
N27   Ni4   S    
C15   C16   A    
C105  C147  S    
C79   C105  A    
N1    Ni1   S    
N25   Ni7   S    
C151  H68   S    
C61   C66   A    
C8    C9    A    
C145  H61   S    
C96   C115  A    
C139  H56   S    
C103  H37   S    
C57   C119  A    
C23   C25   A    
C25   H109  S    
N20   Ni5   S    
N1    N13   A    
C74   C75   A    
C130  C148  D    
C101  C119  A    
C146  H62   S    
N4    Ni8   S    
C76   C77   A    
C141  H58   S    
N9    N12   A    
C98   N21   A    
C133  N29   A    
C123  C140  D    
C67   C69   A    
C57   C74   S    
C24   N4    A    
N16   Ni3   S    
N32   Ni5   S    
C92   N15   A    
C125  C142  D    
N9    Ni3   S    
C81   C86   A    
N5    Ni7   S    
N3    N19   A    
C45   H126  S    
C1    C104  A    
C99   N22   A    
C12   C14   A    
C87   N10   A    
C148  H65   S    
C35   C117  A    
C51   H4    S    
C172  C173  A    
C124  H40   S    
C138  C156  D    
C150  H67   S    
C8    C14   A    
C47   H127  S    
C108  C122  A    
C13   C48   S    
C11   C12   A    
C15   C133  S    
C94   N17   A    
C106  C146  S    
C160  C161  A    
C91   C109  A    
C40   H122  S    
C127  C130  S    
C46   C67   S    
C132  H49   S    
C99   C118  A    
C84   H31   S    
C71   H20   S    
C158  C159  A    
C93   H96   S    
C126  C131  S    
C87   H41   S    
C172  H86   S    
C118  C151  S    
C89   N12   A    
C173  H87   S    
C65   H16   S    
C174  H88   S    
C165  C167  A    
C65   C66   A    
C169  H83   S    
C96   H2    S    
N22   Ni5   S    
C82   H29   S    
C85   H32   S    
C99   H34   S    
