data_mof_unit_10242.cif
_audit_creation_date              2012-12-11T19:20:22-0500
_audit_creation_method            fapswitch 2.2
_symmetry_space_group_name_H-M    P1
_symmetry_Int_Tables_number       1
_space_group_crystal_system       triclinic
_cell_length_a                    8.20449
_cell_length_b                    15.004747
_cell_length_c                    18.749795
_cell_angle_alpha                 101.378932
_cell_angle_beta                  91.423452
_cell_angle_gamma                 98.925532
_cell_volume                      2231.77845419

loop_
_atom_site_label
_atom_site_type_symbol
_atom_type_description
_atom_site_fract_x
_atom_site_fract_y
_atom_site_fract_z
_atom_type_partial_charge
Ba1   Ba    Ba6+2 0.853510 0.540900 0.466480 1.721688
Ba2   Ba    Ba6+2 0.336320 0.459170 0.533530 1.723170
C1    C     C_3   0.709913 0.868098 0.284378 0.338029
C2    C     C_R   0.886770 0.420351 0.094882 0.031838
C3    C     C_R   0.719851 0.387792 0.072771 -0.075861
C4    C     C_3   0.119509 0.719802 0.273976 0.816440
C5    C     C_R   0.657047 0.396805 0.005004 -0.100976
C6    C     C_R   0.761650 0.434365 0.956500 0.034439
C7    C     C_R   0.929039 0.467825 0.978210 0.018143
C8    C     C_R   0.702261 0.437265 0.886321 -0.116010
C9    C     C_R   0.810292 0.464943 0.834608 -0.039180
C10   C     C_R   0.975577 0.505572 0.857913 0.000796
C11   C     C_R   0.033948 0.507099 0.930179 -0.002234
C12   C     C_3   0.622647 0.770431 0.284482 0.251024
C13   C     C_R   0.759239 0.451941 0.760117 -0.027877
C14   C     C_R   0.869603 0.484887 0.711561 -0.295209
C15   C     C_R   0.026440 0.535516 0.735148 0.042280
C16   C     C_3   0.123698 0.745995 0.199665 -0.279107
C17   C     C_R   0.081809 0.545445 0.809597 -0.045674
C18   C     C_R   0.155366 0.501079 0.072096 -0.007728
C19   C     C_R   0.214607 0.500133 0.143773 0.005349
C20   C     C_R   0.108732 0.458054 0.191295 -0.058679
C21   C     C_R   0.949333 0.412960 0.163499 -0.039501
C22   C     C_R   0.240139 0.592608 0.837499 -0.035213
C23   C     C_3   0.434958 0.306554 0.306603 0.887906
C24   C     C_R   0.300967 0.589601 0.907655 0.029373
C25   C     C_R   0.198085 0.546111 0.954064 0.008272
C26   C     C_R   0.258881 0.543087 0.024889 0.009945
C27   C     C_R   0.464638 0.628410 0.931862 -0.079812
C28   C     C_3   0.245415 0.744661 0.628864 0.253586
C29   C     C_R   0.525562 0.624197 0.001253 -0.053298
C30   C     C_R   0.423263 0.582414 0.048398 0.038658
C31   C     C_R   0.379045 0.542091 0.167753 -0.052726
C32   C     C_R   0.482584 0.580709 0.118837 -0.095383
C33   C     C_R   0.433413 0.546317 0.240614 0.094035
C34   C     C_3   0.386304 0.268255 0.226263 -0.302403
C35   C     C_R   0.324628 0.510201 0.288306 -0.129319
C36   C     C_R   0.164573 0.464717 0.265258 0.000555
C37   C     C_R   0.340602 0.820221 0.450829 0.039121
C38   C     C_R   0.579567 0.791644 0.516099 0.045259
C39   C     C_R   0.771603 0.229281 0.512160 -0.209356
C40   C     C_3   0.281751 0.849317 0.650517 -0.298194
C41   C     C_R   0.864585 0.172531 0.539797 0.088592
C42   C     C_R   0.804253 0.078541 0.531898 0.069074
C43   C     C_R   0.647582 0.039644 0.495802 0.099747
C44   C     C_R   0.558261 0.098194 0.464340 0.006343
C45   C     C_3   0.010509 0.269816 0.720796 0.354064
C46   C     C_R   0.575214 0.945368 0.490828 0.001636
C47   C     C_R   0.415816 0.912290 0.454674 -0.057118
C48   C     C_R   0.334622 0.971592 0.423153 -0.056957
C49   C     C_R   0.405279 0.061878 0.426859 -0.032072
C50   C     C_R   0.652664 0.883595 0.522852 -0.099156
C51   C     C_R   0.426928 0.759844 0.478228 -0.269762
C52   C     C_3   0.965679 0.248435 0.365002 0.236716
C53   C     C_R   0.621509 0.192924 0.473086 0.010496
C54   C     C_3   0.970050 0.145910 0.339220 0.378304
C55   C     C_3   0.730942 0.674298 0.688584 0.310745
C56   C     C_3   0.011069 0.249273 0.797046 -0.308013
C57   C     C_3   0.752605 0.705907 0.770959 -0.376602
C58   C     C_3   0.532181 0.244890 0.770108 0.784758
C59   C     C_3   0.466828 0.217130 0.839707 -0.282274
C60   C     C_R   0.990558 0.463183 0.048455 0.006837
F1    F     F_    0.968492 0.102035 0.397272 -0.769957
F2    F     F_    0.552975 0.384239 0.312692 -0.714655
F3    F     F_    0.269256 0.695548 0.289773 -0.826384
H1    H     H_    0.587014 0.767956 0.341013 -0.016338
H2    H     H_    0.629315 0.614502 0.675538 0.069056
H3    H     H_    0.838611 0.878273 0.307716 0.088487
H4    H     H_    0.860295 0.762148 0.785633 0.137204
H5    H     H_    0.773478 0.647999 0.796799 0.056375
H6    H     H_    0.639746 0.731560 0.792254 0.123701
H7    H     H_    0.511705 0.755681 0.246602 0.121504
H8    H     H_    0.644260 0.918514 0.319030 -0.014963
H9    H     H_    0.323981 0.325030 0.334456 -0.082679
H10   H     H_    0.287116 0.207381 0.220176 0.074608
H11   H     H_    0.340491 0.321271 0.201044 0.033159
H12   H     H_    0.381543 0.870936 0.694486 0.158601
H13   H     H_    0.494975 0.247362 0.197180 0.117237
H14   H     H_    0.147317 0.687071 0.157494 0.067949
H15   H     H_    0.078550 0.340822 0.724514 0.042197
H16   H     H_    0.880187 0.265822 0.700928 -0.011913
H17   H     H_    0.942330 0.296397 0.833105 0.056054
H18   H     H_    0.952071 0.177066 0.795346 0.164162
H19   H     H_    0.139634 0.259986 0.820352 0.119726
H20   H     H_    0.662780 0.278019 0.781751 -0.181093
H21   H     H_    0.559977 0.185581 0.865864 0.090099
H22   H     H_    0.350278 0.166881 0.827950 0.141331
H23   H     H_    0.321752 0.879517 0.603210 0.082329
H24   H     H_    0.021420 0.659593 0.271872 0.065916
H25   H     H_    0.439184 0.277468 0.878830 0.030343
H26   H     H_    0.636857 0.357043 0.108565 0.076125
H27   H     H_    0.526934 0.373085 0.990326 0.072829
H28   H     H_    0.828872 0.475854 0.654904 0.068050
H29   H     H_    0.572150 0.415882 0.871845 0.078610
H30   H     H_    0.868922 0.374865 0.195648 0.125908
H31   H     H_    0.320223 0.629857 0.804674 0.103677
H32   H     H_    0.546355 0.661284 0.896846 0.072027
H33   H     H_    0.652797 0.654133 0.018181 0.116110
H34   H     H_    0.168766 0.876286 0.670211 0.144949
H35   H     H_    0.609553 0.611015 0.135109 0.117775
H36   H     H_    0.367020 0.515503 0.344307 0.085704
H37   H     H_    0.370395 0.688807 0.474208 0.072150
H38   H     H_    0.214328 0.949742 0.395198 0.136975
H39   H     H_    0.768704 0.904696 0.554244 0.097232
H40   H     H_    0.819037 0.302080 0.519005 0.030259
H41   H     H_    0.882227 0.038464 0.554600 0.051534
H42   H     H_    0.334887 0.102998 0.400976 0.113490
H43   H     H_    0.003665 0.764946 0.185338 0.156758
H44   H     H_    0.223298 0.805501 0.200390 0.156031
H45   H     H_    0.840954 0.258228 0.381792 -0.008084
H46   H     H_    0.359858 0.718620 0.611865 0.006494
H47   H     H_    0.150394 0.724981 0.582952 0.064730
H48   H     H_    0.537630 0.936257 0.125644 0.367887
H49   H     H_    0.474881 0.211719 0.615547 0.362029
H50   H     H_    0.057407 0.276411 0.411415 0.072092
H51   H     H_    0.861155 0.113857 0.301437 0.104202
H52   H     H_    0.084511 0.136267 0.310256 0.056744
H53   H     H_    0.847144 0.653649 0.667719 0.002854
O1    O     O_2   0.871970 0.437290 0.322980 -0.377034
O2    O     O_2   0.206664 0.181030 0.545481 -0.438947
O3    O     O_3   0.088792 0.205752 0.674645 -0.540385
O4    O     O_3   0.121420 0.444460 0.412460 -0.504288
O5    O     O_3   0.580410 0.613230 0.540280 -0.494884
O6    O     O_2   0.337420 0.273080 0.457680 -0.488815
O7    O     O_3   0.499659 0.239511 0.335813 -0.668957
O8    O     O_2   0.440151 0.474574 0.753286 -0.488476
O9    O     O_3   0.430796 0.302124 0.745719 -0.609899
O10   O     O_3   0.661430 0.607560 0.372520 -0.441999
O11   O     O_2   0.766881 0.536610 0.246160 -0.483048
O12   O     O_3   0.693755 0.747607 0.658672 -0.624513
O13   O     O_3   0.999551 0.290778 0.306015 -0.684723
O14   O     O_3   0.728355 0.706939 0.260447 -0.625056
O15   O     O_2   0.852280 0.726960 0.542370 -0.469935
O16   O     O_3   0.083990 0.657360 0.410240 -0.469663
O17   O     O_2   0.999710 0.821914 0.461076 -0.494842
O18   O     O_2   0.851815 0.967204 0.190815 -0.295801
O19   O     O_2   0.728661 0.807038 0.139245 -0.317861
O20   O     O_3   0.531220 0.926055 0.176176 -0.528565
O21   O     O_2   0.655188 0.089326 0.719559 -0.319894
O22   O     O_2   0.358112 0.083528 0.695125 -0.279989
O23   O     O_3   0.087390 0.794938 0.326383 -0.622779
O24   O     O_3   0.562197 0.175506 0.623026 -0.575885
O25   O     O_2   0.317740 0.562750 0.677070 -0.463195
O26   O     O_3   0.068290 0.555610 0.587550 -0.499652
O27   O     O_3   0.528280 0.392520 0.627490 -0.469164
O28   O     O_3   0.189665 0.709713 0.689222 -0.635831
O29   O     O_3   0.609300 0.386850 0.459730 -0.425444
O30   O     O_3   0.105720 0.342720 0.589770 -0.504942
P1    P     P_3+3 0.039440 0.410950 0.333260 1.000335
P2    P     P_3+3 0.676740 0.714970 0.563520 0.989653
P3    P     P_3+3 0.126568 0.775154 0.413750 1.011394
P4    P     P_3+3 0.150270 0.589130 0.666750 0.973248
P5    P     P_3+3 0.066822 0.224067 0.585849 1.047246
P6    P     P_3+3 0.644469 0.599477 0.278635 1.021248
P7    P     P_3+3 0.517794 0.271702 0.431093 0.983329
P8    P     P_3+3 0.545432 0.401189 0.722459 0.946803
S1    S     S_3+6 0.710529 0.891778 0.194510 -0.087190
S2    S     S_3+6 0.525129 0.143141 0.701820 -0.080323

loop_
_geom_bond_atom_site_label_1
_geom_bond_atom_site_label_2
_ccdc_geom_bond_type
O1    P1    D    
C2    C60   A    
Ba2   O26   S    
C54   H52   S    
C1    H3    S    
C33   P6    S    
C40   H12   S    
C5    C6    A    
C12   O14   S    
C43   C44   A    
C42   C43   A    
Ba2   O27   S    
C53   P7    S    
C52   O13   S    
C37   C51   A    
C14   H28   S    
O3    P5    S    
H49   O24   S    
C57   H5    S    
C33   C35   A    
C22   C24   A    
C23   H9    S    
C56   H17   S    
O11   P6    D    
C31   C33   A    
O17   P3    D    
C45   O3    S    
C19   C31   A    
O16   P3    S    
Ba2   O30   S    
C13   C14   A    
C20   C36   A    
C37   P3    S    
C52   H45   S    
Ba1   Ba2   S    
Ba1   O1    S    
C29   H33   S    
C23   O7    S    
Ba1   O4    S    
C39   C53   A    
C7    C11   A    
C59   H22   S    
O22   S2    D    
O27   P8    S    
C9    C13   A    
C4    F3    S    
O21   S2    D    
C6    C7    A    
C34   H11   S    
C44   C53   A    
O12   P2    S    
C32   H35   S    
C16   H44   S    
Ba1   P1    S    
O29   P7    S    
C36   P1    S    
O10   P6    S    
O5    P2    S    
C48   H38   S    
C19   C20   A    
C27   C29   A    
Ba2   O25   S    
C39   C41   A    
C45   H15   S    
C55   H2    S    
Ba1   O15   S    
C28   O28   S    
Ba2   O4    S    
Ba2   P4    S    
C4    C16   S    
C52   C54   S    
C7    C60   A    
O4    P1    S    
C55   O12   S    
C26   C30   A    
C55   C57   S    
C8    C9    A    
C3    C5    A    
C2    C21   A    
C16   H14   S    
C54   H51   S    
C18   C26   A    
C48   C49   A    
Ba2   O29   S    
C38   C50   A    
C44   C49   A    
C28   H47   S    
C58   C59   S    
C23   F2    S    
C30   C32   A    
C41   C42   A    
Ba1   O5    S    
C35   C36   A    
C34   H10   S    
C56   H19   S    
O14   P6    S    
C29   C30   A    
C51   H37   S    
C9    C10   A    
C52   H50   S    
C31   C32   A    
C12   H1    S    
C54   F1    S    
C38   P2    S    
Ba1   P2    S    
C18   C19   A    
C4    O23   S    
C13   P8    S    
C3    H26   S    
C1    C12   S    
C39   H40   S    
C57   H4    S    
O28   P4    S    
O18   S1    D    
Ba1   O10   S    
C6    C8    A    
O25   P4    D    
C37   C47   A    
C47   C48   A    
Ba2   O6    S    
C24   C25   A    
Ba1   O29   S    
C15   P4    S    
C40   H23   S    
O30   P5    S    
Ba1   O16   S    
C59   H25   S    
O23   P3    S    
C43   C46   A    
C50   H39   S    
H48   O20   S    
C12   H7    S    
C58   O9    S    
C28   C40   S    
O15   P2    D    
C58   S2    S    
C2    C3    A    
O9    P8    S    
C58   H20   S    
C42   H41   S    
C4    H24   S    
O19   S1    D    
C27   H32   S    
C28   H46   S    
C22   H31   S    
C17   C22   A    
O26   P4    S    
Ba1   O26   S    
C34   H13   S    
C40   H34   S    
C45   C56   S    
C35   H36   S    
O20   S1    S    
C14   C15   A    
C46   C47   A    
C5    H27   S    
C10   C17   A    
O2    P5    D    
C15   C17   A    
C21   H30   S    
O24   S2    S    
C45   H16   S    
C18   C60   A    
C1    H8    S    
C16   H43   S    
O13   P1    S    
C59   H21   S    
C23   C34   S    
C46   C50   A    
C10   C11   A    
C24   C27   A    
C49   H42   S    
C38   C51   A    
O6    P7    D    
C25   C26   A    
C1    S1    S    
C8    H29   S    
C20   C21   A    
C11   C25   A    
C56   H18   S    
C41   P5    S    
Ba2   O5    S    
O7    P7    S    
C57   H6    S    
C55   H53   S    
O8    P8    D    
