data_mof_unit_14348.cif
_audit_creation_date              2012-12-11T16:17:49-0500
_audit_creation_method            fapswitch 2.2
_symmetry_space_group_name_H-M    P1
_symmetry_Int_Tables_number       1
_space_group_crystal_system       triclinic
_cell_length_a                    6.915263
_cell_length_b                    28.833327
_cell_length_c                    32.020305
_cell_angle_alpha                 101.205925
_cell_angle_beta                  89.603784
_cell_angle_gamma                 90.416327
_cell_volume                      6262.54533029

loop_
_atom_site_label
_atom_site_type_symbol
_atom_type_description
_atom_site_fract_x
_atom_site_fract_y
_atom_site_fract_z
_atom_type_partial_charge
O1    O     O_R   0.494350 0.453160 0.452490 -0.513853
O2    O     O_R   0.820990 0.455850 0.538220 -0.544760
O3    O     O_R   0.994300 0.546840 0.547510 -0.531949
C1    C     C_R   0.651294 0.445264 0.551324 0.745186
O4    O     O_R   0.823860 0.447580 0.452250 -0.550765
O5    O     O_R   0.997190 0.538510 0.460920 -0.548656
C2    C     C_R   0.655142 0.435103 0.436065 0.736200
O6    O     O_R   0.491450 0.461490 0.539080 -0.516700
O7    O     O_3   0.661790 0.529840 0.502950 -0.362303
V1    V     V_3+5 0.935470 0.494460 0.499450 1.433648
O8    O     O_R   0.327090 0.544150 0.461780 -0.511267
C3    C     C_R   0.158872 0.554936 0.448742 0.743775
O9    O     O_R   0.324210 0.552420 0.547750 -0.535044
C4    C     C_R   0.154660 0.566581 0.562738 0.681277
V2    V     V_3+5 0.435840 0.505540 0.500550 1.492277
O10   O     O_3   0.159650 0.470160 0.497050 -0.356388
C5    C     C_R   0.973217 0.634080 0.610762 0.343697
C6    C     C_R   0.964412 0.667876 0.648732 -0.126544
H1    H     H_    0.831551 0.687453 0.656432 0.158099
C7    C     C_R   0.125605 0.678052 0.675531 -0.056209
C8    C     C_R   0.297220 0.652920 0.663795 -0.124702
H2    H     H_    0.424510 0.659847 0.683599 0.155449
C9    C     C_R   0.305666 0.617611 0.626914 -0.173606
H3    H     H_    0.438861 0.598055 0.619779 0.169252
C10   C     C_R   0.144023 0.606865 0.600118 -0.156635
N1    N     N_R   0.276105 0.732575 0.736606 -0.265774
N2    N     N_R   0.264495 0.765582 0.772106 -0.255192
C11   C     C_R   0.089956 0.782084 0.788049 0.510354
N3    N     N_R   0.927930 0.764805 0.766552 -0.250884
N4    N     N_R   0.939658 0.732022 0.730975 -0.279390
C12   C     C_R   0.113829 0.714966 0.715256 0.525606
C13   C     C_R   0.934592 0.817026 0.859720 0.325914
C14   C     C_R   0.916688 0.855141 0.894845 0.249849
C15   C     C_R   0.045123 0.894259 0.899363 -0.143464
C16   C     C_R   0.188346 0.894745 0.868185 -0.232100
H4    H     H_    0.287965 0.924319 0.870828 0.138495
C17   C     C_R   0.203702 0.857728 0.832940 -0.160658
H5    H     H_    0.313718 0.859917 0.809139 0.168840
C18   C     C_R   0.076458 0.818914 0.827679 -0.100886
C19   C     C_R   0.108103 0.656538 0.282775 0.642262
N5    N     N_R   0.119746 0.676769 0.325214 -0.573039
C20   C     C_R   0.128564 0.724918 0.338214 0.564801
C21   C     C_R   0.125025 0.754747 0.308285 -0.007571
C22   C     C_R   0.107853 0.734717 0.264632 -0.083170
C23   C     C_R   0.098141 0.685041 0.251359 -0.083857
C24   C     C_R   0.137380 0.804159 0.321122 -0.130907
C25   C     C_R   0.132645 0.833432 0.291165 -0.136151
C26   C     C_R   0.113412 0.814095 0.247614 -0.024094
C27   C     C_R   0.100257 0.764609 0.234319 -0.017163
C28   C     C_R   0.079032 0.745107 0.190809 -0.078721
C29   C     C_R   0.068327 0.695809 0.177724 -0.231091
C30   C     C_R   0.078608 0.665529 0.207351 0.407988
C31   C     C_R   0.106375 0.843100 0.216951 0.633276
N6    N     N_R   0.082816 0.823606 0.174663 -0.541875
C32   C     C_R   0.068273 0.775533 0.161293 0.630542
O11   O     O_2   0.106483 0.609001 0.271193 -0.456874
O12   O     O_2   0.139419 0.743974 0.380102 -0.521845
H6    H     H_    0.151167 0.820446 0.354427 0.170757
H7    H     H_    0.142894 0.871311 0.302316 0.170524
O13   O     O_2   0.122919 0.890427 0.229317 -0.517507
O14   O     O_2   0.043202 0.757220 0.119589 -0.500322
H8    H     H_    0.052281 0.680549 0.144233 0.170517
C33   C     C_R   0.223921 0.857966 0.115398 0.337335
C34   C     C_R   0.206053 0.887604 0.085905 -0.276838
H9    H     H_    0.324692 0.889303 0.063953 0.180152
C35   C     C_R   0.039743 0.914754 0.084139 -0.190244
C36   C     C_R   0.885666 0.911886 0.113025 0.168026
C37   C     C_R   0.901112 0.881306 0.142934 0.349194
C38   C     C_R   0.069519 0.854284 0.143918 0.218810
C39   C     C_R   0.293991 0.646162 0.380878 -0.158600
H10   H     H_    0.415400 0.668439 0.375839 0.157932
C40   C     C_R   0.306515 0.617960 0.411986 0.254570
C41   C     C_R   0.150031 0.587805 0.417991 -0.176885
C42   C     C_R   0.981719 0.588670 0.393656 -0.275218
H11   H     H_    0.859680 0.566162 0.397751 0.168167
C43   C     C_R   0.965899 0.618333 0.363977 0.398688
C44   C     C_R   0.125781 0.646909 0.356768 0.237937
C45   C     C_R   0.458205 0.216420 0.831538 0.610078
N7    N     N_R   0.573912 0.177347 0.826009 -0.555540
C46   C     C_R   0.697988 0.167067 0.792156 0.610950
C47   C     C_R   0.707601 0.196244 0.761758 -0.105597
C48   C     C_R   0.586151 0.236028 0.765934 -0.072299
C49   C     C_R   0.457125 0.246241 0.800934 -0.094031
C50   C     C_R   0.835302 0.185911 0.727152 -0.142594
C51   C     C_R   0.841920 0.213507 0.695984 0.370338
C52   C     C_R   0.726154 0.254738 0.700231 -0.113619
C53   C     C_R   0.595842 0.265564 0.735217 -0.109842
C54   C     C_R   0.476677 0.305916 0.739577 -0.083099
C55   C     C_R   0.348834 0.316686 0.775089 0.229065
C56   C     C_R   0.333764 0.285991 0.804641 0.223480
C57   C     C_R   0.739192 0.286035 0.671277 0.651246
N8    N     N_R   0.618501 0.324018 0.675034 -0.541122
C58   C     C_R   0.487328 0.333953 0.707698 0.652953
O15   O     O_2   0.346590 0.226319 0.866803 -0.497037
O16   O     O_2   0.811498 0.128525 0.787841 -0.494206
H12   H     H_    0.927870 0.155185 0.723287 0.190925
O17   O     O_2   0.872153 0.279037 0.639708 -0.503374
O18   O     O_2   0.367829 0.370971 0.709062 -0.490314
C59   C     C_R   0.791785 0.382417 0.640632 0.418320
C60   C     C_R   0.797160 0.411340 0.609834 -0.379582
H13   H     H_    0.922524 0.433660 0.608094 0.147612
C61   C     C_R   0.640916 0.412694 0.582156 -0.108701
C62   C     C_R   0.477175 0.383614 0.585120 0.240284
C63   C     C_R   0.472274 0.354967 0.615993 -0.245205
H14   H     H_    0.347123 0.332723 0.618212 0.177322
C64   C     C_R   0.628030 0.354024 0.643655 0.311285
C65   C     C_R   0.408705 0.112952 0.854762 0.409384
C66   C     C_R   0.404542 0.081895 0.883590 0.273556
C67   C     C_R   0.548753 0.084805 0.915608 -0.265043
C68   C     C_R   0.701354 0.118125 0.916594 0.238726
C69   C     C_R   0.707649 0.147633 0.886511 -0.173752
H15   H     H_    0.824964 0.172908 0.887290 0.162779
C70   C     C_R   0.562422 0.145910 0.856041 0.162066
C71   C     C_R   0.491346 0.394242 0.367801 0.233999
C72   C     C_R   0.486115 0.357096 0.331403 0.217096
C73   C     C_R   0.635284 0.322764 0.324104 -0.113009
C74   C     C_R   0.790276 0.326691 0.353473 0.237742
C75   C     C_R   0.793195 0.363477 0.389146 -0.257142
H16   H     H_    0.912005 0.365238 0.411323 0.162809
C76   C     C_R   0.645437 0.397091 0.397122 -0.177040
N9    N     N_R   0.781459 0.268146 0.262288 -0.296548
N10   N     N_R   0.768013 0.233774 0.227901 -0.280512
C77   C     C_R   0.594974 0.212917 0.215916 0.521208
N11   N     N_R   0.436526 0.227569 0.240085 -0.286053
N12   N     N_R   0.450569 0.261604 0.274690 -0.248226
C78   C     C_R   0.623246 0.282813 0.286535 0.562735
C79   C     C_R   0.401883 0.167801 0.155012 -0.130365
H17   H     H_    0.276668 0.188859 0.166760 0.156692
C80   C     C_R   0.386243 0.134769 0.116697 0.341419
C81   C     C_R   0.547434 0.105961 0.100883 -0.168638
C82   C     C_R   0.723703 0.114327 0.123055 -0.183588
H18   H     H_    0.850451 0.093548 0.112095 0.172989
C83   C     C_R   0.739643 0.149125 0.160000 -0.114979
H19   H     H_    0.877898 0.154482 0.175970 0.155112
C84   C     C_R   0.578413 0.175839 0.176715 -0.057374
O19   O     O_R   0.699050 0.038480 0.960880 -0.508021
O20   O     O_R   0.366680 0.052470 0.047720 -0.535044
O21   O     O_R   0.193410 0.961530 0.039110 -0.548683
C85   C     C_R   0.535661 0.066409 0.062922 0.689093
O22   O     O_R   0.369510 0.044100 0.961740 -0.541662
O23   O     O_R   0.196260 0.953110 0.952520 -0.554756
C86   C     C_R   0.538785 0.053612 0.947728 0.739759
O24   O     O_R   0.696210 0.046900 0.047470 -0.533323
O25   O     O_3   0.528780 0.970170 0.997070 -0.369614
V3    V     V_3+5 0.255080 0.005530 0.000540 1.438400
O26   O     O_R   0.866350 0.947520 0.952280 -0.525484
C87   C     C_R   0.035265 0.934091 0.936832 0.748541
O27   O     O_R   0.863520 0.955880 0.038260 -0.509915
C88   C     C_R   0.031423 0.946178 0.052180 0.776320
V4    V     V_3+5 0.754720 0.994440 0.999470 1.492326
O28   O     O_3   0.030880 0.029830 0.002930 -0.356514
O29   O     O_3   0.813385 0.629716 0.584779 -0.647631
H20   H     H_    0.859025 0.623251 0.554843 0.285705
O30   O     O_3   0.068065 0.617059 0.193719 -0.590904
H21   H     H_    0.054613 0.609523 0.162310 0.299499
O31   O     O_3   0.395297 0.833637 0.115333 -0.614885
H22   H     H_    0.398981 0.818062 0.140240 0.321380
N13   N     N_2   0.716847 0.939564 0.111606 -0.504146
H23   H     H_    0.587615 0.922493 0.114505 0.272954
C89   C     C_3   0.726707 0.986818 0.137038 -0.512066
H24   H     H_    0.737518 0.985424 0.171378 0.196634
H25   H     H_    0.594003 0.006456 0.132048 0.188842
H26   H     H_    0.853766 0.006222 0.127480 0.189626
O32   O     O_3   0.756633 0.876767 0.171993 -0.618211
H27   H     H_    0.663706 0.902970 0.174206 0.311264
N14   N     N_2   0.476245 0.620766 0.437296 -0.504497
H28   H     H_    0.599733 0.628859 0.421901 0.270616
C90   C     C_3   0.457038 0.650376 0.479113 -0.461879
H29   H     H_    0.434579 0.687765 0.476263 0.195745
H30   H     H_    0.590998 0.648212 0.497548 0.195290
H31   H     H_    0.333642 0.638481 0.496871 0.179497
O33   O     O_3   0.791864 0.618353 0.343096 -0.636232
H32   H     H_    0.788754 0.645403 0.328265 0.300735
O34   O     O_3   0.960797 0.198308 0.661488 -0.612508
H33   H     H_    0.880309 0.196621 0.635733 0.324943
N15   N     N_2   0.235678 0.358664 0.781346 -0.459343
H34   H     H_    0.094600 0.355001 0.790791 0.260452
C91   C     C_3   0.331394 0.400093 0.805399 -0.455641
H35   H     H_    0.357036 0.395789 0.838626 0.159729
H36   H     H_    0.239170 0.431586 0.806049 0.206574
H37   H     H_    0.472139 0.406272 0.790379 0.215424
N16   N     N_2   0.193644 0.295161 0.838092 -0.469964
H38   H     H_    0.178601 0.330097 0.852617 0.257783
C92   C     C_3   0.010442 0.271194 0.827972 -0.459474
H39   H     H_    0.938196 0.284536 0.801821 0.167235
H40   H     H_    0.914757 0.277633 0.856470 0.199205
H41   H     H_    0.032463 0.232470 0.818233 0.219800
O35   O     O_3   0.942818 0.381819 0.668501 -0.604576
H42   H     H_    0.047041 0.403152 0.661947 0.311884
N17   N     N_2   0.317325 0.382595 0.557140 -0.498908
H43   H     H_    0.186782 0.375179 0.570275 0.258871
C93   C     C_3   0.346929 0.353886 0.515240 -0.475186
H44   H     H_    0.362598 0.316126 0.517535 0.186794
H45   H     H_    0.477934 0.365616 0.499807 0.174581
H46   H     H_    0.220436 0.357342 0.494904 0.189587
O36   O     O_3   0.262915 0.108535 0.824860 -0.582158
H47   H     H_    0.287374 0.130117 0.804866 0.309858
O37   O     O_3   0.259061 0.048228 0.878486 -0.595769
H48   H     H_    0.309083 0.019198 0.886669 0.281357
N18   N     N_2   0.849368 0.122397 0.947852 -0.471205
H49   H     H_    0.982338 0.132080 0.937344 0.274064
C94   C     C_3   0.796909 0.150676 0.988749 -0.488484
H50   H     H_    0.773486 0.187982 0.985752 0.188966
H51   H     H_    0.915370 0.149613 0.011780 0.198858
H52   H     H_    0.663407 0.136697 0.001459 0.174251
N19   N     N_2   0.347468 0.430165 0.374015 -0.513040
H53   H     H_    0.207332 0.418858 0.367619 0.249277
C95   C     C_3   0.398280 0.471869 0.357384 -0.457435
H54   H     H_    0.419915 0.462685 0.322386 0.199260
H55   H     H_    0.532607 0.488325 0.372552 0.187572
H56   H     H_    0.280010 0.498084 0.364353 0.184628
N20   N     N_2   0.334583 0.355018 0.301043 -0.507122
H57   H     H_    0.196229 0.362550 0.312249 0.262019
C96   C     C_3   0.382000 0.370840 0.261930 -0.469411
H58   H     H_    0.305980 0.404419 0.261044 0.188109
H59   H     H_    0.333517 0.343702 0.234457 0.223028
H60   H     H_    0.540168 0.376604 0.258645 0.190098
N21   N     N_2   0.943090 0.293312 0.349060 -0.518590
H61   H     H_    0.012681 0.286989 0.320026 0.301141
C97   C     C_3   0.900295 0.251148 0.365591 -0.487786
H62   H     H_    0.031991 0.229015 0.363648 0.206206
H63   H     H_    0.783880 0.230261 0.346714 0.197023
H64   H     H_    0.854662 0.260697 0.399508 0.197683
O38   O     O_3   0.212852 0.132700 0.095514 -0.653087
H65   H     H_    0.242180 0.129549 0.064780 0.287932
O39   O     O_3   0.813467 0.778460 0.858533 -0.633611
H66   H     H_    0.873300 0.750251 0.840760 0.309637
N22   N     N_2   0.778661 0.852305 0.927464 -0.517122
H67   H     H_    0.782726 0.820720 0.938003 0.282941
C98   C     C_3   0.584106 0.864760 0.917781 -0.413585
H68   H     H_    0.524369 0.838076 0.891172 0.216790
H69   H     H_    0.582443 0.900150 0.908956 0.184137
H70   H     H_    0.490258 0.865943 0.946241 0.184119

loop_
_geom_bond_atom_site_label_1
_geom_bond_atom_site_label_2
_ccdc_geom_bond_type
C22   C27   A    
N14   C90   S    
C53   C54   A    
C19   N5    A    
N17   H43   S    
C95   H55   S    
C41   C42   A    
C63   H14   S    
C16   H4    S    
C60   H13   S    
C1    O6    A    
C14   N22   S    
O38   H65   S    
C47   C50   A    
N22   C98   S    
C47   C48   A    
C77   N11   A    
C31   N6    A    
C66   C67   A    
O20   C85   A    
N1    N2    A    
C95   H54   S    
N12   C78   A    
C94   H51   S    
C72   N20   S    
N7    C70   S    
O20   V3    S    
O32   H27   S    
C16   C17   A    
C17   H5    S    
C79   C84   A    
C33   O31   S    
C6    H1    S    
C52   C57   A    
O5    C3    A    
N4    C12   A    
O34   H33   S    
C96   H59   S    
C91   H36   S    
C89   H24   S    
O21   V3    S    
C30   O30   S    
C72   C73   A    
C59   C64   A    
C92   H39   S    
C98   H70   S    
C15   C16   A    
N5    C20   A    
C13   C18   A    
C43   O33   S    
C75   H16   S    
N22   H67   S    
O19   C86   A    
C61   C62   A    
O26   V4    S    
C90   H29   S    
C85   O24   A    
C45   C49   A    
C90   H31   S    
C65   C70   A    
C33   C38   A    
N18   H49   S    
C19   O11   S    
C94   H52   S    
C1    C61   S    
C3    C41   S    
O25   V4    S    
C9    H3    S    
O37   H48   S    
O1    V2    S    
O7    V1    S    
O23   V3    S    
C40   C41   A    
N15   C91   S    
C35   C36   A    
N1    C12   A    
N20   H57   S    
O1    C2    A    
O9    C4    A    
C24   H6    S    
C39   C44   A    
N13   C89   S    
C19   C23   A    
C29   H8    S    
O8    V2    S    
C80   O38   S    
C81   C85   S    
C20   O12   S    
C63   C64   A    
C97   H62   S    
C31   O13   S    
C91   H35   S    
N16   C92   S    
C37   O32   S    
O21   C88   A    
C26   C31   A    
C94   H50   S    
O23   C87   A    
C68   N18   S    
C29   C30   A    
C89   H26   S    
C56   N16   S    
C14   C15   A    
C43   C44   A    
C35   C88   S    
C42   H11   S    
C65   O36   S    
C57   N8    A    
O4    C2    A    
C54   C58   A    
N19   H53   S    
O36   H47   S    
C11   C18   S    
C28   C29   A    
C51   C52   A    
C48   C49   A    
C57   O17   S    
C68   C69   A    
C77   C84   S    
O35   H42   S    
C34   C35   A    
O2    C1    A    
C36   C37   A    
C79   C80   A    
N3    N4    A    
O24   V4    S    
C83   H19   S    
C15   C87   S    
N21   C97   S    
C25   C26   A    
C65   C66   A    
C7    C8    A    
C60   C61   A    
C5    C6    A    
N9    N10   A    
C74   N21   S    
C69   C70   A    
C62   N17   S    
C24   C25   A    
C50   C51   A    
C46   O16   S    
C98   H69   S    
C13   O39   S    
O30   H21   S    
V3    O28   S    
O3    C4    A    
C42   C43   A    
N8    C64   S    
N15   H34   S    
N20   C96   S    
C27   C28   A    
O6    V2    S    
O9    V2    S    
C21   C22   A    
N16   H38   S    
N14   H28   S    
N7    C46   A    
C5    O29   S    
C20   C21   A    
C82   H18   S    
O2    V1    S    
C50   H12   S    
C62   C63   A    
C39   H10   S    
O33   H32   S    
C52   C53   A    
C83   C84   A    
O26   C87   A    
C49   C56   A    
C55   C56   A    
N6    C32   A    
C11   N3    A    
N17   C93   S    
C69   H15   S    
C96   H58   S    
C40   N14   S    
C2    C76   S    
C37   C38   A    
C22   C23   A    
O27   V4    S    
C46   C47   A    
C82   C83   A    
C96   H60   S    
O22   V3    S    
O5    V1    S    
O19   V4    S    
O8    C3    A    
C92   H41   S    
C71   C72   A    
C79   H17   S    
O22   C86   A    
C73   C78   S    
C66   O37   S    
C28   C32   A    
C23   C30   A    
C59   C60   A    
C97   H63   S    
O25   V3    S    
C5    C10   A    
C13   C14   A    
C8    C9    A    
C93   H46   S    
C80   C81   A    
O4    V1    S    
C17   C18   A    
C51   O34   S    
V1    O10   S    
C74   C75   A    
C93   H44   S    
N5    C44   S    
C45   N7    A    
N21   H61   S    
N13   H23   S    
N6    C38   S    
C45   O15   S    
C95   H56   S    
C26   C27   A    
V2    O10   S    
C32   O14   S    
C59   O35   S    
C90   H30   S    
N8    C58   A    
C92   H40   S    
C73   C74   A    
C81   C82   A    
C36   N13   S    
C6    C7    A    
O27   C88   A    
C9    C10   A    
C4    C10   S    
O7    V2    S    
C98   H68   S    
C21   C24   A    
C75   C76   A    
C91   H37   S    
C34   H9    S    
C25   H7    S    
C33   C34   A    
C71   N19   S    
N9    C78   A    
O31   H22   S    
C54   C55   A    
N18   C94   S    
O39   H66   S    
C67   C68   A    
N2    C11   A    
O3    V1    S    
V4    O28   S    
C39   C40   A    
O29   H20   S    
C55   N15   S    
N10   C77   A    
C8    H2    S    
N19   C95   S    
C58   O18   S    
C97   H64   S    
C71   C76   A    
C48   C53   A    
C67   C86   S    
C89   H25   S    
N11   N12   A    
C7    C12   S    
C93   H45   S    
