data_mof_unit_32734.cif
_audit_creation_date              2012-12-11T16:25:05-0500
_audit_creation_method            fapswitch 2.2
_symmetry_space_group_name_H-M    P1
_symmetry_Int_Tables_number       1
_space_group_crystal_system       triclinic
_cell_length_a                    22.436196
_cell_length_b                    30.45954
_cell_length_c                    18.939713
_cell_angle_alpha                 89.798005
_cell_angle_beta                  126.797269
_cell_angle_gamma                 90.231233
_cell_volume                      10364.4040549

loop_
_atom_site_label
_atom_site_type_symbol
_atom_type_description
_atom_site_fract_x
_atom_site_fract_y
_atom_site_fract_z
_atom_type_partial_charge
C1    C     C_R   0.952315 0.620274 0.071880 -0.161296
C2    C     C_R   0.097025 0.461197 0.431643 -0.263182
C3    C     C_R   0.383624 0.464120 0.338942 -0.150388
C4    C     C_R   0.861431 0.038632 0.410385 -0.121592
C5    C     C_R   0.118394 0.962709 0.652525 -0.153731
C6    C     C_R   0.133235 0.031853 0.724720 -0.154399
C7    C     C_R   0.816860 0.975463 0.444814 -0.122624
C8    C     C_R   0.338745 0.499778 0.287680 0.192672
C9    C     C_R   0.693410 0.505424 0.615239 0.208397
C10   C     C_R   0.809342 0.004882 0.382665 0.204485
C11   C     C_R   0.163202 0.998386 0.703657 0.170585
C12   C     C_R   0.491129 0.501521 0.368036 0.134519
C13   C     C_R   0.587965 0.041519 0.715412 -0.254881
C14   C     C_R   0.568542 0.510228 0.440159 0.129209
C15   C     C_R   0.935138 0.008221 0.557052 0.127504
C16   C     C_R   0.012136 0.998700 0.628510 0.136468
C17   C     C_R   0.796121 0.537338 0.761139 0.535241
C18   C     C_R   0.212482 0.463887 0.221338 0.506389
C19   C     C_R   0.212565 0.536400 0.215482 0.525280
C20   C     C_R   0.796085 0.464948 0.756413 0.495289
C21   C     C_R   0.288490 0.036356 0.777049 0.529510
C22   C     C_R   0.704783 0.965012 0.243077 0.508475
C23   C     C_R   0.705165 0.037209 0.237758 0.541715
C24   C     C_R   0.589440 0.961015 0.427419 -0.265667
C25   C     C_R   0.289024 0.963788 0.771283 0.489478
C26   C     C_R   0.038337 0.463747 0.241173 -0.166873
C27   C     C_R   0.010568 0.537306 0.800332 -0.156065
C28   C     C_R   0.006821 0.464259 0.794896 -0.162435
C29   C     C_R   0.037829 0.536736 0.240236 -0.133841
C30   C     C_R   0.533394 0.963676 0.238443 -0.165763
C31   C     C_R   0.510410 0.037328 0.800219 -0.128799
C32   C     C_R   0.505592 0.964281 0.793570 -0.160647
C33   C     C_R   0.532012 0.036692 0.237122 -0.144154
C34   C     C_R   0.899972 0.644356 0.996668 0.132943
C35   C     C_R   0.105760 0.542026 0.656180 0.138376
C36   C     C_R   0.131403 0.373180 0.002734 0.151363
C37   C     C_R   0.097793 0.645473 0.002939 0.131225
C38   C     C_R   0.856164 0.385265 0.996443 0.136662
C39   C     C_R   0.401081 0.144575 0.997233 0.119199
C40   C     C_R   0.637317 0.878205 0.004006 0.147903
C41   C     C_R   0.598631 0.145273 0.003142 0.127666
C42   C     C_R   0.358530 0.882573 0.997359 0.142823
C43   C     C_R   0.755185 0.501946 0.709044 -0.280916
C44   C     C_R   0.258927 0.500053 0.247393 -0.258457
C45   C     C_R   0.242082 0.999736 0.740334 -0.264105
C46   C     C_R   0.112046 0.461323 0.514430 0.144883
C47   C     C_R   0.746350 0.001906 0.289480 -0.278470
C48   C     C_R   0.050186 0.500374 0.291494 0.087703
C49   C     C_R   0.032232 0.501101 0.776809 0.099200
C50   C     C_R   0.542593 0.000277 0.287443 0.091723
C51   C     C_R   0.531701 0.001093 0.776356 0.086372
C52   C     C_R   0.091822 0.461945 0.718885 -0.276810
C53   C     C_R   0.093728 0.540932 0.428456 -0.263063
C54   C     C_R   0.591739 0.961827 0.719339 -0.274670
C55   C     C_R   0.586835 0.040765 0.424703 -0.265572
C56   C     C_R   0.073097 0.501598 0.738735 0.114913
C57   C     C_R   0.605657 0.041881 0.656566 0.138277
C58   C     C_R   0.082267 0.500804 0.385602 0.108510
C59   C     C_R   0.573253 0.001521 0.739270 0.116981
C60   C     C_R   0.573963 0.000655 0.381247 0.109822
C61   C     C_3   0.683752 0.340817 0.769984 -0.231849
C62   C     C_3   0.271919 0.691245 0.226669 -0.222449
C63   C     C_3   0.299028 0.323315 0.226392 -0.235195
C64   C     C_3   0.732824 0.691450 0.770286 -0.231791
C65   C     C_3   0.183438 0.840802 0.770568 -0.242556
C66   C     C_3   0.766950 0.192584 0.228153 -0.226877
C67   C     C_3   0.806021 0.829331 0.228243 -0.225869
C68   C     C_R   0.606948 0.961121 0.511390 0.145081
C69   C     C_3   0.225227 0.189114 0.773080 -0.223661
C70   C     C_3   0.672665 0.372241 0.114019 -0.247792
C71   C     C_3   0.976921 0.805779 0.884049 -0.246005
C72   C     C_3   0.284503 0.390234 0.872244 -0.272375
C73   C     C_3   0.999548 0.816834 0.104815 -0.278804
C74   C     C_3   0.175277 0.872096 0.115987 -0.244672
C75   C     C_3   0.476519 0.304888 0.880614 -0.244323
C76   C     C_3   0.786864 0.889970 0.867692 -0.273137
C77   C     C_3   0.498215 0.317052 0.102421 -0.280792
C78   C     C_3   0.833504 0.589559 0.708916 -0.289190
C79   C     C_R   0.112710 0.501838 0.625035 0.028343
C80   C     C_3   0.189843 0.409529 0.286417 -0.298447
C81   C     C_3   0.212700 0.590653 0.296786 -0.293097
C82   C     C_3   0.841039 0.405441 0.728059 -0.278794
C83   C     C_3   0.235426 0.084700 0.662659 -0.294056
C84   C     C_3   0.670485 0.900849 0.274130 -0.303436
C85   C     C_3   0.680677 0.094266 0.293863 -0.318755
C86   C     C_3   0.325834 0.909257 0.721355 -0.247519
C87   C     C_R   0.113845 0.501637 0.551987 0.026606
C88   C     C_R   0.611429 0.001661 0.624485 0.027811
C89   C     C_R   0.064993 0.388786 0.928115 -0.156042
C90   C     C_R   0.610352 0.001443 0.549930 0.027033
C91   C     C_R   0.110036 0.461715 0.660394 0.136198
C92   C     C_R   0.108458 0.541634 0.510924 0.142576
C93   C     C_R   0.609162 0.961540 0.660169 0.134659
C94   C     C_R   0.604053 0.041447 0.508389 0.144796
C95   C     C_R   0.108962 0.581799 0.621179 -0.200516
C96   C     C_R   0.117986 0.421714 0.556162 -0.207266
C97   C     C_R   0.608449 0.081646 0.621238 -0.200537
C98   C     C_R   0.613895 0.921497 0.553619 -0.208549
C99   C     C_R   0.110348 0.581601 0.548663 -0.204115
C100  C     C_R   0.046143 0.621146 0.928260 -0.186853
C101  C     C_R   0.117203 0.421917 0.629214 -0.207672
C102  C     C_R   0.607677 0.081426 0.547201 -0.204375
C103  C     C_R   0.615209 0.921712 0.628123 -0.206555
C104  C     C_R   0.689225 0.314370 0.921491 -0.339217
C105  C     C_R   0.206552 0.751070 0.078762 -0.358037
C106  C     C_R   0.299508 0.304713 0.076961 -0.360992
C107  C     C_R   0.791014 0.749561 0.919442 -0.356517
C108  C     C_R   0.188915 0.813814 0.921838 -0.339406
C109  C     C_R   0.706184 0.251543 0.079008 -0.355469
C110  C     C_R   0.802911 0.807823 0.077092 -0.355767
C111  C     C_R   0.925887 0.397660 0.072069 -0.139122
C112  C     C_R   0.289267 0.248342 0.921071 -0.362490
C113  C     C_R   0.741381 0.337850 0.918674 0.599622
C114  C     C_R   0.187245 0.707511 0.079500 0.601311
C115  C     C_R   0.244317 0.324971 0.078105 0.605304
C116  C     C_R   0.811006 0.706388 0.918431 0.599651
C117  C     C_R   0.241983 0.836221 0.919204 0.601667
C118  C     C_R   0.687065 0.207998 0.080295 0.601697
C119  C     C_R   0.749679 0.829870 0.079520 0.601184
C120  C     C_R   0.309990 0.205350 0.920302 0.599725
C121  C     C_R   0.794446 0.364215 0.991667 -0.099847
C122  C     C_R   0.452685 0.120296 0.072192 -0.166360
C123  C     C_R   0.116307 0.692238 0.008625 -0.094063
C124  C     C_R   0.191510 0.351689 0.006108 -0.079112
C125  C     C_R   0.880948 0.690887 0.991056 -0.101808
C126  C     C_R   0.296667 0.861770 0.992829 -0.099388
C127  C     C_R   0.616855 0.192168 0.008675 -0.091968
C128  C     C_R   0.697397 0.856688 0.007462 -0.082821
C129  C     C_R   0.381211 0.190810 0.991667 -0.101205
C130  C     C_R   0.788884 0.370001 0.061091 -0.397941
C131  C     C_R   0.063507 0.721724 0.944174 -0.425791
C132  C     C_R   0.199626 0.361238 0.939637 -0.428524
C133  C     C_R   0.568370 0.890925 0.928968 -0.148690
C134  C     C_R   0.932644 0.720086 0.057445 -0.416376
C135  C     C_R   0.291487 0.868018 0.062482 -0.397109
C136  C     C_R   0.564236 0.221335 0.943088 -0.426566
C137  C     C_R   0.704211 0.864637 0.939516 -0.428157
C138  C     C_R   0.432859 0.220485 0.056805 -0.417998
C139  C     C_R   0.853496 0.398567 0.924584 -0.094301
C140  C     C_R   0.117655 0.620391 0.074366 -0.004107
C141  C     C_R   0.137901 0.389960 0.074519 -0.118174
C142  C     C_R   0.880399 0.619532 0.925001 -0.040938
C143  C     C_R   0.355773 0.895850 0.925525 -0.116746
C144  C     C_R   0.546302 0.121099 0.928353 -0.181097
C145  C     C_R   0.618966 0.119969 0.074657 -0.026365
C146  C     C_R   0.643371 0.894884 0.075620 -0.105181
C147  C     C_R   0.382019 0.120105 0.925537 0.003413
C148  C     C_R   0.735082 0.347458 0.062176 0.617586
C149  C     C_R   0.082449 0.765769 0.945571 0.618738
C150  C     C_R   0.256668 0.342139 0.940640 0.621249
C151  C     C_R   0.912993 0.763596 0.056543 0.622259
C152  C     C_R   0.236742 0.846617 0.063322 0.616417
C153  C     C_R   0.582801 0.265416 0.944057 0.619037
C154  C     C_R   0.759491 0.843769 0.939208 0.622294
C155  C     C_R   0.427299 0.896280 0.072523 -0.141931
C156  C     C_R   0.412113 0.263731 0.055896 0.623560
C157  C     C_R   0.687992 0.317275 0.994231 -0.028349
C158  C     C_R   0.156058 0.779539 0.010352 -0.036859
C159  C     C_R   0.303780 0.311640 0.007031 -0.012879
C160  C     C_R   0.839942 0.777411 0.990025 -0.028513
C161  C     C_R   0.188217 0.817004 0.994892 -0.029367
C162  C     C_R   0.655986 0.279593 0.009461 -0.038777
C163  C     C_R   0.805921 0.813151 0.005847 -0.015864
C164  C     C_R   0.338338 0.276707 0.990457 -0.022815
C165  C     C_R   0.446015 0.535586 0.311222 -0.221910
C166  C     C_R   0.087218 0.541624 0.714275 -0.255323
C167  C     C_R   0.622410 0.478065 0.465765 -0.227333
C168  C     C_R   0.581417 0.542794 0.499839 -0.202399
C169  C     C_R   0.458972 0.464650 0.377383 -0.205812
C170  C     C_R   0.923260 0.040832 0.497548 -0.205665
C171  C     C_R   0.043490 0.962516 0.616473 -0.205806
C172  C     C_R   0.057721 0.032256 0.686478 -0.212222
C173  C     C_R   0.880213 0.976759 0.531758 -0.223444
C174  C     C_R   0.369928 0.534474 0.270400 -0.123457
C175  C     C_R   0.685295 0.475972 0.553102 -0.132920
C176  C     C_R   0.642640 0.539857 0.587218 -0.116714
H1    H     H_    0.987255 0.632227 0.138971 0.100675
H2    H     H_    0.008389 0.710318 0.890885 0.167229
H3    H     H_    0.000636 0.824176 0.946218 0.112071
H4    H     H_    0.944181 0.777029 0.879888 0.136425
H5    H     H_    0.937797 0.828077 0.828594 0.177895
H6    H     H_    0.339769 0.396721 0.936020 0.131210
H7    H     H_    0.243511 0.415473 0.859752 0.151778
H8    H     H_    0.291339 0.393274 0.819070 0.177288
H9    H     H_    0.960291 0.838361 0.047406 0.131975
H10   H     H_    0.032784 0.796491 0.091227 0.133532
H11   H     H_    0.038923 0.838455 0.161471 0.177160
H12   H     H_    0.124147 0.852249 0.071095 0.127988
H13   H     H_    0.160545 0.382760 0.885513 0.166860
H14   H     H_    0.169851 0.904846 0.086306 0.136192
H15   H     H_    0.180419 0.877618 0.177288 0.169742
H16   H     H_    0.499378 0.322992 0.942887 0.111473
H17   H     H_    0.443457 0.276018 0.875208 0.136408
H18   H     H_    0.437906 0.327359 0.825238 0.178224
H19   H     H_    0.842446 0.896645 0.930914 0.129843
H20   H     H_    0.746440 0.915799 0.854454 0.152909
H21   H     H_    0.793281 0.891717 0.814047 0.176559
H22   H     H_    0.458730 0.338081 0.044192 0.133015
H23   H     H_    0.531728 0.296441 0.089642 0.134019
H24   H     H_    0.987603 0.708965 0.111550 0.171811
H25   H     H_    0.537298 0.339156 0.158278 0.176223
H26   H     H_    0.832049 0.563666 0.666450 0.147556
H27   H     H_    0.891016 0.594689 0.769107 0.142778
H28   H     H_    0.815359 0.620711 0.670992 0.168055
H29   H     H_    0.132752 0.401588 0.227331 0.154054
H30   H     H_    0.188686 0.434426 0.328479 0.151775
H31   H     H_    0.213608 0.378996 0.325905 0.171931
H32   H     H_    0.233179 0.566989 0.351865 0.150811
H33   H     H_    0.151161 0.593625 0.255984 0.129049
H34   H     H_    0.236580 0.623272 0.326513 0.161191
H35   H     H_    0.331206 0.888725 0.117864 0.179979
H36   H     H_    0.886786 0.396377 0.796898 0.163784
H37   H     H_    0.860740 0.428157 0.699839 0.133823
H38   H     H_    0.822714 0.374808 0.688708 0.172808
H39   H     H_    0.178348 0.070585 0.621750 0.161147
H40   H     H_    0.269825 0.069929 0.644362 0.141643
H41   H     H_    0.230521 0.120240 0.647251 0.158788
H42   H     H_    0.616703 0.899378 0.207494 0.158886
H43   H     H_    0.664232 0.916058 0.322442 0.134016
H44   H     H_    0.688421 0.866455 0.295696 0.179864
H45   H     H_    0.704413 0.125790 0.329429 0.171148
H46   H     H_    0.509496 0.209698 0.889316 0.167453
H47   H     H_    0.684291 0.070448 0.341123 0.151937
H48   H     H_    0.622129 0.100653 0.237149 0.139076
H49   H     H_    0.376052 0.898472 0.786346 0.151368
H50   H     H_    0.340363 0.934877 0.691867 0.141675
H51   H     H_    0.304487 0.880351 0.677007 0.168552
H52   H     H_    0.665148 0.886040 0.885143 0.166636
H53   H     H_    0.488489 0.209846 0.110064 0.172064
H54   H     H_    0.470483 0.564491 0.304384 0.133093
H55   H     H_    0.612586 0.452539 0.420185 0.129257
H56   H     H_    0.539547 0.567322 0.481585 0.131925
H57   H     H_    0.039022 0.377707 0.861692 0.097057
H58   H     H_    0.493407 0.438540 0.422930 0.132607
H59   H     H_    0.966135 0.064779 0.515740 0.127858
H60   H     H_    0.008502 0.936732 0.570307 0.132506
H61   H     H_    0.033808 0.060555 0.695462 0.132632
H62   H     H_    0.889356 0.951184 0.577167 0.128644
H63   H     H_    0.336182 0.561446 0.227598 0.173932
H64   H     H_    0.725662 0.450533 0.571846 0.160309
H65   H     H_    0.647739 0.563069 0.633748 0.157037
H66   H     H_    0.362724 0.436863 0.354652 0.182242
H67   H     H_    0.856855 0.061782 0.363866 0.162055
H68   H     H_    0.010384 0.633601 0.861567 0.097203
H69   H     H_    0.139268 0.936180 0.635422 0.178547
H70   H     H_    0.167298 0.058657 0.767895 0.177725
H71   H     H_    0.775603 0.950582 0.426285 0.149996
H72   H     H_    0.806519 0.396545 0.856627 0.192920
H73   H     H_    0.143141 0.633125 0.139590 0.145500
H74   H     H_    0.179931 0.381494 0.141327 0.210031
H75   H     H_    0.852842 0.631567 0.858765 0.165272
H76   H     H_    0.310479 0.890915 0.858258 0.206369
H77   H     H_    0.646229 0.132195 0.140500 0.161425
H78   H     H_    0.690494 0.891778 0.143038 0.198380
H79   H     H_    0.946545 0.392936 0.139746 0.107681
H80   H     H_    0.356573 0.132943 0.860147 0.156466
H81   H     H_    0.051450 0.430118 0.263365 0.083983
H82   H     H_    0.019895 0.571450 0.794848 0.100892
H83   H     H_    0.007987 0.431106 0.777098 0.089097
H84   H     H_    0.050355 0.570601 0.260821 0.080498
H85   H     H_    0.543638 0.929955 0.259773 0.082200
H86   H     H_    0.520062 0.071462 0.795119 0.099779
H87   H     H_    0.505219 0.931232 0.774093 0.090914
H88   H     H_    0.540491 0.070678 0.256541 0.083150
H89   H     H_    0.085913 0.430913 0.742071 0.121325
H90   H     H_    0.487308 0.132106 0.139385 0.100517
H91   H     H_    0.085488 0.571861 0.395644 0.117769
H92   H     H_    0.585634 0.930822 0.742433 0.120860
H93   H     H_    0.578445 0.071727 0.391954 0.116874
H94   H     H_    0.077101 0.572588 0.733070 0.121184
H95   H     H_    0.091493 0.429983 0.401229 0.117655
H96   H     H_    0.578381 0.072502 0.734712 0.121176
H97   H     H_    0.583071 0.929786 0.396659 0.116559
H98   H     H_    0.105022 0.612901 0.645727 0.134835
H99   H     H_    0.118199 0.390544 0.528910 0.133469
H100  H     H_    0.605496 0.112763 0.646561 0.135075
H101  H     H_    0.543498 0.879463 0.863074 0.098075
H102  H     H_    0.613040 0.890324 0.525624 0.133518
H103  H     H_    0.107632 0.612568 0.518510 0.132455
H104  H     H_    0.116738 0.390908 0.657128 0.152009
H105  H     H_    0.604437 0.112392 0.516725 0.132317
H106  H     H_    0.615145 0.890710 0.656346 0.152212
H107  H     H_    0.655559 0.289717 0.871542 0.183726
H108  H     H_    0.263922 0.761262 0.125994 0.183093
H109  H     H_    0.333752 0.279632 0.125552 0.181279
H110  H     H_    0.733932 0.759650 0.870387 0.184485
H111  H     H_    0.153983 0.789619 0.871363 0.184396
H112  H     H_    0.510090 0.133587 0.861694 0.105378
H113  H     H_    0.763230 0.262043 0.127283 0.184903
H114  H     H_    0.836480 0.782722 0.125977 0.182653
H115  H     H_    0.231609 0.257839 0.873666 0.180616
H116  H     H_    0.664201 0.374235 0.770987 0.131625
H117  H     H_    0.638882 0.316201 0.746496 0.145216
H118  H     H_    0.696219 0.341577 0.721468 0.196915
H119  H     H_    0.228195 0.700462 0.234572 0.111230
H120  H     H_    0.312162 0.718580 0.247701 0.141870
H121  H     H_    0.303418 0.663296 0.271723 0.198032
H122  H     H_    0.321293 0.356633 0.229576 0.146092
H123  H     H_    0.448287 0.891278 0.140190 0.104975
H124  H     H_    0.342564 0.297992 0.249353 0.146755
H125  H     H_    0.284396 0.323111 0.272912 0.182221
H126  H     H_    0.779476 0.701696 0.768134 0.114782
H127  H     H_    0.691696 0.718390 0.746462 0.145079
H128  H     H_    0.704070 0.663579 0.723883 0.195797
H129  H     H_    0.167314 0.874913 0.773687 0.139675
H130  H     H_    0.136442 0.817768 0.746656 0.146189
H131  H     H_    0.194950 0.840787 0.721193 0.195176
H132  H     H_    0.720671 0.201692 0.231591 0.113869
H133  H     H_    0.807147 0.220147 0.251322 0.144898
H134  H     H_    0.827767 0.391112 0.116173 0.180149
H135  H     H_    0.797047 0.164756 0.274303 0.196985
H136  H     H_    0.829337 0.862131 0.230518 0.137901
H137  H     H_    0.848408 0.803298 0.250738 0.145838
H138  H     H_    0.792364 0.830171 0.275652 0.187068
H139  H     H_    0.268398 0.198856 0.764393 0.114183
H140  H     H_    0.184905 0.216166 0.752750 0.137430
H141  H     H_    0.193413 0.161271 0.727980 0.192316
H142  H     H_    0.621778 0.352357 0.068253 0.128158
H143  H     H_    0.667332 0.405203 0.085105 0.136927
H144  H     H_    0.677051 0.377248 0.174965 0.169387
N1    N     N_R   0.963040 0.582050 0.045950 -0.047020
N2    N     N_R   0.082060 0.582000 0.045840 -0.059299
N3    N     N_R   0.082060 0.418000 0.045840 -0.054449
N4    N     N_R   0.917940 0.582000 0.954160 -0.055442
N5    N     N_R   0.417940 0.918000 0.954160 -0.056937
N6    N     N_R   0.582060 0.082000 0.045840 -0.055818
N7    N     N_R   0.582060 0.918000 0.045840 -0.054571
N8    N     N_R   0.417940 0.082000 0.954160 -0.057949
N9    N     N_R   0.858490 0.522630 0.835610 -0.123794
N10   N     N_R   0.141510 0.477370 0.164390 -0.129652
N11   N     N_R   0.141510 0.522630 0.164390 -0.129538
N12   N     N_R   0.036960 0.417950 0.954050 -0.042537
N13   N     N_R   0.858490 0.477370 0.835610 -0.132224
N14   N     N_R   0.358490 0.022630 0.835610 -0.121430
N15   N     N_R   0.641510 0.977370 0.164390 -0.132534
N16   N     N_R   0.641510 0.022630 0.164390 -0.124796
N17   N     N_R   0.358490 0.977370 0.835610 -0.133833
N18   N     N_R   0.022480 0.477420 0.164500 -0.038972
N19   N     N_R   0.977520 0.522580 0.835500 -0.048601
N20   N     N_R   0.977520 0.477420 0.835500 -0.047706
N21   N     N_R   0.022480 0.522580 0.164500 -0.038261
N22   N     N_R   0.522480 0.977420 0.164500 -0.043403
N23   N     N_R   0.036960 0.582050 0.954050 -0.046906
N24   N     N_R   0.477520 0.022580 0.835500 -0.042926
N25   N     N_R   0.477520 0.977420 0.835500 -0.047742
N26   N     N_R   0.522480 0.022580 0.164500 -0.041299
N27   N     N_R   0.963040 0.417950 0.045950 -0.044024
N28   N     N_R   0.463040 0.082050 0.045950 -0.050285
N29   N     N_R   0.536960 0.917950 0.954050 -0.042298
N30   N     N_R   0.536960 0.082050 0.954050 -0.045374
N31   N     N_R   0.463040 0.917950 0.045950 -0.045436
N32   N     N_R   0.917940 0.418000 0.954160 -0.056632
Ni1   Ni    Ni4+2 0.051820 0.551870 0.104030 0.193920
Ni2   Ni    Ni4+2 0.948180 0.448130 0.895970 0.201214
Ni3   Ni    Ni4+2 0.948180 0.551870 0.895970 0.198496
Ni4   Ni    Ni4+2 0.051820 0.448130 0.104030 0.200811
Ni5   Ni    Ni4+2 0.551820 0.051870 0.104030 0.200240
Ni6   Ni    Ni4+2 0.448180 0.948130 0.895970 0.198273
Ni7   Ni    Ni4+2 0.448180 0.051870 0.895970 0.213667
Ni8   Ni    Ni4+2 0.551820 0.948130 0.104030 0.201900
O1    O     O_3   0.749238 0.328830 0.852957 -0.622363
O2    O     O_3   0.033215 0.793364 0.876244 -0.617646
O3    O     O_3   0.259041 0.347477 0.869779 -0.623222
O4    O     O_3   0.961733 0.790350 0.127512 -0.609390
O5    O     O_3   0.239310 0.849809 0.137938 -0.613933
O6    O     O_3   0.533639 0.292726 0.874105 -0.617384
O7    O     O_3   0.760771 0.847728 0.867316 -0.624002
O8    O     O_3   0.460631 0.290980 0.125999 -0.608830
O9    O     O_3   0.785254 0.580136 0.731375 -0.631923
O10   O     O_3   0.235488 0.423388 0.262500 -0.655014
O11   O     O_3   0.235764 0.578818 0.244657 -0.618286
O12   O     O_3   0.241048 0.677831 0.139731 -0.608340
O13   O     O_3   0.779920 0.422959 0.721513 -0.635188
O14   O     O_3   0.269007 0.079757 0.753361 -0.628564
O15   O     O_3   0.726209 0.922549 0.274745 -0.633779
O16   O     O_3   0.721409 0.080606 0.263453 -0.626753
O17   O     O_3   0.269691 0.923806 0.727845 -0.652059
O18   O     O_3   0.234303 0.313324 0.141224 -0.624469
O19   O     O_3   0.758236 0.677243 0.855162 -0.612513
O20   O     O_3   0.248338 0.826938 0.852412 -0.623171
O21   O     O_3   0.740671 0.178969 0.142771 -0.611320
O22   O     O_3   0.740278 0.819672 0.143740 -0.623740
O23   O     O_3   0.257126 0.175197 0.860121 -0.606861
O24   O     O_3   0.737150 0.350340 0.136476 -0.614015

loop_
_geom_bond_atom_site_label_1
_geom_bond_atom_site_label_2
_ccdc_geom_bond_type
C36   C89   A    
C81   H33   S    
N25   Ni6   S    
C77   O8    S    
C132  C150  A    
C104  C157  A    
C79   C87   A    
C73   H10   S    
C2    H95   S    
C63   H124  S    
N6    N30   A    
C137  H52   S    
C95   C99   A    
C175  H64   S    
C40   C128  S    
N11   Ni1   S    
C63   O18   S    
C133  H101  S    
C9    C176  A    
C69   H141  S    
C65   H131  S    
C74   H14   S    
C66   H132  S    
C114  O12   S    
C117  C126  A    
C4    H67   S    
C82   H36   S    
C171  H60   S    
C119  C128  A    
C27   N19   A    
C22   C47   A    
C146  H78   S    
C69   H140  S    
C66   H133  S    
C109  C118  A    
N23   Ni3   S    
N17   Ni6   S    
C111  H79   S    
C112  C164  A    
N10   N11   A    
C15   C173  A    
C160  C163  S    
C107  H110  S    
C127  C136  A    
C69   O23   S    
C3    C8    A    
C13   H96   S    
C6    C11   A    
C112  C120  A    
C3    C169  A    
C33   C50   A    
C120  C129  A    
C21   N14   A    
C17   C43   A    
N26   Ni5   S    
C76   H19   S    
C18   C44   A    
C168  H56   S    
C105  C114  A    
C1    N1    A    
C149  O2    S    
C28   H83   S    
C57   C97   A    
C18   O10   S    
C84   H42   S    
C20   N13   A    
C22   N15   A    
N15   Ni8   S    
C131  C149  A    
C14   C168  A    
N24   Ni7   S    
C19   C44   A    
N9    Ni3   S    
C63   H122  S    
C142  H75   S    
C36   C124  S    
N18   Ni4   S    
C6    H70   S    
N29   Ni6   S    
C53   C58   A    
C23   N16   A    
C170  H59   S    
C106  C115  A    
N16   Ni5   S    
N1    Ni1   S    
C18   N10   A    
C174  H63   S    
C136  C153  A    
N14   N17   A    
C26   H81   S    
C34   C125  S    
C134  C151  A    
C20   O13   S    
C22   O15   S    
C85   H48   S    
C68   C98   A    
C38   C121  S    
C42   C126  S    
C70   H144  S    
N15   N16   A    
C46   C96   A    
C94   C102  A    
C61   H118  S    
C146  N7    A    
C52   C91   A    
C157  C162  S    
C85   O16   S    
C80   H30   S    
N7    Ni8   S    
C21   O14   S    
C106  H109  S    
C41   C127  S    
C101  H104  S    
C144  N30   A    
C32   N25   A    
C19   O11   S    
C121  C130  A    
C93   C103  A    
C83   H40   S    
C6    C172  A    
N5    Ni6   S    
C33   H88   S    
C95   H98   S    
C4    C170  A    
N2    Ni1   S    
C116  O19   S    
C76   H21   S    
C104  H107  S    
C8    C174  A    
C13   C57   A    
C135  C152  A    
C7    H71   S    
C112  H115  S    
C89   N12   A    
C124  C132  A    
C70   O24   S    
C31   N24   A    
C84   H44   S    
N27   N32   A    
C37   C123  S    
C99   H103  S    
C154  O7    S    
C139  N32   A    
C100  N23   A    
C55   H93   S    
N27   Ni4   S    
C64   O19   S    
C149  C158  A    
C79   C91   A    
C152  C161  A    
C100  H68   S    
C19   N11   A    
C52   H89   S    
C33   N26   A    
C156  O8    S    
C64   H127  S    
C113  O1    S    
C86   H51   S    
C102  H105  S    
C91   C101  A    
C1    C34   A    
C21   C45   A    
C54   C59   A    
C9    C43   S    
C23   C47   A    
C150  O3    S    
C78   H27   S    
C70   H142  S    
C12   C165  A    
N10   Ni4   S    
C39   C129  S    
C82   O13   S    
C165  C174  A    
C53   H91   S    
C15   C170  A    
C71   H4    S    
C82   H37   S    
C28   C49   A    
C68   C90   A    
C67   H138  S    
N1    N4    A    
C74   O5    S    
C136  H46   S    
N13   Ni2   S    
C114  C123  A    
C83   O14   S    
C116  C125  A    
C118  C127  A    
C25   C45   A    
C42   C143  A    
N31   Ni8   S    
C122  H90   S    
C167  C175  A    
C46   C87   A    
C130  H134  S    
C168  C176  A    
N14   Ni7   S    
C108  C117  A    
C31   C51   A    
C77   H25   S    
C110  C119  A    
C73   H9    S    
C12   C169  A    
N7    N29   A    
N8    Ni7   S    
C30   N22   A    
N18   N21   A    
C61   O1    S    
C108  C161  A    
C40   C146  A    
C50   C60   S    
N4    Ni3   S    
C115  O18   S    
C25   N17   A    
C16   C171  A    
C143  N5    A    
C35   C79   A    
C9    C175  A    
C148  C157  A    
C107  C116  A    
C65   H130  S    
C104  C113  A    
C75   H18   S    
C113  C121  A    
N24   N25   A    
C23   O16   S    
C62   H121  S    
N9    N13   A    
C159  C164  S    
N3    N12   A    
C96   C101  A    
C85   H45   S    
C37   C100  A    
C27   C49   A    
C92   C99   A    
C125  C134  A    
C7    C10   A    
C135  H35   S    
C62   O12   S    
C144  H112  S    
C69   H139  S    
C72   O3    S    
C81   O11   S    
C86   O17   S    
C107  C160  A    
C109  H113  S    
C111  N27   A    
C80   O10   S    
C5    C11   A    
C109  C162  A    
C55   C94   A    
C83   H41   S    
C78   O9    S    
C67   H136  S    
N12   Ni2   S    
C98   C103  A    
C155  H123  S    
C35   C166  A    
C71   H5    S    
C54   C93   A    
C76   H20   S    
C158  C161  S    
C39   C122  A    
C37   C140  A    
N32   Ni2   S    
C38   C139  A    
C148  O24   S    
C98   H102  S    
C103  H106  S    
C97   C102  A    
C66   O21   S    
C26   C48   A    
C81   H34   S    
C30   C50   A    
C55   C60   A    
C141  H74   S    
C145  H77   S    
C122  N28   A    
C84   O15   S    
C139  H72   S    
C73   H11   S    
C131  H2    S    
C90   C94   A    
C74   H12   S    
C143  H76   S    
C64   H126  S    
C119  O22   S    
C78   H26   S    
C41   C144  A    
C150  C159  A    
C25   O17   S    
C54   H92   S    
C3    H66   S    
C32   H87   S    
C36   C141  A    
C32   C51   A    
N19   N20   A    
C62   H119  S    
C120  O23   S    
C17   O9    S    
C85   H47   S    
C72   H8    S    
C147  N8    A    
N3    Ni4   S    
C81   H32   S    
C13   C59   A    
C88   C90   A    
C126  C135  A    
C61   H117  S    
N22   N26   A    
C165  H54   S    
C11   C45   S    
N2    N23   A    
C27   H82   S    
C34   C142  A    
C115  C124  A    
C123  C131  A    
C72   H7    S    
C5    H69   S    
N5    N31   A    
C83   H39   S    
C110  C163  A    
C2    C58   A    
C48   C58   S    
C35   C95   A    
C61   H116  S    
C153  C162  A    
C30   H85   S    
C42   C155  A    
N20   Ni2   S    
C17   N9    A    
C137  C154  A    
C97   H100  S    
N21   Ni1   S    
C24   C68   A    
C41   C145  A    
C141  N3    A    
C56   C166  A    
C73   O4    S    
C14   C167  A    
C132  H13   S    
C152  O5    S    
C106  C159  A    
C133  N29   A    
C64   H128  S    
N22   Ni8   S    
N6    Ni5   S    
C2    C46   A    
C134  H24   S    
C31   H86   S    
C151  O4    S    
C78   H28   S    
C70   H143  S    
N8    N28   A    
C89   H57   S    
C15   C16   S    
C147  H80   S    
C105  H108  S    
C71   H3    S    
C142  N4    A    
C75   O6    S    
C82   H38   S    
C1    H1    S    
C129  C138  A    
C105  C158  A    
C62   H120  S    
C172  H61   S    
C80   H29   S    
C110  H114  S    
N19   Ni3   S    
C166  H94   S    
C76   O7    S    
C24   H97   S    
C10   C47   S    
C29   H84   S    
C169  H58   S    
C29   C48   A    
C130  C148  A    
C67   H137  S    
C154  C163  A    
C71   O2    S    
C173  H62   S    
C74   H15   S    
C140  N2    A    
C128  C137  A    
C84   H43   S    
C28   N20   A    
C16   C172  A    
C24   C60   A    
C53   C92   A    
C5    C171  A    
C145  N6    A    
C77   H23   S    
C65   H129  S    
N28   Ni5   S    
C117  O20   S    
C12   C14   S    
C63   H125  S    
C86   H50   S    
C51   C59   S    
C4    C10   A    
C20   C43   A    
C87   C92   A    
C77   H22   S    
C65   O20   S    
C138  C156  A    
C86   H49   S    
C88   C93   A    
C155  N31   A    
C138  H53   S    
C140  H73   S    
C8    C44   S    
N30   Ni7   S    
C66   H135  S    
C167  H55   S    
C118  O21   S    
C49   C56   S    
C40   C133  A    
C29   N21   A    
C57   C88   A    
C151  C160  A    
C75   H16   S    
C72   H6    S    
C26   N18   A    
C108  H111  S    
C75   H17   S    
C153  O6    S    
C7    C173  A    
C80   H31   S    
C156  C164  A    
C67   O22   S    
C39   C147  A    
C96   H99   S    
C38   C111  A    
C52   C56   A    
C176  H65   S    
