data_mof_unit_13373.cif
_audit_creation_date              2012-12-11T16:10:33-0500
_audit_creation_method            fapswitch 2.2
_symmetry_space_group_name_H-M    P1
_symmetry_Int_Tables_number       1
_space_group_crystal_system       triclinic
_cell_length_a                    26.087657
_cell_length_b                    7.19766
_cell_length_c                    24.003789
_cell_angle_alpha                 90.000019
_cell_angle_beta                  101.014051
_cell_angle_gamma                 89.999971
_cell_volume                      4424.17262877

loop_
_atom_site_label
_atom_site_type_symbol
_atom_type_description
_atom_site_fract_x
_atom_site_fract_y
_atom_site_fract_z
_atom_type_partial_charge
O1    O     O_R   0.442540 0.494320 0.443520 -0.533398
O2    O     O_R   0.557460 0.994320 0.556480 -0.533398
O3    O     O_R   0.546640 0.821130 0.446490 -0.538557
O4    O     O_R   0.453360 0.321130 0.553510 -0.538557
C1    C     C_R   0.561008 0.654567 0.432293 0.693152
C2    C     C_R   0.438992 0.154568 0.567707 0.693154
O5    O     O_R   0.442270 0.823840 0.436770 -0.534994
O6    O     O_R   0.557730 0.323840 0.563230 -0.534994
O7    O     O_R   0.452340 0.997060 0.546690 -0.538001
O8    O     O_R   0.547660 0.497060 0.453310 -0.538001
C3    C     C_R   0.423288 0.656433 0.421421 0.723605
C4    C     C_R   0.576712 0.156433 0.578578 0.723605
O9    O     O_3   0.503430 0.661750 0.536080 -0.379076
O10   O     O_3   0.496570 0.161750 0.463920 -0.379077
V1    V     V_3+5 0.499360 0.935480 0.493310 1.369215
V2    V     V_3+5 0.500640 0.435480 0.506690 1.369216
C5    C     C_3   0.748472 0.944820 0.691141 0.777385
C6    C     C_3   0.251528 0.444820 0.308859 0.777385
C7    C     C_3   0.745630 0.289361 0.718491 0.206337
C8    C     C_3   0.254370 0.789361 0.281509 0.206336
C9    C     C_3   0.787268 0.269363 0.773207 -0.374059
C10   C     C_3   0.212732 0.769364 0.226793 -0.374058
H1    H     H_    0.833190 0.999346 0.726445 0.095884
H2    H     H_    0.166809 0.499345 0.273555 0.095884
H3    H     H_    0.719880 0.404636 0.726432 0.139106
H4    H     H_    0.280120 0.904636 0.273568 0.139107
H5    H     H_    0.826047 0.319922 0.766714 0.245222
H6    H     H_    0.173952 0.819921 0.233286 0.245222
H7    H     H_    0.776480 0.358112 0.807256 0.179402
H8    H     H_    0.223519 0.858112 0.192744 0.179403
C11   C     C_1   0.876604 0.063461 0.878429 -0.152387
C12   C     C_1   0.123396 0.563461 0.121571 -0.152387
C13   C     C_3   0.712104 0.107902 0.705614 0.082267
C14   C     C_3   0.287896 0.607903 0.294386 0.082267
C15   C     C_3   0.798944 0.942094 0.741518 0.193749
C16   C     C_3   0.201056 0.442094 0.258482 0.193749
C17   C     C_3   0.792054 0.066622 0.793084 0.060128
C18   C     C_3   0.207946 0.566622 0.206916 0.060127
C19   C     C_3   0.740075 0.013463 0.810951 -0.352715
C20   C     C_3   0.259925 0.513464 0.189049 -0.352713
C21   C     C_3   0.693292 0.056121 0.761835 -0.458380
C22   C     C_3   0.306708 0.556122 0.238165 -0.458379
C23   C     C_1   0.837965 0.059041 0.840995 0.052163
C24   C     C_1   0.162035 0.559042 0.159005 0.052164
C25   C     C_1   0.663944 0.138541 0.660026 0.010175
C26   C     C_1   0.336056 0.638541 0.339974 0.010176
C27   C     C_1   0.623933 0.151888 0.623583 -0.227166
C28   C     C_1   0.376067 0.651888 0.376416 -0.227167
H9    H     H_    0.666487 0.934530 0.755279 0.202562
H10   H     H_    0.333513 0.434531 0.244721 0.202562
H11   H     H_    0.670383 0.173727 0.774703 0.156619
H12   H     H_    0.329617 0.673727 0.225297 0.156619
H13   H     H_    0.740208 0.863485 0.822073 0.213297
H14   H     H_    0.259792 0.363486 0.177926 0.213296
H15   H     H_    0.735258 0.092658 0.849360 0.156635
H16   H     H_    0.264742 0.592659 0.150640 0.156634
C29   C     C_R   0.125232 0.243945 0.885350 -0.285005
C30   C     C_R   0.874768 0.743945 0.114650 -0.284997
H17   H     H_    0.112039 0.372841 0.900965 0.202421
H18   H     H_    0.887961 0.872842 0.099035 0.202421
C31   C     C_R   0.163700 0.250548 0.851459 0.460916
C32   C     C_R   0.836300 0.750549 0.148541 0.460915
C33   C     C_R   0.177740 0.086313 0.825591 -0.167459
C34   C     C_R   0.822261 0.586313 0.174409 -0.167464
C35   C     C_R   0.160574 0.916072 0.843711 -0.267617
C36   C     C_R   0.839426 0.416072 0.156289 -0.267617
H19   H     H_    0.173405 0.787124 0.827830 0.210439
H20   H     H_    0.826596 0.287124 0.172171 0.210440
C37   C     C_R   0.130062 0.908341 0.885789 0.471187
C38   C     C_R   0.869938 0.408341 0.114210 0.471187
C39   C     C_R   0.106387 0.072637 0.901679 -0.234432
C40   C     C_R   0.893612 0.572637 0.098321 -0.234435
N1    N     N_R   0.239285 0.934360 0.772725 -0.314055
N2    N     N_R   0.760716 0.434359 0.227276 -0.314061
N3    N     N_R   0.273888 0.940350 0.738450 -0.254073
N4    N     N_R   0.726113 0.440350 0.261551 -0.254079
C41   C     C_R   0.284888 0.102307 0.714078 0.522460
C42   C     C_R   0.715114 0.602305 0.285924 0.522466
N5    N     N_R   0.258227 0.257012 0.724200 -0.298505
N6    N     N_R   0.741776 0.757009 0.275804 -0.298505
N7    N     N_R   0.223422 0.250896 0.758232 -0.232498
N8    N     N_R   0.776581 0.750894 0.241771 -0.232503
C43   C     C_R   0.213810 0.090220 0.784122 0.554840
C44   C     C_R   0.786192 0.590219 0.215880 0.554840
C45   C     C_R   0.336059 0.284034 0.653938 -0.192692
C46   C     C_R   0.663943 0.784032 0.346063 -0.192692
H21   H     H_    0.315092 0.408170 0.661731 0.199893
H22   H     H_    0.684909 0.908168 0.338272 0.199893
C47   C     C_R   0.373354 0.298996 0.619261 -0.177939
C48   C     C_R   0.626647 0.798995 0.380740 -0.177940
H23   H     H_    0.379808 0.433372 0.601494 0.152091
H24   H     H_    0.620193 0.933371 0.398507 0.152091
C49   C     C_R   0.400976 0.142140 0.606661 -0.105339
C50   C     C_R   0.599024 0.642139 0.393340 -0.105340
C51   C     C_R   0.390911 0.970461 0.630391 -0.222285
C52   C     C_R   0.609090 0.470461 0.369609 -0.222285
H25   H     H_    0.411185 0.846554 0.620897 0.138245
H26   H     H_    0.588816 0.346554 0.379103 0.138245
C53   C     C_R   0.355064 0.954969 0.667003 0.445166
C54   C     C_R   0.644937 0.454968 0.332998 0.445165
C55   C     C_R   0.325700 0.112435 0.677924 -0.083818
C56   C     C_R   0.674301 0.612434 0.322078 -0.083818
O11   O     O_R   0.952390 0.727960 0.046760 -0.539527
O12   O     O_R   0.047610 0.227960 0.953240 -0.539527
O13   O     O_R   0.057740 0.395520 0.063240 -0.528252
O14   O     O_R   0.942260 0.895520 0.936760 -0.528252
C57   C     C_R   0.076848 0.562755 0.077427 0.695853
C58   C     C_R   0.923152 0.062755 0.922573 0.695851
O15   O     O_R   0.953370 0.398410 0.053530 -0.520880
O16   O     O_R   0.046630 0.898410 0.946470 -0.520880
O17   O     O_R   0.942530 0.225390 0.943510 -0.540767
O18   O     O_R   0.057470 0.725390 0.056490 -0.540767
C59   C     C_R   0.935519 0.566261 0.063423 0.718882
C60   C     C_R   0.064480 0.066261 0.936577 0.718883
O19   O     O_3   0.996600 0.557860 0.963960 -0.370037
O20   O     O_3   0.003400 0.057860 0.036040 -0.370037
V3    V     V_3+5 0.000630 0.284060 0.006690 1.472103
V4    V     V_3+5 0.999370 0.784060 0.993310 1.472104
O21   O     O_3   0.719178 0.776539 0.692152 -0.576538
C61   C     C_3   0.704264 0.678332 0.640292 0.161761
H27   H     H_    0.688283 0.544239 0.650987 0.160876
H28   H     H_    0.736784 0.647012 0.619069 0.189542
C62   C     C_3   0.660168 0.763059 0.598316 -0.398768
H29   H     H_    0.626985 0.785786 0.620456 0.209955
H30   H     H_    0.672981 0.893778 0.580891 0.234451
C63   C     C_3   0.642964 0.631960 0.548633 -0.741723
H31   H     H_    0.662556 0.667774 0.512829 0.216458
H32   H     H_    0.600576 0.648370 0.536025 0.264898
H33   H     H_    0.650803 0.483584 0.559775 0.227394
O22   O     O_3   0.280822 0.276539 0.307848 -0.576538
C64   C     C_3   0.295736 0.178332 0.359708 0.161761
H34   H     H_    0.311717 0.044239 0.349012 0.160876
H35   H     H_    0.263216 0.147013 0.380931 0.189543
C65   C     C_3   0.339832 0.263060 0.401684 -0.398767
H36   H     H_    0.373015 0.285786 0.379544 0.209954
H37   H     H_    0.327019 0.393779 0.419109 0.234451
C66   C     C_3   0.357035 0.131960 0.451367 -0.741724
H38   H     H_    0.337444 0.167775 0.487171 0.216458
H39   H     H_    0.399424 0.148369 0.463975 0.264898
H40   H     H_    0.349197 0.983585 0.440225 0.227394
Cl1   Cl    Cl    0.817685 0.711388 0.764974 -0.680846
Cl2   Cl    Cl    0.182316 0.211388 0.235026 -0.680846
O23   O     O_3   0.188973 0.416712 0.846000 -0.548616
C67   C     C_3   0.238462 0.412753 0.882939 0.084440
H41   H     H_    0.258036 0.274479 0.884086 0.096949
H42   H     H_    0.233463 0.445407 0.926830 0.119945
C68   C     C_3   0.275004 0.554816 0.863352 -0.249762
H43   H     H_    0.279825 0.521696 0.819476 0.237435
H44   H     H_    0.258186 0.695982 0.863019 0.197380
C69   C     C_3   0.328645 0.555236 0.902140 -0.884702
H45   H     H_    0.325032 0.591375 0.946222 0.238740
H46   H     H_    0.353988 0.659961 0.886812 0.235681
H47   H     H_    0.347329 0.416621 0.901929 0.235587
O24   O     O_3   0.811029 0.916714 0.154003 -0.548616
C70   C     C_3   0.761537 0.912756 0.117069 0.084440
H48   H     H_    0.741962 0.774485 0.115926 0.096958
H49   H     H_    0.766531 0.945401 0.073176 0.119931
C71   C     C_3   0.725000 0.054830 0.136659 -0.249751
H50   H     H_    0.720190 0.021741 0.180540 0.237454
H51   H     H_    0.741815 0.195998 0.136979 0.197362
C72   C     C_3   0.671351 0.055223 0.097884 -0.884692
H52   H     H_    0.674953 0.091318 0.053795 0.238735
H53   H     H_    0.646013 0.159968 0.113210 0.235678
H54   H     H_    0.652669 0.916612 0.098113 0.235584
O25   O     O_3   0.126454 0.738491 0.911929 -0.560815
C73   C     C_3   0.153905 0.739874 0.969378 0.103844
H55   H     H_    0.155409 0.593746 0.984527 0.123487
H56   H     H_    0.132330 0.818384 0.997213 0.119362
C74   C     C_3   0.210215 0.815877 0.978241 -0.379146
H57   H     H_    0.230864 0.757500 0.946206 0.209412
H58   H     H_    0.209416 0.969532 0.973468 0.178398
C75   C     C_3   0.240676 0.768337 0.037280 -0.845141
H59   H     H_    0.220676 0.826324 0.070349 0.235075
H60   H     H_    0.280513 0.828627 0.042970 0.235204
H61   H     H_    0.244197 0.615247 0.042526 0.225100
O26   O     O_3   0.873547 0.238491 0.088071 -0.560815
C76   C     C_3   0.846096 0.239871 0.030621 0.103849
H62   H     H_    0.844593 0.093742 0.015473 0.123487
H63   H     H_    0.867671 0.318383 0.002787 0.119359
C77   C     C_3   0.789785 0.315870 0.021758 -0.379137
H64   H     H_    0.769135 0.257490 0.053793 0.209405
H65   H     H_    0.790583 0.469526 0.026531 0.178395
C78   C     C_3   0.759325 0.268326 0.962719 -0.845123
H66   H     H_    0.779327 0.326304 0.929650 0.235070
H67   H     H_    0.719489 0.328624 0.957027 0.235202
H68   H     H_    0.755803 0.115234 0.957475 0.225097
O27   O     O_3   0.761130 0.982902 0.636322 -0.572748
C79   C     C_3   0.804647 0.886036 0.622415 0.042629
H69   H     H_    0.791003 0.814092 0.581296 0.148673
H70   H     H_    0.821108 0.777128 0.653410 0.186854
C80   C     C_3   0.847201 0.021927 0.612359 -0.259848
H71   H     H_    0.830280 0.122007 0.578539 0.240664
H72   H     H_    0.862721 0.101904 0.651385 0.228529
C81   C     C_3   0.892511 0.919658 0.594102 -0.805550
H73   H     H_    0.910624 0.820726 0.627674 0.249791
H74   H     H_    0.922579 0.021460 0.586959 0.241893
H75   H     H_    0.878646 0.842362 0.553996 0.239344
O28   O     O_3   0.238870 0.482902 0.363678 -0.572748
C82   C     C_3   0.195353 0.386036 0.377585 0.042629
H76   H     H_    0.208997 0.314092 0.418703 0.148673
H77   H     H_    0.178892 0.277128 0.346590 0.186854
C83   C     C_3   0.152799 0.521927 0.387641 -0.259848
H78   H     H_    0.169720 0.622007 0.421460 0.240664
H79   H     H_    0.137279 0.601904 0.348614 0.228529
C84   C     C_3   0.107489 0.419658 0.405898 -0.805548
H80   H     H_    0.089376 0.320726 0.372325 0.249791
H81   H     H_    0.077421 0.521460 0.413040 0.241893
H82   H     H_    0.121353 0.342362 0.446003 0.239343
O29   O     O_3   0.346652 0.781363 0.688316 -0.569488
C85   C     C_3   0.378576 0.758087 0.742671 0.100770
H83   H     H_    0.356985 0.666865 0.767603 0.168970
H84   H     H_    0.386324 0.890475 0.767145 0.097626
C86   C     C_3   0.430140 0.662820 0.738133 -0.347384
H85   H     H_    0.422070 0.535357 0.711886 0.213399
H86   H     H_    0.454354 0.757857 0.717466 0.184078
C87   C     C_3   0.460921 0.609706 0.796569 -0.831068
H87   H     H_    0.469967 0.735414 0.823503 0.230928
H88   H     H_    0.498184 0.542418 0.791952 0.232323
H89   H     H_    0.438174 0.510477 0.817703 0.232722
O30   O     O_3   0.653349 0.281362 0.311685 -0.569488
C88   C     C_3   0.621426 0.258086 0.257330 0.100766
H90   H     H_    0.643017 0.166867 0.232398 0.168973
H91   H     H_    0.613677 0.390475 0.232857 0.097626
C89   C     C_3   0.569862 0.162816 0.261867 -0.347382
H92   H     H_    0.577933 0.035351 0.288113 0.213400
H93   H     H_    0.545647 0.257850 0.282535 0.184078
C90   C     C_3   0.539082 0.109703 0.203431 -0.831070
H94   H     H_    0.530035 0.235413 0.176497 0.230928
H95   H     H_    0.501819 0.042412 0.208047 0.232323
H96   H     H_    0.561829 0.010478 0.182296 0.232723
Cl3   Cl    Cl    0.779370 0.351033 0.662566 -0.705915
Cl4   Cl    Cl    0.220630 0.851033 0.337434 -0.705915

loop_
_geom_bond_atom_site_label_1
_geom_bond_atom_site_label_2
_ccdc_geom_bond_type
C30   C32   A    
C81   H74   S    
C33   C35   A    
C6    C16   S    
C17   C23   S    
O25   C73   S    
C8    Cl4   S    
C42   C56   S    
C13   C25   S    
C11   C58   S    
C41   C55   S    
C68   H43   S    
O1    C3    A    
C87   H89   S    
C64   C65   S    
O2    C4    A    
C89   H92   S    
O16   V4    S    
C65   C66   S    
C72   H52   S    
O15   V3    S    
C62   H29   S    
C19   C21   S    
C36   C38   A    
C86   H85   S    
C61   H27   S    
O5    C3    A    
O13   C57   A    
H2    C16   S    
C11   C23   T    
C79   C80   S    
C84   H82   S    
O11   C59   A    
N4    C42   A    
C88   C89   S    
C78   H67   S    
C75   H59   S    
C51   C53   A    
C62   H30   S    
C81   H75   S    
C70   H49   S    
C36   H20   S    
C30   H18   S    
O23   C67   S    
C10   C18   S    
O20   V3    S    
C79   H70   S    
C57   O18   A    
C37   C39   A    
C16   Cl2   S    
C34   C44   S    
C45   C55   A    
C32   C34   A    
C71   C72   S    
N7    C43   A    
C7    Cl3   S    
C31   O23   S    
C19   H15   S    
C75   H60   S    
C14   C22   S    
C76   H63   S    
C83   C84   S    
C52   H26   S    
C6    O28   S    
C82   C83   S    
C20   H14   S    
O28   C82   S    
C14   C26   S    
C47   H23   S    
O16   C60   A    
C75   H61   S    
O15   C59   A    
O19   V4    S    
C8    C14   S    
C76   C77   S    
C86   H86   S    
C81   H73   S    
C9    H5    S    
C82   H76   S    
O6    V2    S    
C18   C20   S    
C10   H6    S    
O14   V4    S    
C70   C71   S    
C73   H56   S    
N1    N3    A    
O13   V3    S    
C3    C28   S    
C5    C13   S    
C2    O7    A    
C67   C68   S    
C21   H9    S    
O30   C88   S    
C72   H53   S    
C77   H65   S    
C48   C50   A    
C25   C27   T    
C17   C19   S    
C66   H40   S    
C26   C28   T    
C68   H44   S    
C83   H78   S    
C45   H21   S    
C80   H71   S    
C74   H57   S    
C68   C69   S    
C87   H87   S    
C67   H42   S    
C7    C13   S    
C78   H68   S    
N2    C44   A    
N5    N7    A    
C45   C47   A    
C62   C63   S    
C65   H37   S    
O5    V1    S    
C63   H33   S    
C35   H19   S    
C84   H80   S    
C9    H7    S    
C40   C59   S    
C12   C57   S    
C32   O24   S    
C39   C60   S    
C33   C43   S    
C79   H69   S    
C34   C36   A    
C71   H50   S    
O4    V2    S    
C78   H66   S    
C80   H72   S    
C18   C24   S    
C88   H90   S    
C77   C78   S    
C66   H39   S    
C48   H24   S    
C90   H94   S    
C8    C10   S    
O6    C4    A    
C2    C49   S    
C54   C56   A    
O29   C85   S    
C12   C24   T    
C41   N5    A    
O1    V2    S    
C1    C50   S    
C29   C39   A    
C50   C52   A    
O2    V1    S    
N3    C41   A    
O24   C70   S    
C83   H79   S    
C22   H10   S    
O12   C60   A    
O4    C2    A    
O26   C76   S    
C53   C55   A    
C15   Cl1   S    
C76   H62   S    
N8    C44   A    
C46   C48   A    
C73   H55   S    
C74   C75   S    
C69   H46   S    
C6    O22   S    
O11   V4    S    
N2    N4    A    
C64   H34   S    
C46   C56   A    
C89   C90   S    
O3    C1    A    
C42   N6    A    
C72   H54   S    
O3    V1    S    
C77   H64   S    
C61   H28   S    
O14   C58   A    
O12   V3    S    
C53   O29   S    
C86   C87   S    
O19   V3    S    
C51   H25   S    
C63   H32   S    
C10   H8    S    
C15   C17   S    
O10   V1    S    
C31   C33   A    
C5    O27   S    
C4    C27   S    
C87   H88   S    
C67   H41   S    
C64   H35   S    
C89   H93   S    
O21   C61   S    
C61   C62   S    
C29   C31   A    
C65   H36   S    
C85   C86   S    
C66   H38   S    
C85   H84   S    
C58   O17   A    
O17   V3    S    
C13   C21   S    
C20   H16   S    
C16   C18   S    
O22   C64   S    
O7    V1    S    
C80   C81   S    
C1    O8    A    
C88   H91   S    
C90   H95   S    
O8    V2    S    
O18   V4    S    
C71   H51   S    
C30   C40   A    
C19   H13   S    
C8    H4    S    
C6    C14   S    
C63   H31   S    
C35   C37   A    
C52   C54   A    
C20   C22   S    
N6    N8    A    
O20   V4    S    
C46   H22   S    
C69   H47   S    
C47   C49   A    
C7    H3    S    
H1    C15   S    
C37   O25   S    
C29   H17   S    
C5    O21   S    
O27   C79   S    
C90   H96   S    
C9    C17   S    
C54   O30   S    
C73   C74   S    
C49   C51   A    
C85   H83   S    
O9    V2    S    
C70   H48   S    
C82   H77   S    
C69   H45   S    
C38   C40   A    
C5    C15   S    
C84   H81   S    
C38   O26   S    
N1    C43   A    
C21   H11   S    
C22   H12   S    
C7    C9    S    
C74   H58   S    
