data_mof_unit_24890.cif
_audit_creation_date              2012-12-10T19:09:06-0500
_audit_creation_method            fapswitch 2.2
_symmetry_space_group_name_H-M    P1
_symmetry_Int_Tables_number       1
_space_group_crystal_system       triclinic
_cell_length_a                    17.711709
_cell_length_b                    10.893249
_cell_length_c                    9.643279
_cell_angle_alpha                 87.575598
_cell_angle_beta                  91.06052
_cell_angle_gamma                 91.666067
_cell_volume                      1857.82617261

loop_
_atom_site_label
_atom_site_type_symbol
_atom_type_description
_atom_site_fract_x
_atom_site_fract_y
_atom_site_fract_z
_atom_type_partial_charge
C1    C     C_R   0.499438 0.262568 0.502638 0.844418
C2    C     C_R   0.885277 0.507414 0.503637 0.139767
C3    C     C_1   0.966000 0.510870 0.503675 -0.045274
C4    C     C_1   0.033751 0.512924 0.503505 -0.022376
C5    C     C_R   0.154477 0.481247 0.624769 -0.109344
C6    C     C_R   0.233079 0.479024 0.623718 -0.102285
C7    C     C_R   0.272377 0.505584 0.500230 0.016877
C8    C     C_R   0.231693 0.545289 0.381150 -0.019829
C9    C     C_R   0.153047 0.547920 0.382032 -0.138159
C10   C     C_R   0.114440 0.513779 0.503288 0.127483
C11   C     C_R   0.451366 0.052843 0.582246 -0.024049
C12   C     C_R   0.355597 0.499984 0.499528 0.938576
C13   C     C_R   0.501471 0.129278 0.505499 -0.067859
C14   C     C_R   0.550709 0.071859 0.415527 -0.173126
C15   C     C_R   0.550918 0.942582 0.409392 -0.187427
C16   C     C_R   0.499645 0.869636 0.488934 -0.005350
C17   C     C_R   0.448549 0.929588 0.565861 -0.029182
C18   C     C_3   0.382562 0.900496 0.653239 0.135431
C19   C     C_3   0.390658 0.037880 0.690712 0.571693
C20   C     C_R   0.549734 0.573766 0.071763 0.196003
C21   C     C_R   0.445151 0.436226 0.071359 0.429021
C22   C     C_R   0.445550 0.440642 0.924096 -0.042785
C23   C     C_R   0.501254 0.737007 0.496834 0.826777
C24   C     C_R   0.549662 0.573714 0.925241 0.273694
C25   C     C_3   0.633585 0.572398 0.922147 -0.492232
C26   C     C_3   0.633786 0.570853 0.079416 -0.477875
C27   C     C_R   0.644213 0.500066 0.501009 0.749420
C28   C     C_R   0.847023 0.553257 0.614973 -0.143509
C29   C     C_R   0.768260 0.550020 0.614721 -0.194241
C30   C     C_R   0.727193 0.501044 0.503001 -0.020038
C31   C     C_R   0.766178 0.454437 0.392042 -0.193783
C32   C     C_R   0.844927 0.457690 0.392394 -0.145125
Cu1   Cu    Cu3+1 0.500000 0.499980 0.640670 1.015767
Cu2   Cu    Cu3+1 0.500000 0.500020 0.359330 1.031393
H1    H     H_    0.878025 0.591966 0.701461 0.141317
H2    H     H_    0.591248 0.900241 0.344629 0.137856
H3    H     H_    0.395356 0.832251 0.738766 0.145329
H4    H     H_    0.401825 0.394779 0.865818 0.237335
H5    H     H_    0.654960 0.486405 0.880997 0.218174
H6    H     H_    0.657947 0.659196 0.874912 0.196033
H7    H     H_    0.654406 0.483200 0.126853 0.210344
H8    H     H_    0.739650 0.587849 0.700405 0.143024
H9    H     H_    0.659391 0.655643 0.122851 0.200790
H10   H     H_    0.874302 0.421328 0.306202 0.140412
H11   H     H_    0.125021 0.458056 0.720251 0.145538
H12   H     H_    0.263010 0.458115 0.719976 0.174499
H13   H     H_    0.260722 0.580029 0.289731 0.203186
H14   H     H_    0.122475 0.577573 0.288761 0.147431
H15   H     H_    0.589865 0.126748 0.352050 0.148437
N1    N     N_R   0.500470 0.500930 0.147930 -0.255945
N2    N     N_R   0.500480 0.500890 0.852020 -0.235259
O1    O     O_R   0.500000 0.319640 0.618810 -0.535529
O2    O     O_R   0.500010 0.319680 0.381230 -0.561438
O3    O     O_R   0.391250 0.499990 0.618840 -0.593161
O4    O     O_R   0.391260 0.500020 0.381250 -0.506864
O5    O     O_R   0.499990 0.680320 0.618770 -0.581255
O6    O     O_R   0.500000 0.680360 0.381190 -0.567965
O7    O     O_R   0.608740 0.499980 0.618750 -0.587886
O8    O     O_R   0.608750 0.500010 0.381160 -0.598445
S1    S     S_3+6 0.305607 0.850485 0.541703 0.038040
O9    O     O_2   0.334355 0.754451 0.451281 -0.368265
O10   O     O_2   0.242841 0.795859 0.629363 -0.256893
O11   O     O_3   0.272024 0.962541 0.434838 -0.423556
H16   H     H_    0.230262 0.922907 0.381807 0.382209
S2    S     S_3+6 0.308503 0.131352 0.666053 0.093597
O12   O     O_2   0.302567 0.183400 0.520045 -0.244933
O13   O     O_2   0.238255 0.055912 0.699789 -0.220140
O14   O     O_3   0.313644 0.249029 0.771615 -0.522558
H17   H     H_    0.262593 0.253199 0.811133 0.382144
S3    S     S_3+6 0.432151 0.047966 0.861698 0.030042
O15   O     O_2   0.464338 0.175064 0.881190 -0.269543
O16   O     O_2   0.373015 0.016552 0.968213 -0.216189
O17   O     O_3   0.502450 0.947704 0.882007 -0.591342
H18   H     H_    0.518859 0.952468 0.980442 0.373823
S4    S     S_3+6 0.364405 0.351545 0.137064 0.060115
O18   O     O_2   0.299434 0.436639 0.131114 -0.317741
O19   O     O_2   0.344135 0.250761 0.041084 -0.223126
O20   O     O_3   0.369962 0.284021 0.295607 -0.461127
H19   H     H_    0.382000 0.197254 0.280956 0.387618
H20   H     H_    0.735908 0.414101 0.306026 0.139396

loop_
_geom_bond_atom_site_label_1
_geom_bond_atom_site_label_2
_ccdc_geom_bond_type
Cu1   O7    S    
C29   H8    S    
O17   H18   S    
C31   H20   S    
Cu1   O1    S    
C11   C19   S    
S1    O11   S    
S1    O10   D    
C28   C29   A    
C18   H3    S    
C25   H6    S    
C5    C6    A    
C14   H15   S    
C15   C16   A    
C22   H4    S    
C2    C32   A    
C18   C19   S    
C1    O2    A    
C20   N1    A    
O14   H17   S    
C20   C24   A    
C28   H1    S    
C16   C17   A    
S2    O13   D    
Cu2   O6    S    
S3    O15   D    
C9    C10   A    
C24   N2    A    
Cu2   O4    S    
C21   C22   A    
C27   C30   S    
C21   N1    A    
S4    O20   S    
C26   H9    S    
Cu1   Cu2   S    
C7    C12   S    
Cu2   N1    S    
C7    C8    A    
C24   C25   S    
O20   H19   S    
C8    C9    A    
C25   C26   S    
C5    H11   S    
S1    O9    D    
S4    O18   D    
C29   C30   A    
C31   C32   A    
S2    O14   S    
S3    O17   S    
C17   C18   S    
C32   H10   S    
S4    O19   D    
C23   O5    A    
Cu2   O2    S    
C18   S1    S    
C16   C23   S    
Cu2   O8    S    
C1    C13   S    
C4    C10   S    
C3    C4    T    
C15   H2    S    
Cu1   O3    S    
C23   O6    A    
C11   C17   A    
C6    H12   S    
C27   O7    A    
C2    C28   A    
C6    C7    A    
Cu1   N2    S    
C21   S4    S    
C2    C3    S    
C8    H13   S    
C5    C10   A    
C27   O8    A    
C25   H5    S    
C11   C13   A    
C30   C31   A    
C20   C26   S    
Cu1   O5    S    
C19   S2    S    
C1    O1    A    
C12   O4    A    
O11   H16   S    
C9    H14   S    
S2    O12   D    
C14   C15   A    
C19   S3    S    
S3    O16   D    
C13   C14   A    
C12   O3    A    
C26   H7    S    
C22   N2    A    
