data_mof_unit_56308.cif
_audit_creation_date              2012-12-10T20:37:28-0500
_audit_creation_method            fapswitch 2.2
_symmetry_space_group_name_H-M    P1
_symmetry_Int_Tables_number       1
_space_group_crystal_system       triclinic
_cell_length_a                    15.666656
_cell_length_b                    10.749017
_cell_length_c                    9.824825
_cell_angle_alpha                 89.233794
_cell_angle_beta                  90.924914
_cell_angle_gamma                 89.006799
_cell_volume                      1653.89349525

loop_
_atom_site_label
_atom_site_type_symbol
_atom_type_description
_atom_site_fract_x
_atom_site_fract_y
_atom_site_fract_z
_atom_type_partial_charge
C1    C     C_R   0.499498 0.260164 0.501539 0.894971
C2    C     C_3   0.082919 0.497303 0.500707 0.191631
C3    C     C_3   0.972085 0.589524 0.581640 -0.177300
C4    C     C_3   0.917385 0.499849 0.499427 0.162106
C5    C     C_3   0.027173 0.609110 0.454258 -0.143047
C6    C     C_3   0.970975 0.519189 0.371699 -0.178784
C7    C     C_1   0.173606 0.497425 0.498554 -0.065649
C8    C     C_1   0.826465 0.500241 0.501574 -0.070547
C9    C     C_R   0.493487 0.058874 0.624162 0.086799
C10   C     C_R   0.502237 0.128396 0.504365 -0.105359
C11   C     C_R   0.515594 0.065646 0.381230 -0.223698
C12   C     C_R   0.337822 0.499914 0.498992 0.924810
C13   C     C_R   0.516437 0.936919 0.378673 -0.227831
C14   C     C_R   0.506404 0.870204 0.500150 -0.077629
C15   C     C_R   0.499117 0.934335 0.620822 0.008201
C16   C     C_3   0.480513 0.913212 0.766270 -0.333085
C17   C     C_3   0.473845 0.057139 0.775216 0.271323
C18   C     C_R   0.452109 0.415711 0.071027 0.203701
C19   C     C_R   0.555060 0.570728 0.072872 -0.130687
C20   C     C_R   0.554851 0.571196 0.928868 -0.141383
C21   C     C_R   0.450864 0.418208 0.928167 0.237286
C22   C     C_3   0.356239 0.408421 0.920471 -0.499246
C23   C     C_R   0.501811 0.739352 0.499641 0.886278
C24   C     C_3   0.357632 0.399243 0.075198 -0.536353
C25   C     C_R   0.662163 0.499588 0.501049 0.905527
C26   C     C_3   0.973764 0.389513 0.545478 0.049860
C27   C     C_3   0.028550 0.407284 0.418286 -0.203075
C28   C     C_1   0.248938 0.498376 0.497496 -0.185544
C29   C     C_1   0.751080 0.499958 0.502636 -0.179593
C30   C     C_3   0.029657 0.477842 0.628803 -0.200653
H1    H     H_    0.053585 0.331152 0.354015 0.140688
H2    H     H_    0.535559 0.869376 0.822777 0.116359
H3    H     H_    0.524758 0.100753 0.837506 0.059883
H4    H     H_    0.598085 0.630088 0.127978 0.146479
H5    H     H_    0.597718 0.631155 0.875116 0.145195
H6    H     H_    0.324411 0.495207 0.881296 0.224381
H7    H     H_    0.336308 0.323889 0.867734 0.254332
H8    H     H_    0.322252 0.476462 0.123615 0.231620
H9    H     H_    0.341208 0.306345 0.116713 0.197999
H10   H     H_    0.945290 0.535980 0.266956 0.141987
H11   H     H_    0.051659 0.700208 0.418406 0.138600
H12   H     H_    0.946707 0.663907 0.647834 0.144682
H13   H     H_    0.054862 0.460741 0.733852 0.141300
H14   H     H_    0.523757 0.115220 0.285949 0.165672
H15   H     H_    0.523900 0.891096 0.282244 0.162314
N1    N     N_R   0.499430 0.499140 0.142800 -0.103027
N2    N     N_R   0.499430 0.499180 0.857150 -0.108495
O1    O     O_R   0.500010 0.316790 0.614690 -0.610420
O2    O     O_R   0.500000 0.316760 0.385350 -0.628686
O3    O     O_R   0.376780 0.500010 0.614650 -0.607823
O4    O     O_R   0.376770 0.499970 0.385310 -0.619583
O5    O     O_R   0.500000 0.683240 0.614650 -0.624035
O6    O     O_R   0.499990 0.683210 0.385310 -0.629506
O7    O     O_R   0.623230 0.500030 0.614690 -0.620441
O8    O     O_R   0.623220 0.499990 0.385350 -0.618330
Zn1   Zn    Zn3+2 0.500010 0.500020 0.653130 0.960391
Zn2   Zn    Zn3+2 0.499990 0.499980 0.346870 0.943999
O9    O     O_3   0.390539 0.103879 0.799599 -0.590855
C31   C     C_3   0.368572 0.087370 0.938166 0.109019
H16   H     H_    0.403084 0.153662 0.001943 0.127851
H17   H     H_    0.386693 0.993391 0.978608 0.132986
C32   C     C_3   0.271194 0.103877 0.950331 -0.822864
H18   H     H_    0.239317 0.082508 0.851194 0.281561
H19   H     H_    0.246352 0.038855 0.027712 0.215103
H20   H     H_    0.251695 0.198945 0.979402 0.225330
C33   C     C_1   0.941877 0.269319 0.592754 0.140454
N3    N     N_1   0.915706 0.174357 0.630802 -0.211770
C34   C     C_1   0.399718 0.846684 0.778783 0.326811
N4    N     N_1   0.335724 0.795067 0.788094 -0.222192

loop_
_geom_bond_atom_site_label_1
_geom_bond_atom_site_label_2
_ccdc_geom_bond_type
C14   C23   S    
C3    C30   S    
C24   H8    S    
C3    H12   S    
C26   C30   S    
C32   H18   S    
C16   C34   S    
C16   H2    S    
C18   C21   A    
C22   H6    S    
C9    C10   A    
C12   O3    A    
C2    C7    S    
C2    C30   S    
C17   O9    S    
C4    C8    S    
C24   H9    S    
C19   C20   A    
C22   H7    S    
C33   N3    T    
C23   O5    A    
C19   N1    A    
C31   H16   S    
C1    O1    A    
C13   C14   A    
C13   H15   S    
C11   C13   A    
C26   C27   S    
C2    C27   S    
C17   H3    S    
C12   C28   S    
C18   C24   S    
C8    C29   T    
C18   N1    A    
C9    C17   S    
O6    Zn2   S    
C23   O6    A    
O7    Zn1   S    
O8    Zn2   S    
N1    Zn2   S    
C25   C29   S    
C5    C6    S    
C22   C24   S    
C30   H13   S    
C31   H17   S    
C2    C5    S    
C4    C26   S    
C10   C11   A    
C1    C10   S    
C27   H1    S    
C15   C16   S    
C20   N2    A    
C16   C17   S    
C25   O8    A    
O4    Zn2   S    
C11   H14   S    
C12   O4    A    
O2    Zn2   S    
C25   O7    A    
O5    Zn1   S    
C4    C6    S    
C6    H10   S    
O1    Zn1   S    
C5    H11   S    
C14   C15   A    
C34   N4    T    
C31   C32   S    
C32   H19   S    
C32   H20   S    
C3    C5    S    
O9    C31   S    
C21   C22   S    
C20   H5    S    
C1    O2    A    
C19   H4    S    
O3    Zn1   S    
C7    C28   T    
C6    C27   S    
C9    C15   A    
N2    Zn1   S    
C21   N2    A    
C3    C4    S    
C26   C33   S    
