data_mof_unit_30154.cif
_audit_creation_date              2012-12-10T17:06:54-0500
_audit_creation_method            fapswitch 2.2
_symmetry_space_group_name_H-M    P1
_symmetry_Int_Tables_number       1
_space_group_crystal_system       triclinic
_cell_length_a                    21.75525
_cell_length_b                    21.755249
_cell_length_c                    55.794105
_cell_angle_alpha                 89.998151
_cell_angle_beta                  89.99931
_cell_angle_gamma                 89.986194
_cell_volume                      26406.840317

loop_
_atom_site_label
_atom_site_type_symbol
_atom_type_description
_atom_site_fract_x
_atom_site_fract_y
_atom_site_fract_z
_atom_type_partial_charge
C1    C     C_R   0.381417 0.500004 1.000000 0.794080
C2    C     C_R   0.500003 0.381416 0.000000 0.794101
C3    C     C_R   0.618583 0.499994 0.999999 0.794079
C4    C     C_R   0.499998 0.618584 1.000000 0.794135
C5    C     C_R   0.881417 0.000011 0.500000 0.794140
C6    C     C_R   0.000020 0.881419 0.500001 0.794079
C7    C     C_R   0.118584 0.999992 0.499999 0.794102
C8    C     C_R   0.999991 0.118584 0.500000 0.794052
C9    C     C_R   0.623540 0.218733 0.045038 0.437838
C10   C     C_R   0.781169 0.623646 0.045004 0.437930
C11   C     C_R   0.376466 0.781259 0.045041 0.437812
C12   C     C_R   0.218820 0.376333 0.044998 0.437912
C13   C     C_R   0.623638 0.781187 0.954991 0.437888
C14   C     C_R   0.781265 0.376461 0.954963 0.437828
C15   C     C_R   0.376347 0.218823 0.954998 0.437890
C16   C     C_R   0.218742 0.623555 0.954966 0.437834
C17   C     C_R   0.123612 0.718732 0.545006 0.437778
C18   C     C_R   0.281180 0.123618 0.545015 0.437898
C19   C     C_R   0.876533 0.281265 0.545067 0.437771
C20   C     C_R   0.718834 0.876252 0.544973 0.438037
C21   C     C_R   0.123667 0.281176 0.455002 0.437918
C22   C     C_R   0.281276 0.876582 0.454913 0.437822
C23   C     C_R   0.876102 0.718877 0.455093 0.437993
C24   C     C_R   0.718722 0.123485 0.454943 0.437769
C25   C     C_R   0.576767 0.187948 0.032840 -0.322758
C26   C     C_R   0.811994 0.576867 0.032815 -0.322860
C27   C     C_R   0.423237 0.812046 0.032841 -0.322771
C28   C     C_R   0.188000 0.423121 0.032812 -0.322861
C29   C     C_R   0.576857 0.812005 0.967181 -0.322849
C30   C     C_R   0.812050 0.423234 0.967161 -0.322737
C31   C     C_R   0.423131 0.188003 0.967186 -0.322871
C32   C     C_R   0.187954 0.576779 0.967163 -0.322738
C33   C     C_R   0.076816 0.687949 0.532819 -0.322668
C34   C     C_R   0.312000 0.076842 0.532823 -0.322895
C35   C     C_R   0.923284 0.312051 0.532855 -0.322696
C36   C     C_R   0.688007 0.923048 0.532795 -0.322902
C37   C     C_R   0.076877 0.311998 0.467186 -0.322858
C38   C     C_R   0.312060 0.923315 0.467135 -0.322740
C39   C     C_R   0.922941 0.688036 0.467241 -0.322860
C40   C     C_R   0.687942 0.076725 0.467152 -0.322752
C41   C     C_R   0.540203 0.218274 0.015529 0.008308
C42   C     C_R   0.781697 0.540261 0.015515 0.008280
C43   C     C_R   0.459799 0.781724 0.015529 0.008301
C44   C     C_R   0.218301 0.459735 0.015515 0.008286
C45   C     C_R   0.540256 0.781701 0.984482 0.008265
C46   C     C_R   0.781726 0.459797 0.984471 0.008338
C47   C     C_R   0.459739 0.218302 0.984485 0.008279
C48   C     C_R   0.218276 0.540209 0.984473 0.008320
C49   C     C_R   0.040229 0.718275 0.515515 0.008408
C50   C     C_R   0.281700 0.040247 0.515521 0.008236
C51   C     C_R   0.959815 0.281727 0.515534 0.008375
C52   C     C_R   0.718306 0.959707 0.515511 0.008150
C53   C     C_R   0.040264 0.281699 0.484484 0.008277
C54   C     C_R   0.281731 0.959831 0.484459 0.008328
C55   C     C_R   0.959659 0.718319 0.484510 0.008215
C56   C     C_R   0.718271 0.040184 0.484469 0.008319
C57   C     C_R   0.544499 0.282589 0.013628 0.010707
C58   C     C_R   0.717378 0.544533 0.013615 0.010876
C59   C     C_R   0.455502 0.717409 0.013628 0.010730
C60   C     C_R   0.282621 0.455465 0.013617 0.010877
C61   C     C_R   0.544529 0.717381 0.986379 0.010842
C62   C     C_R   0.717411 0.455498 0.986373 0.010720
C63   C     C_R   0.455468 0.282622 0.986383 0.010873
C64   C     C_R   0.282591 0.544505 0.986375 0.010714
C65   C     C_R   0.044532 0.782588 0.513612 0.010586
C66   C     C_R   0.217380 0.044518 0.513623 0.010903
C67   C     C_R   0.955507 0.217414 0.513632 0.010702
C68   C     C_R   0.782630 0.955458 0.513617 0.010973
C69   C     C_R   0.044533 0.217379 0.486383 0.010908
C70   C     C_R   0.217417 0.955525 0.486359 0.010710
C71   C     C_R   0.955418 0.782641 0.486410 0.010918
C72   C     C_R   0.782585 0.044489 0.486368 0.010608
C73   C     C_R   0.499976 0.185978 0.000004 -0.102683
C74   C     C_R   0.814022 0.500024 0.999996 -0.102679
C75   C     C_R   0.500023 0.814023 0.000003 -0.102680
C76   C     C_R   0.185978 0.499977 0.999996 -0.102683
C77   C     C_R   0.999961 0.685983 0.500004 -0.102780
C78   C     C_R   0.314024 0.000028 0.499995 -0.102643
C79   C     C_R   0.000029 0.314023 0.500004 -0.102644
C80   C     C_R   0.685979 0.999961 0.499997 -0.102724
C81   C     C_R   0.499993 0.314642 0.000002 -0.130281
C82   C     C_R   0.685358 0.500004 0.999998 -0.130294
C83   C     C_R   0.500006 0.685358 0.000001 -0.130257
C84   C     C_R   0.314642 0.499995 0.999999 -0.130292
C85   C     C_R   0.000001 0.814648 0.500003 -0.130209
C86   C     C_R   0.185360 0.000005 0.499997 -0.130332
C87   C     C_R   0.000003 0.185359 0.500001 -0.130296
C88   C     C_R   0.814643 0.999995 0.499999 -0.130308
C89   C     C_R   0.572311 0.915380 0.801063 -0.147247
C90   C     C_R   0.084588 0.572303 0.801061 -0.147245
C91   C     C_R   0.427683 0.084624 0.801063 -0.147246
C92   C     C_R   0.915391 0.427704 0.801065 -0.147245
C93   C     C_R   0.572306 0.084593 0.198935 -0.147245
C94   C     C_R   0.084642 0.427684 0.198936 -0.147248
C95   C     C_R   0.427682 0.915416 0.198938 -0.147244
C96   C     C_R   0.915375 0.572285 0.198937 -0.147247
C97   C     C_R   0.072373 0.415396 0.301063 -0.147248
C98   C     C_R   0.584594 0.072304 0.301062 -0.147244
C99   C     C_R   0.927652 0.584560 0.301063 -0.147250
C100  C     C_R   0.415392 0.927709 0.301064 -0.147243
C101  C     C_R   0.072300 0.584588 0.698935 -0.147246
C102  C     C_R   0.584582 0.927655 0.698936 -0.147247
C103  C     C_R   0.927683 0.415406 0.698939 -0.147245
C104  C     C_R   0.415394 0.072347 0.698937 -0.147247
C105  C     C_R   0.445159 0.990451 0.889464 -0.097260
C106  C     C_R   0.009549 0.445158 0.889464 -0.097240
C107  C     C_R   0.554843 0.009549 0.889464 -0.097253
C108  C     C_R   0.990438 0.554849 0.889464 -0.097236
C109  C     C_R   0.445153 0.009564 0.110535 -0.097236
C110  C     C_R   0.009548 0.554836 0.110536 -0.097254
C111  C     C_R   0.554841 0.990439 0.110536 -0.097233
C112  C     C_R   0.990464 0.445149 0.110536 -0.097259
C113  C     C_R   0.945173 0.490395 0.389464 -0.097294
C114  C     C_R   0.509550 0.945158 0.389464 -0.097219
C115  C     C_R   0.054846 0.509554 0.389464 -0.097271
C116  C     C_R   0.490441 0.054849 0.389464 -0.097216
C117  C     C_R   0.945150 0.509551 0.610535 -0.097237
C118  C     C_R   0.509555 0.054839 0.610535 -0.097256
C119  C     C_R   0.054840 0.490433 0.610536 -0.097244
C120  C     C_R   0.490413 0.945163 0.610537 -0.097258
C121  C     C_R   0.445051 0.990796 0.914484 -0.212098
C122  C     C_R   0.009206 0.445049 0.914484 -0.212211
C123  C     C_R   0.554951 0.009203 0.914484 -0.212116
C124  C     C_R   0.990786 0.554956 0.914484 -0.212186
C125  C     C_R   0.445046 0.009217 0.085516 -0.212198
C126  C     C_R   0.009200 0.554946 0.085516 -0.212086
C127  C     C_R   0.554950 0.990784 0.085516 -0.212192
C128  C     C_R   0.990807 0.445044 0.085516 -0.212088
C129  C     C_R   0.945061 0.490748 0.414484 -0.211891
C130  C     C_R   0.509206 0.945049 0.414484 -0.212266
C131  C     C_R   0.054951 0.509215 0.414484 -0.212130
C132  C     C_R   0.490789 0.054956 0.414484 -0.212207
C133  C     C_R   0.945044 0.509207 0.585515 -0.212310
C134  C     C_R   0.509213 0.054947 0.585515 -0.212105
C135  C     C_R   0.054949 0.490781 0.585516 -0.212222
C136  C     C_R   0.490764 0.945054 0.585517 -0.211879
C137  C     C_R   0.500001 1.000000 0.927245 -0.038059
C138  C     C_R   0.999997 0.500002 0.927245 -0.037987
C139  C     C_R   0.499999 0.000000 0.072755 -0.037992
C140  C     C_R   0.000002 0.499997 0.072755 -0.038077
C141  C     C_R   0.000004 0.499987 0.427245 -0.038145
C142  C     C_R   0.499998 0.000002 0.427245 -0.037949
C143  C     C_R   0.999998 0.499996 0.572755 -0.037941
C144  C     C_R   0.499992 1.000000 0.572755 -0.038137
C145  C     C_R   0.499995 0.000002 0.775338 0.068391
C146  C     C_R   0.999990 0.500002 0.775338 0.068392
C147  C     C_R   0.499994 0.000005 0.224662 0.068392
C148  C     C_R   0.000010 0.499983 0.224661 0.068391
C149  C     C_R   0.000011 0.499980 0.275338 0.068391
C150  C     C_R   0.499993 0.000006 0.275338 0.068392
C151  C     C_R   0.999991 0.499999 0.724662 0.068391
C152  C     C_R   0.499990 0.000001 0.724662 0.068391
C153  C     C_R   0.500001 0.000001 0.876776 0.344360
C154  C     C_R   0.999992 0.500004 0.876776 0.344377
C155  C     C_R   0.499997 0.000002 0.123224 0.344375
C156  C     C_R   0.000007 0.499991 0.123224 0.344355
C157  C     C_R   0.000011 0.499973 0.376776 0.344331
C158  C     C_R   0.499995 0.000004 0.376776 0.344392
C159  C     C_R   0.999994 0.499991 0.623224 0.344400
C160  C     C_R   0.499983 0.000001 0.623224 0.344324
C161  C     C_R   0.500000 1.000000 0.953698 0.793701
C162  C     C_R   0.999999 0.500001 0.953698 0.793649
C163  C     C_R   0.500000 1.000000 0.046302 0.793643
C164  C     C_R   0.000000 0.499999 0.046302 0.793709
C165  C     C_R   0.000001 0.499997 0.453698 0.793759
C166  C     C_R   0.500000 0.000001 0.453698 0.793608
C167  C     C_R   1.000000 0.499999 0.546301 0.793645
C168  C     C_R   0.499998 0.999999 0.546302 0.793717
C169  C     C_R   0.499993 0.118793 0.999999 0.800588
C170  C     C_R   0.881207 0.500008 0.000001 0.800579
C171  C     C_R   0.500007 0.881207 0.999999 0.800590
C172  C     C_R   0.118793 0.499993 0.000001 0.800581
C173  C     C_R   0.999989 0.618795 0.499994 0.800587
C174  C     C_R   0.381208 0.000008 0.500002 0.800562
C175  C     C_R   0.000008 0.381207 0.499997 0.800552
C176  C     C_R   0.618793 0.999990 0.500005 0.800585
C177  C     C_R   0.573788 0.915880 0.776156 -0.205450
C178  C     C_R   0.084087 0.573782 0.776154 -0.205452
C179  C     C_R   0.426202 0.084124 0.776156 -0.205449
C180  C     C_R   0.915893 0.426222 0.776158 -0.205452
C181  C     C_R   0.573786 0.084092 0.223842 -0.205452
C182  C     C_R   0.084143 0.426203 0.223843 -0.205449
C183  C     C_R   0.426201 0.915919 0.223845 -0.205453
C184  C     C_R   0.915876 0.573762 0.223844 -0.205450
C185  C     C_R   0.073851 0.415899 0.276156 -0.205448
C186  C     C_R   0.584092 0.073784 0.276155 -0.205454
C187  C     C_R   0.926172 0.584061 0.276157 -0.205450
C188  C     C_R   0.415894 0.926228 0.276158 -0.205452
C189  C     C_R   0.073780 0.584088 0.723842 -0.205454
C190  C     C_R   0.584083 0.926176 0.723843 -0.205449
C191  C     C_R   0.926201 0.415910 0.723846 -0.205452
C192  C     C_R   0.415897 0.073827 0.723844 -0.205449
C193  C     C_R   0.536189 0.957553 0.813638 -0.020519
C194  C     C_R   0.042428 0.536188 0.813637 -0.020518
C195  C     C_R   0.463807 0.042451 0.813638 -0.020520
C196  C     C_R   0.957552 0.463820 0.813638 -0.020518
C197  C     C_R   0.536184 0.042437 0.186362 -0.020518
C198  C     C_R   0.042464 0.463801 0.186362 -0.020519
C199  C     C_R   0.463805 0.957571 0.186363 -0.020518
C200  C     C_R   0.957553 0.536170 0.186362 -0.020520
C201  C     C_R   0.036227 0.457548 0.313638 -0.020523
C202  C     C_R   0.542432 0.036189 0.313637 -0.020517
C203  C     C_R   0.963798 0.542406 0.313638 -0.020517
C204  C     C_R   0.457554 0.963823 0.313638 -0.020522
C205  C     C_R   0.036180 0.542430 0.686361 -0.020513
C206  C     C_R   0.542422 0.963794 0.686362 -0.020523
C207  C     C_R   0.963803 0.457562 0.686363 -0.020519
C208  C     C_R   0.457551 0.036208 0.686362 -0.020522
C209  C     C_R   0.499997 0.000002 0.800852 -0.043898
C210  C     C_R   0.999990 0.500003 0.800852 -0.043897
C211  C     C_R   0.499994 0.000004 0.199148 -0.043898
C212  C     C_R   0.000009 0.499985 0.199148 -0.043898
C213  C     C_R   0.000012 0.499978 0.300852 -0.043899
C214  C     C_R   0.499993 0.000006 0.300852 -0.043898
C215  C     C_R   0.999991 0.499997 0.699148 -0.043898
C216  C     C_R   0.499988 0.000001 0.699148 -0.043897
C217  C     C_R   0.534998 0.957843 0.838834 0.531537
C218  C     C_R   0.042139 0.534995 0.838833 0.531533
C219  C     C_R   0.465002 0.042161 0.838834 0.531536
C220  C     C_R   0.957841 0.465014 0.838834 0.531532
C221  C     C_R   0.534991 0.042147 0.161166 0.531531
C222  C     C_R   0.042172 0.464996 0.161166 0.531537
C223  C     C_R   0.464999 0.957859 0.161167 0.531533
C224  C     C_R   0.957843 0.534979 0.161167 0.531538
C225  C     C_R   0.035034 0.457836 0.338833 0.531539
C226  C     C_R   0.542143 0.034995 0.338833 0.531526
C227  C     C_R   0.964991 0.542115 0.338833 0.531541
C228  C     C_R   0.457843 0.965017 0.338834 0.531531
C229  C     C_R   0.034987 0.542139 0.661165 0.531526
C230  C     C_R   0.542131 0.964986 0.661166 0.531545
C231  C     C_R   0.964998 0.457849 0.661167 0.531532
C232  C     C_R   0.457839 0.035015 0.661167 0.531537
C233  C     C_R   0.538899 0.958681 0.762733 0.041505
C234  C     C_R   0.041296 0.538901 0.762732 0.041504
C235  C     C_R   0.461088 0.041322 0.762733 0.041504
C236  C     C_R   0.958684 0.461101 0.762734 0.041504
C237  C     C_R   0.538899 0.041306 0.237266 0.041504
C238  C     C_R   0.041337 0.461083 0.237266 0.041504
C239  C     C_R   0.461087 0.958704 0.237268 0.041504
C240  C     C_R   0.958683 0.538880 0.237267 0.041505
C241  C     C_R   0.038939 0.458681 0.262733 0.041504
C242  C     C_R   0.541301 0.038905 0.262732 0.041504
C243  C     C_R   0.961083 0.541280 0.262733 0.041506
C244  C     C_R   0.458685 0.961107 0.262734 0.041504
C245  C     C_R   0.038895 0.541302 0.737266 0.041504
C246  C     C_R   0.541297 0.961080 0.737267 0.041505
C247  C     C_R   0.961086 0.458697 0.737268 0.041504
C248  C     C_R   0.458686 0.038923 0.737267 0.041504
C249  C     C_R   0.593027 0.313255 0.025606 -0.334502
C250  C     C_R   0.686671 0.593063 0.025584 -0.334488
C251  C     C_R   0.406975 0.686741 0.025607 -0.334484
C252  C     C_R   0.313325 0.406933 0.025587 -0.334502
C253  C     C_R   0.593056 0.686679 0.974406 -0.334482
C254  C     C_R   0.686746 0.406967 0.974397 -0.334555
C255  C     C_R   0.406939 0.313327 0.974411 -0.334477
C256  C     C_R   0.313259 0.593037 0.974399 -0.334515
C257  C     C_R   0.093084 0.813251 0.525576 -0.334643
C258  C     C_R   0.186675 0.093037 0.525600 -0.334396
C259  C     C_R   0.906981 0.186753 0.525613 -0.334598
C260  C     C_R   0.813348 0.906936 0.525589 -0.334286
C261  C     C_R   0.093067 0.186673 0.474416 -0.334505
C262  C     C_R   0.186757 0.907018 0.474366 -0.334501
C263  C     C_R   0.906855 0.813370 0.474471 -0.334410
C264  C     C_R   0.813245 0.093008 0.474381 -0.334423
C265  C     C_R   0.631617 0.281891 0.041679 0.401936
C266  C     C_R   0.717998 0.631682 0.041649 0.401687
C267  C     C_R   0.368387 0.718102 0.041681 0.401975
C268  C     C_R   0.281991 0.368300 0.041646 0.401725
C269  C     C_R   0.631678 0.718017 0.958343 0.401767
C270  C     C_R   0.718109 0.368378 0.958325 0.401972
C271  C     C_R   0.368312 0.281994 0.958350 0.401748
C272  C     C_R   0.281899 0.631632 0.958327 0.401916
C273  C     C_R   0.131695 0.781886 0.541639 0.402032
C274  C     C_R   0.218009 0.131654 0.541664 0.401721
C275  C     C_R   0.868422 0.218115 0.541698 0.402099
C276  C     C_R   0.782020 0.868275 0.541639 0.401328
C277  C     C_R   0.131702 0.218007 0.458358 0.401689
C278  C     C_R   0.218121 0.868479 0.458274 0.402078
C279  C     C_R   0.868139 0.782060 0.458439 0.401286
C280  C     C_R   0.781878 0.131576 0.458301 0.402078
Cu1   Cu    Cu3+1 0.500000 0.500000 0.976050 0.881304
Cu2   Cu    Cu3+1 0.500000 0.500000 0.023950 0.881276
Cu3   Cu    Cu3+1 1.000000 0.000000 0.476050 0.881289
Cu4   Cu    Cu3+1 0.000000 0.000000 0.523950 0.881293
Cu5   Cu    Cu3+1 0.438250 0.000000 0.000000 0.917009
Cu6   Cu    Cu3+1 0.000000 0.438250 0.000000 0.917004
Cu7   Cu    Cu3+1 0.561750 0.000000 0.000000 0.917003
Cu8   Cu    Cu3+1 0.000000 0.561750 0.000000 0.917025
Cu9   Cu    Cu3+1 0.938250 0.500000 0.500000 0.917064
Cu10  Cu    Cu3+1 0.500000 0.938250 0.500000 0.917092
Cu11  Cu    Cu3+1 0.061750 0.500000 0.500000 0.916988
Cu12  Cu    Cu3+1 0.500000 0.061750 0.500000 0.917012
H1    H     H_    0.601999 0.361476 0.022502 0.172075
H2    H     H_    0.638442 0.602017 0.022479 0.172166
H3    H     H_    0.398002 0.638521 0.022503 0.172064
H4    H     H_    0.361557 0.397985 0.022486 0.172163
H5    H     H_    0.602006 0.638448 0.977505 0.172157
H6    H     H_    0.638525 0.397993 0.977503 0.172076
H7    H     H_    0.397991 0.361559 0.977511 0.172158
H8    H     H_    0.361480 0.602009 0.977504 0.172077
H9    H     H_    0.102050 0.861474 0.522470 0.172044
H10   H     H_    0.138444 0.101991 0.522500 0.172174
H11   H     H_    0.897993 0.138537 0.522505 0.172051
H12   H     H_    0.861587 0.898013 0.522496 0.172203
H13   H     H_    0.102017 0.138442 0.477519 0.172193
H14   H     H_    0.138540 0.898028 0.477471 0.172033
H15   H     H_    0.897944 0.861608 0.477573 0.172218
H16   H     H_    0.861466 0.101988 0.477483 0.172022
H17   H     H_    0.569918 0.140047 0.037177 0.183789
H18   H     H_    0.859907 0.570062 0.037148 0.183960
H19   H     H_    0.430088 0.859947 0.037179 0.183773
H20   H     H_    0.140087 0.429926 0.037145 0.183949
H21   H     H_    0.570046 0.859917 0.962849 0.183913
H22   H     H_    0.859950 0.430090 0.962821 0.183739
H23   H     H_    0.429938 0.140090 0.962853 0.183944
H24   H     H_    0.140053 0.569931 0.962825 0.183784
H25   H     H_    0.069953 0.640056 0.537165 0.183747
H26   H     H_    0.359915 0.070035 0.537153 0.183930
H27   H     H_    0.930164 0.359945 0.537196 0.183614
H28   H     H_    0.640078 0.929790 0.537117 0.184296
H29   H     H_    0.070072 0.359911 0.462852 0.183921
H30   H     H_    0.359960 0.930187 0.462800 0.183671
H31   H     H_    0.929670 0.640112 0.462909 0.184331
H32   H     H_    0.640044 0.069857 0.462814 0.183735
H33   H     H_    0.402551 0.982614 0.879911 0.148202
H34   H     H_    0.017392 0.402548 0.879911 0.148197
H35   H     H_    0.597450 0.017387 0.879910 0.148203
H36   H     H_    0.982594 0.597460 0.879910 0.148200
H37   H     H_    0.402543 0.017414 0.120089 0.148198
H38   H     H_    0.017381 0.597443 0.120090 0.148203
H39   H     H_    0.597450 0.982590 0.120090 0.148198
H40   H     H_    0.982632 0.402540 0.120090 0.148203
H41   H     H_    0.902571 0.482530 0.379910 0.148226
H42   H     H_    0.517392 0.902548 0.379911 0.148183
H43   H     H_    0.097450 0.517414 0.379911 0.148208
H44   H     H_    0.482598 0.097461 0.379910 0.148193
H45   H     H_    0.902539 0.517397 0.620089 0.148185
H46   H     H_    0.517409 0.097444 0.620089 0.148206
H47   H     H_    0.097449 0.482585 0.620090 0.148198
H48   H     H_    0.482557 0.902559 0.620091 0.148221
H49   H     H_    0.402030 0.983395 0.923813 0.157855
H50   H     H_    0.016613 0.402026 0.923813 0.157760
H51   H     H_    0.597972 0.016603 0.923812 0.157841
H52   H     H_    0.983381 0.597979 0.923812 0.157776
H53   H     H_    0.402024 0.016629 0.076187 0.157768
H54   H     H_    0.016595 0.597969 0.076188 0.157861
H55   H     H_    0.597973 0.983371 0.076188 0.157770
H56   H     H_    0.983410 0.402023 0.076188 0.157859
H57   H     H_    0.902044 0.483325 0.423812 0.158029
H58   H     H_    0.516613 0.902026 0.423813 0.157702
H59   H     H_    0.097966 0.516643 0.423813 0.157864
H60   H     H_    0.483383 0.097979 0.423812 0.157738
H61   H     H_    0.902022 0.516618 0.576187 0.157696
H62   H     H_    0.516633 0.097964 0.576187 0.157861
H63   H     H_    0.097973 0.483372 0.576188 0.157758
H64   H     H_    0.483348 0.902036 0.576189 0.157992
H65   H     H_    0.601846 0.880946 0.767956 0.140763
H66   H     H_    0.119012 0.601835 0.767953 0.140765
H67   H     H_    0.398142 0.119058 0.767956 0.140763
H68   H     H_    0.880967 0.398168 0.767958 0.140765
H69   H     H_    0.601844 0.119013 0.232042 0.140765
H70   H     H_    0.119082 0.398149 0.232043 0.140762
H71   H     H_    0.398143 0.880997 0.232046 0.140765
H72   H     H_    0.880937 0.601815 0.232044 0.140763
H73   H     H_    0.101930 0.380981 0.267956 0.140763
H74   H     H_    0.619018 0.101837 0.267954 0.140765
H75   H     H_    0.898094 0.618981 0.267957 0.140762
H76   H     H_    0.380967 0.898176 0.267958 0.140765
H77   H     H_    0.101837 0.619011 0.732041 0.140765
H78   H     H_    0.619008 0.898103 0.732043 0.140762
H79   H     H_    0.898144 0.380988 0.732047 0.140765
H80   H     H_    0.380974 0.101900 0.732044 0.140763
H81   H     H_    0.599912 0.881620 0.810446 0.186538
H82   H     H_    0.118340 0.599899 0.810443 0.186539
H83   H     H_    0.400083 0.118384 0.810446 0.186538
H84   H     H_    0.881639 0.400109 0.810449 0.186540
H85   H     H_    0.599906 0.118341 0.189552 0.186539
H86   H     H_    0.118406 0.400089 0.189552 0.186537
H87   H     H_    0.400083 0.881668 0.189556 0.186540
H88   H     H_    0.881610 0.599881 0.189554 0.186538
H89   H     H_    0.099992 0.381651 0.310446 0.186536
H90   H     H_    0.618346 0.099898 0.310444 0.186540
H91   H     H_    0.900033 0.618305 0.310447 0.186533
H92   H     H_    0.381639 0.900115 0.310448 0.186542
H93   H     H_    0.099899 0.618336 0.689551 0.186539
H94   H     H_    0.618331 0.900041 0.689553 0.186535
H95   H     H_    0.900084 0.381656 0.689557 0.186541
H96   H     H_    0.381644 0.099961 0.689554 0.186538
N1    N     N_R   0.500000 0.000002 0.850948 -0.465387
N2    N     N_R   0.999991 0.500005 0.850948 -0.465390
N3    N     N_R   0.499996 0.000003 0.149052 -0.465390
N4    N     N_R   0.000007 0.499989 0.149052 -0.465387
N5    N     N_R   0.000012 0.499974 0.350948 -0.465379
N6    N     N_R   0.499994 0.000006 0.350948 -0.465394
N7    N     N_R   0.999993 0.499993 0.649052 -0.465391
N8    N     N_R   0.499984 0.000001 0.649052 -0.465383
O1    O     O_R   0.409890 0.500000 0.979770 -0.593164
O2    O     O_R   0.500000 0.409890 0.979770 -0.593178
O3    O     O_R   0.590110 0.500000 0.979770 -0.593162
O4    O     O_R   0.500000 0.590110 0.979770 -0.593182
O5    O     O_R   0.409890 0.500000 0.020230 -0.593178
O6    O     O_R   0.500000 0.590110 0.020230 -0.593198
O7    O     O_R   0.590110 0.500000 0.020230 -0.593179
O8    O     O_R   0.500000 0.409890 0.020230 -0.593173
O9    O     O_R   0.909890 0.000000 0.479770 -0.593175
O10   O     O_R   0.000000 0.909890 0.479770 -0.593198
O11   O     O_R   0.090110 0.000000 0.479770 -0.593176
O12   O     O_R   1.000000 0.090110 0.479770 -0.593167
O13   O     O_R   0.909890 0.000000 0.520230 -0.593208
O14   O     O_R   0.000000 0.090110 0.520230 -0.593153
O15   O     O_R   0.090110 0.000000 0.520230 -0.593176
O16   O     O_R   0.000000 0.909890 0.520230 -0.593160
O17   O     O_R   0.447860 0.999990 0.965090 -0.593701
O18   O     O_R   0.000010 0.447860 0.965090 -0.593778
O19   O     O_R   0.552140 0.000010 0.965090 -0.593714
O20   O     O_R   0.999990 0.552140 0.965090 -0.593758
O21   O     O_R   0.447860 0.000010 0.034910 -0.593764
O22   O     O_R   0.000010 0.552140 0.034910 -0.593695
O23   O     O_R   0.552140 0.999990 0.034910 -0.593761
O24   O     O_R   0.999990 0.447860 0.034910 -0.593701
O25   O     O_R   0.947860 0.499990 0.465090 -0.593565
O26   O     O_R   0.500010 0.947860 0.465090 -0.593809
O27   O     O_R   0.052140 0.500010 0.465090 -0.593724
O28   O     O_R   0.499990 0.052140 0.465090 -0.593776
O29   O     O_R   0.947860 0.500010 0.534910 -0.593825
O30   O     O_R   0.500010 0.052140 0.534910 -0.593720
O31   O     O_R   0.052140 0.499990 0.534910 -0.593772
O32   O     O_R   0.499990 0.947860 0.534910 -0.593583
O33   O     O_2   0.568153 0.915912 0.851115 -0.539714
O34   O     O_2   0.084061 0.568141 0.851113 -0.539710
O35   O     O_2   0.431847 0.084092 0.851115 -0.539715
O36   O     O_2   0.915920 0.431869 0.851117 -0.539709
O37   O     O_2   0.568144 0.084064 0.148883 -0.539705
O38   O     O_2   0.084107 0.431848 0.148884 -0.539717
O39   O     O_2   0.431847 0.915942 0.148886 -0.539706
O40   O     O_2   0.915907 0.568129 0.148885 -0.539712
O41   O     O_2   0.068212 0.415923 0.351115 -0.539718
O42   O     O_2   0.584066 0.068140 0.351114 -0.539702
O43   O     O_2   0.931813 0.584027 0.351115 -0.539744
O44   O     O_2   0.415921 0.931872 0.351116 -0.539682
O45   O     O_2   0.068138 0.584057 0.648883 -0.539727
O46   O     O_2   0.584047 0.931816 0.648884 -0.539708
O47   O     O_2   0.931848 0.415930 0.648887 -0.539701
O48   O     O_2   0.415921 0.068186 0.648885 -0.539710
O49   O     O_R   0.447860 0.090180 0.999960 -0.592898
O50   O     O_R   0.909820 0.447860 0.999960 -0.592877
O51   O     O_R   0.552140 0.909820 0.999960 -0.592900
O52   O     O_R   0.090180 0.552140 0.999960 -0.592875
O53   O     O_R   0.447860 0.909820 0.000040 -0.592877
O54   O     O_R   0.909820 0.552140 0.000040 -0.592896
O55   O     O_R   0.552140 0.090180 0.000040 -0.592878
O56   O     O_R   0.090180 0.447860 0.000040 -0.592902
O57   O     O_R   0.947860 0.590180 0.499960 -0.592931
O58   O     O_R   0.409820 0.947860 0.499960 -0.592854
O59   O     O_R   0.052140 0.409820 0.499960 -0.592913
O60   O     O_R   0.590180 0.052140 0.499960 -0.592856
O61   O     O_R   0.947860 0.409820 0.500040 -0.592862
O62   O     O_R   0.409820 0.052140 0.500040 -0.592901
O63   O     O_R   0.052140 0.590180 0.500040 -0.592874
O64   O     O_R   0.590180 0.947860 0.500040 -0.592908
O65   O     O_3   0.319274 0.310944 0.947195 -0.605465
C281  C     C_3   0.338874 0.361473 0.933105 0.059165
H97   H     H_    0.330178 0.350124 0.913986 0.172233
H98   H     H_    0.388797 0.372730 0.934584 0.132608
C282  C     C_3   0.300802 0.417933 0.939823 -0.314301
H99   H     H_    0.251368 0.408504 0.936379 0.228083
H100  H     H_    0.306542 0.427393 0.959220 0.230473
C283  C     C_3   0.320355 0.474433 0.925537 -0.896861
H101  H     H_    0.368726 0.486688 0.929753 0.256435
H102  H     H_    0.290369 0.513853 0.930291 0.259986
H103  H     H_    0.315920 0.465564 0.906011 0.255095
O66   O     O_3   0.689210 0.319331 0.947165 -0.605318
C284  C     C_3   0.638604 0.338896 0.933105 0.059138
H104  H     H_    0.649883 0.330180 0.913981 0.172262
H105  H     H_    0.627315 0.388818 0.934580 0.132578
C285  C     C_3   0.582203 0.300812 0.939865 -0.314360
H106  H     H_    0.591668 0.251376 0.936431 0.228107
H107  H     H_    0.572800 0.306586 0.959266 0.230378
C286  C     C_3   0.525638 0.320310 0.925602 -0.896816
H108  H     H_    0.513348 0.368683 0.929809 0.256505
H109  H     H_    0.486263 0.290313 0.930384 0.260004
H110  H     H_    0.534448 0.315841 0.906072 0.255058
O67   O     O_3   0.680716 0.689072 0.947187 -0.605441
C287  C     C_3   0.661118 0.638540 0.933099 0.059161
H111  H     H_    0.669818 0.649884 0.913980 0.172240
H112  H     H_    0.611194 0.627284 0.934578 0.132603
C288  C     C_3   0.699188 0.582080 0.939821 -0.314311
H113  H     H_    0.748623 0.591509 0.936378 0.228088
H114  H     H_    0.693441 0.572621 0.959219 0.230465
C289  C     C_3   0.679638 0.525579 0.925536 -0.896849
H115  H     H_    0.631266 0.513324 0.929751 0.256434
H116  H     H_    0.709624 0.486160 0.930293 0.259984
H117  H     H_    0.684078 0.534447 0.906010 0.255095
O68   O     O_3   0.310803 0.680677 0.947167 -0.605367
C290  C     C_3   0.361400 0.661106 0.933103 0.059141
H118  H     H_    0.350118 0.669829 0.913980 0.172262
H119  H     H_    0.372679 0.611181 0.934576 0.132583
C291  C     C_3   0.417812 0.699175 0.939861 -0.314354
H120  H     H_    0.408356 0.748615 0.936429 0.228107
H121  H     H_    0.427221 0.693391 0.959261 0.230377
C292  C     C_3   0.474368 0.679672 0.925593 -0.896809
H122  H     H_    0.486649 0.631295 0.929797 0.256490
H123  H     H_    0.513751 0.709660 0.930374 0.259994
H124  H     H_    0.465551 0.684152 0.906064 0.255059
O69   O     O_3   0.319346 0.689200 0.052845 -0.605359
C293  C     C_3   0.338918 0.638595 0.066904 0.059159
H125  H     H_    0.330182 0.649860 0.086028 0.172269
H126  H     H_    0.388846 0.627327 0.065435 0.132558
C294  C     C_3   0.300861 0.582181 0.060137 -0.314376
H127  H     H_    0.251418 0.591628 0.063564 0.228111
H128  H     H_    0.306658 0.572787 0.040737 0.230369
C295  C     C_3   0.320364 0.525619 0.074402 -0.896786
H129  H     H_    0.368745 0.513348 0.070202 0.256494
H130  H     H_    0.290385 0.486234 0.069613 0.259987
H131  H     H_    0.315870 0.534422 0.093931 0.255051
O70   O     O_3   0.689044 0.680717 0.052804 -0.605495
C296  C     C_3   0.638499 0.661117 0.066885 0.059143
H132  H     H_    0.649868 0.669713 0.086009 0.172180
H133  H     H_    0.627175 0.611215 0.065373 0.132663
C297  C     C_3   0.582083 0.699290 0.060196 -0.314213
H134  H     H_    0.591564 0.748694 0.063686 0.228039
H135  H     H_    0.572627 0.693679 0.040792 0.230504
C298  C     C_3   0.525552 0.679710 0.074458 -0.896993
H136  H     H_    0.513234 0.631386 0.070190 0.256511
H137  H     H_    0.486174 0.709784 0.069734 0.260025
H138  H     H_    0.534421 0.683993 0.093989 0.255088
O71   O     O_3   0.680657 0.310794 0.052842 -0.605367
C299  C     C_3   0.661081 0.361392 0.066903 0.059149
H139  H     H_    0.669818 0.350121 0.086027 0.172268
H140  H     H_    0.611151 0.372657 0.065435 0.132573
C300  C     C_3   0.699133 0.417811 0.060137 -0.314372
H141  H     H_    0.748577 0.408368 0.063564 0.228110
H142  H     H_    0.693336 0.427211 0.040737 0.230370
C301  C     C_3   0.679624 0.474368 0.074403 -0.896774
H143  H     H_    0.631241 0.486636 0.070203 0.256487
H144  H     H_    0.709599 0.513756 0.069616 0.259990
H145  H     H_    0.684116 0.465559 0.093932 0.255051
O72   O     O_3   0.310940 0.319258 0.052798 -0.605467
C302  C     C_3   0.361466 0.338852 0.066890 0.059147
H146  H     H_    0.350104 0.330173 0.086009 0.172223
H147  H     H_    0.372741 0.388770 0.065405 0.132627
C303  C     C_3   0.417918 0.300758 0.060180 -0.314290
H148  H     H_    0.408475 0.251331 0.063634 0.228078
H149  H     H_    0.427385 0.306474 0.040782 0.230487
C304  C     C_3   0.474419 0.320314 0.074464 -0.896906
H150  H     H_    0.486690 0.368675 0.070238 0.256449
H151  H     H_    0.513831 0.290309 0.069718 0.260001
H152  H     H_    0.465543 0.315908 0.093991 0.255102
O73   O     O_3   0.819076 0.811054 0.447320 -0.605776
C305  C     C_3   0.838677 0.861492 0.433181 0.059097
H153  H     H_    0.830094 0.849982 0.414069 0.172136
H154  H     H_    0.888572 0.872846 0.434689 0.132757
C306  C     C_3   0.800494 0.917948 0.439805 -0.314162
H155  H     H_    0.751097 0.908443 0.436312 0.228003
H156  H     H_    0.806079 0.927522 0.459201 0.230643
C307  C     C_3   0.820097 0.974391 0.425496 -0.897077
H157  H     H_    0.868426 0.986713 0.429754 0.256425
H158  H     H_    0.790042 0.013809 0.430188 0.260050
H159  H     H_    0.815806 0.965415 0.405972 0.255165
O74   O     O_3   0.189235 0.819459 0.447090 -0.605308
C308  C     C_3   0.138558 0.839033 0.433071 0.059140
H160  H     H_    0.149727 0.830290 0.413939 0.172290
H161  H     H_    0.127308 0.888965 0.434543 0.132548
C309  C     C_3   0.082176 0.800981 0.439883 -0.314414
H162  H     H_    0.091607 0.751536 0.436453 0.228110
H163  H     H_    0.072872 0.806787 0.459289 0.230304
C310  C     C_3   0.025549 0.820477 0.425656 -0.896741
H164  H     H_    0.013300 0.868864 0.429857 0.256596
H165  H     H_    0.986185 0.790506 0.430478 0.259974
H166  H     H_    0.034260 0.815965 0.406122 0.254988
O75   O     O_3   0.180751 0.189055 0.447212 -0.605454
C311  C     C_3   0.161157 0.138547 0.433110 0.059140
H167  H     H_    0.169809 0.149944 0.413993 0.172224
H168  H     H_    0.111245 0.127250 0.434602 0.132639
C312  C     C_3   0.199275 0.082096 0.439800 -0.314271
H169  H     H_    0.248696 0.091562 0.436342 0.228088
H170  H     H_    0.193579 0.072592 0.459197 0.230507
C313  C     C_3   0.179724 0.025614 0.425505 -0.896912
H171  H     H_    0.131370 0.013322 0.429734 0.256388
H172  H     H_    0.209745 0.986203 0.430237 0.260024
H173  H     H_    0.184110 0.034526 0.405979 0.255128
O76   O     O_3   0.810771 0.180608 0.447127 -0.605337
C314  C     C_3   0.861390 0.161029 0.433077 0.059169
H174  H     H_    0.850157 0.169796 0.413952 0.172289
H175  H     H_    0.872628 0.111092 0.434539 0.132527
C315  C     C_3   0.917812 0.199051 0.439864 -0.314401
H176  H     H_    0.908388 0.248505 0.436450 0.228123
H177  H     H_    0.927186 0.193212 0.459264 0.230324
C316  C     C_3   0.974379 0.179554 0.425602 -0.896747
H178  H     H_    0.986630 0.131160 0.429791 0.256494
H179  H     H_    0.013770 0.209510 0.430403 0.259962
H180  H     H_    0.965595 0.184087 0.406073 0.255032
O77   O     O_3   0.819379 0.189226 0.552865 -0.605249
C317  C     C_3   0.838939 0.138589 0.566910 0.059150
H181  H     H_    0.830223 0.149828 0.586038 0.172280
H182  H     H_    0.888861 0.127301 0.565433 0.132557
C318  C     C_3   0.800851 0.082203 0.560134 -0.314365
H183  H     H_    0.751414 0.091671 0.563565 0.228124
H184  H     H_    0.806638 0.072829 0.540732 0.230336
C319  C     C_3   0.820328 0.025614 0.574388 -0.896830
H185  H     H_    0.868703 0.013324 0.570184 0.256511
H186  H     H_    0.790329 0.986250 0.569593 0.260008
H187  H     H_    0.815844 0.034396 0.593919 0.255043
O78   O     O_3   0.189060 0.180686 0.552822 -0.605476
C320  C     C_3   0.138531 0.161079 0.566911 0.059162
H188  H     H_    0.149878 0.169771 0.586030 0.172240
H189  H     H_    0.127278 0.111155 0.565430 0.132602
C321  C     C_3   0.082069 0.199148 0.560193 -0.314310
H190  H     H_    0.091497 0.248582 0.563637 0.228095
H191  H     H_    0.072605 0.193407 0.540796 0.230470
C322  C     C_3   0.025573 0.179592 0.574480 -0.896845
H192  H     H_    0.013316 0.131222 0.570264 0.256410
H193  H     H_    0.986152 0.209581 0.569728 0.259984
H194  H     H_    0.034446 0.184023 0.594007 0.255098
O79   O     O_3   0.180758 0.810787 0.552787 -0.605287
C323  C     C_3   0.161200 0.861359 0.566867 0.059135
H195  H     H_    0.169915 0.850033 0.585987 0.172249
H196  H     H_    0.111279 0.872660 0.565396 0.132594
C324  C     C_3   0.199288 0.917774 0.560127 -0.314344
H197  H     H_    0.248722 0.908301 0.563562 0.228094
H198  H     H_    0.193522 0.927214 0.540728 0.230403
C325  C     C_3   0.179783 0.974311 0.574405 -0.896850
H199  H     H_    0.131412 0.986608 0.570198 0.256493
H200  H     H_    0.209781 0.013697 0.569635 0.260014
H201  H     H_    0.184244 0.965464 0.593932 0.255077
O80   O     O_3   0.810994 0.819258 0.552800 -0.605781
C326  C     C_3   0.861501 0.838888 0.566894 0.059146
H202  H     H_    0.850151 0.830168 0.586012 0.172204
H203  H     H_    0.872716 0.888823 0.565422 0.132658
C327  C     C_3   0.917995 0.800865 0.560175 -0.314246
H204  H     H_    0.908610 0.751421 0.563621 0.228025
H205  H     H_    0.927445 0.806612 0.540777 0.230505
C328  C     C_3   0.974481 0.820472 0.574457 -0.896830
H206  H     H_    0.986692 0.868854 0.570240 0.256462
H207  H     H_    0.013927 0.790520 0.569702 0.259944
H208  H     H_    0.965621 0.816031 0.593985 0.255069
O81   O     O_3   0.659393 0.187150 0.061377 -0.589487
C329  C     C_3   0.713772 0.166239 0.050044 0.103096
H209  H     H_    0.750410 0.164683 0.063901 0.176704
H210  H     H_    0.730756 0.197859 0.035719 0.138683
C330  C     C_3   0.704832 0.101226 0.039980 -0.374387
H211  H     H_    0.686593 0.070640 0.054270 0.236321
H212  H     H_    0.671216 0.102324 0.025019 0.228812
C331  C     C_3   0.765140 0.074777 0.030563 -0.920559
H213  H     H_    0.783757 0.104302 0.016029 0.254824
H214  H     H_    0.756980 0.028013 0.023245 0.257929
H215  H     H_    0.799443 0.071475 0.045253 0.259698
O82   O     O_3   0.812737 0.659549 0.061324 -0.589538
C332  C     C_3   0.833442 0.713989 0.049984 0.103035
H216  H     H_    0.835126 0.750572 0.063861 0.176665
H217  H     H_    0.801615 0.731002 0.035733 0.139035
C333  C     C_3   0.898340 0.705146 0.039786 -0.374694
H218  H     H_    0.929136 0.686881 0.054006 0.236346
H219  H     H_    0.897097 0.671585 0.024809 0.228707
C334  C     C_3   0.924584 0.765515 0.030352 -0.920453
H220  H     H_    0.894841 0.784163 0.015889 0.254801
H221  H     H_    0.971262 0.757425 0.022933 0.257926
H222  H     H_    0.928035 0.799761 0.045055 0.259698
O83   O     O_3   0.340615 0.812839 0.061382 -0.589488
C335  C     C_3   0.286242 0.833766 0.050049 0.103116
H223  H     H_    0.249596 0.835300 0.063904 0.176705
H224  H     H_    0.269264 0.802168 0.035716 0.138647
C336  C     C_3   0.295188 0.898794 0.039999 -0.374356
H225  H     H_    0.313418 0.929358 0.054297 0.236318
H226  H     H_    0.328813 0.897720 0.025041 0.228817
C337  C     C_3   0.234885 0.925258 0.030583 -0.920567
H227  H     H_    0.216278 0.895757 0.016041 0.254817
H228  H     H_    0.243049 0.972034 0.023276 0.257925
H229  H     H_    0.200573 0.928535 0.045271 0.259701
O84   O     O_3   0.187246 0.340410 0.061312 -0.589535
C338  C     C_3   0.166528 0.285993 0.049959 0.103068
H230  H     H_    0.164889 0.249372 0.063823 0.176652
H231  H     H_    0.198322 0.269023 0.035689 0.138959
C339  C     C_3   0.101604 0.294847 0.039792 -0.374632
H232  H     H_    0.070837 0.313045 0.054033 0.236319
H233  H     H_    0.102797 0.328466 0.024833 0.228745
C340  C     C_3   0.075365 0.234503 0.030334 -0.920500
H234  H     H_    0.105074 0.215927 0.015846 0.254797
H235  H     H_    0.028661 0.242598 0.022941 0.257956
H236  H     H_    0.071976 0.200194 0.045019 0.259692
O85   O     O_3   0.659544 0.812759 0.938671 -0.589522
C341  C     C_3   0.713955 0.833512 0.950018 0.103081
H237  H     H_    0.750579 0.835123 0.936155 0.176668
H238  H     H_    0.730926 0.801757 0.964302 0.138886
C342  C     C_3   0.705088 0.898459 0.960160 -0.374577
H239  H     H_    0.686881 0.929187 0.945907 0.236323
H240  H     H_    0.671470 0.897297 0.975120 0.228747
C343  C     C_3   0.765427 0.924738 0.969607 -0.920502
H241  H     H_    0.784012 0.895069 0.984106 0.254791
H242  H     H_    0.757321 0.971458 0.976981 0.257943
H243  H     H_    0.799733 0.928099 0.954921 0.259697
O86   O     O_3   0.812844 0.340605 0.938624 -0.589481
C344  C     C_3   0.833805 0.286253 0.949965 0.103149
H244  H     H_    0.835276 0.249574 0.936122 0.176698
H245  H     H_    0.802264 0.269312 0.964324 0.138540
C345  C     C_3   0.898875 0.295211 0.959970 -0.374263
H246  H     H_    0.929388 0.313386 0.945643 0.236290
H247  H     H_    0.897871 0.328885 0.974911 0.228848
C346  C     C_3   0.925359 0.234930 0.969400 -0.920605
H248  H     H_    0.895916 0.216385 0.983973 0.254814
H249  H     H_    0.972171 0.243102 0.976670 0.257932
H250  H     H_    0.928558 0.200567 0.954728 0.259703
O87   O     O_3   0.340433 0.187253 0.938682 -0.589529
C347  C     C_3   0.286014 0.166526 0.950031 0.103069
H251  H     H_    0.249398 0.164891 0.936166 0.176660
H252  H     H_    0.269038 0.198310 0.964303 0.138945
C348  C     C_3   0.294869 0.101598 0.960195 -0.374624
H253  H     H_    0.313079 0.070841 0.945953 0.236328
H254  H     H_    0.328480 0.102787 0.975156 0.228741
C349  C     C_3   0.234523 0.075347 0.969647 -0.920498
H255  H     H_    0.215934 0.105048 0.984134 0.254795
H256  H     H_    0.242620 0.028641 0.977037 0.257943
H257  H     H_    0.200223 0.071959 0.954959 0.259695
O88   O     O_3   0.187161 0.659414 0.938628 -0.589496
C350  C     C_3   0.166250 0.713790 0.949964 0.103115
H258  H     H_    0.164720 0.750440 0.936109 0.176692
H259  H     H_    0.197857 0.730757 0.964295 0.138673
C351  C     C_3   0.101223 0.704858 0.960016 -0.374365
H260  H     H_    0.070646 0.686655 0.945717 0.236303
H261  H     H_    0.102292 0.671215 0.974968 0.228821
C352  C     C_3   0.074786 0.765159 0.969443 -0.920566
H262  H     H_    0.104297 0.783735 0.983989 0.254821
H263  H     H_    0.028007 0.757005 0.976750 0.257909
H264  H     H_    0.071521 0.799492 0.954762 0.259701
O89   O     O_3   0.159485 0.687156 0.561339 -0.589513
C353  C     C_3   0.213805 0.666156 0.549987 0.103140
H265  H     H_    0.250519 0.664719 0.563816 0.176695
H266  H     H_    0.230712 0.697651 0.535606 0.138482
C354  C     C_3   0.204808 0.601058 0.540016 -0.374210
H267  H     H_    0.186671 0.570591 0.554365 0.236287
H268  H     H_    0.171091 0.602021 0.525089 0.228872
C355  C     C_3   0.265055 0.574538 0.530572 -0.920658
H269  H     H_    0.283553 0.603927 0.515973 0.254831
H270  H     H_    0.256858 0.527700 0.523332 0.257946
H271  H     H_    0.299466 0.571393 0.545229 0.259707
O90   O     O_3   0.312754 0.159524 0.561333 -0.589522
C356  C     C_3   0.333471 0.213953 0.549988 0.103068
H272  H     H_    0.335125 0.250555 0.563858 0.176663
H273  H     H_    0.301670 0.230945 0.535724 0.138976
C357  C     C_3   0.398386 0.205106 0.539812 -0.374648
H274  H     H_    0.429160 0.186879 0.554045 0.236339
H275  H     H_    0.397177 0.171512 0.524845 0.228743
C358  C     C_3   0.424629 0.265461 0.530365 -0.920476
H276  H     H_    0.394909 0.284069 0.515887 0.254796
H277  H     H_    0.471323 0.257368 0.522962 0.257956
H278  H     H_    0.428041 0.299743 0.545057 0.259693
O91   O     O_3   0.840737 0.312826 0.561431 -0.589460
C359  C     C_3   0.786404 0.333915 0.550114 0.103196
H279  H     H_    0.749718 0.335282 0.563955 0.176743
H280  H     H_    0.769453 0.302515 0.535710 0.138309
C360  C     C_3   0.795410 0.399069 0.540199 -0.374062
H281  H     H_    0.813629 0.429430 0.554565 0.236303
H282  H     H_    0.829067 0.398173 0.525250 0.228840
C361  C     C_3   0.735144 0.425696 0.530818 -0.920643
H283  H     H_    0.716556 0.396410 0.516206 0.254825
H284  H     H_    0.743350 0.472571 0.523615 0.257832
H285  H     H_    0.700798 0.428786 0.545500 0.259721
O92   O     O_3   0.687231 0.840277 0.561261 -0.589584
C362  C     C_3   0.666911 0.785696 0.549918 0.102938
H286  H     H_    0.664907 0.749244 0.563842 0.176594
H287  H     H_    0.699159 0.768607 0.535828 0.139787
C363  C     C_3   0.602282 0.794327 0.539437 -0.375299
H288  H     H_    0.571053 0.812628 0.553504 0.236381
H289  H     H_    0.603872 0.827785 0.524428 0.228582
C364  C     C_3   0.576439 0.733832 0.529960 -0.920292
H290  H     H_    0.606633 0.715138 0.515649 0.254773
H291  H     H_    0.529958 0.741763 0.522332 0.257884
H292  H     H_    0.572644 0.699689 0.544689 0.259697
O93   O     O_3   0.159591 0.312746 0.438688 -0.589540
C365  C     C_3   0.213998 0.333484 0.450042 0.103068
H293  H     H_    0.250629 0.335105 0.436182 0.176658
H294  H     H_    0.230959 0.301714 0.464323 0.138928
C366  C     C_3   0.205132 0.398423 0.460193 -0.374599
H295  H     H_    0.186939 0.429166 0.445943 0.236332
H296  H     H_    0.171504 0.397250 0.475149 0.228747
C367  C     C_3   0.265468 0.424684 0.469651 -0.920512
H297  H     H_    0.284038 0.394999 0.484147 0.254795
H298  H     H_    0.257362 0.471398 0.477031 0.257971
H299  H     H_    0.299785 0.428054 0.454968 0.259696
O94   O     O_3   0.312848 0.840805 0.438546 -0.589433
C368  C     C_3   0.333860 0.786423 0.449849 0.103153
H300  H     H_    0.335338 0.749803 0.435982 0.176757
H301  H     H_    0.302348 0.769403 0.464203 0.138480
C369  C     C_3   0.398936 0.795385 0.459846 -0.374230
H302  H     H_    0.429405 0.813698 0.445532 0.236336
H303  H     H_    0.397916 0.828951 0.474825 0.228794
C370  C     C_3   0.425505 0.735067 0.469203 -0.920557
H304  H     H_    0.396100 0.716373 0.483759 0.254830
H305  H     H_    0.472314 0.743245 0.476476 0.257811
H306  H     H_    0.428736 0.700820 0.454491 0.259714
O95   O     O_3   0.840054 0.687288 0.438827 -0.589666
C371  C     C_3   0.785526 0.666956 0.450206 0.102947
H307  H     H_    0.748994 0.665023 0.436314 0.176550
H308  H     H_    0.768531 0.699159 0.464330 0.139746
C372  C     C_3   0.794185 0.602283 0.460644 -0.375217
H309  H     H_    0.812357 0.571090 0.446539 0.236345
H310  H     H_    0.827755 0.603792 0.475616 0.228610
C373  C     C_3   0.733740 0.576451 0.470176 -0.920354
H311  H     H_    0.715183 0.606600 0.484529 0.254775
H312  H     H_    0.741689 0.529930 0.477766 0.257903
H313  H     H_    0.699479 0.572749 0.455487 0.259695
O96   O     O_3   0.687140 0.159305 0.438592 -0.589474
C374  C     C_3   0.666166 0.213674 0.449915 0.103110
H314  H     H_    0.664638 0.250311 0.436056 0.176729
H315  H     H_    0.697730 0.230674 0.464255 0.138591
C375  C     C_3   0.601125 0.204701 0.459948 -0.374316
H316  H     H_    0.570599 0.186432 0.445645 0.236324
H317  H     H_    0.602193 0.171098 0.474913 0.228835
C376  C     C_3   0.574605 0.264999 0.469343 -0.920556
H318  H     H_    0.604070 0.283648 0.483888 0.254833
H319  H     H_    0.527823 0.256813 0.476641 0.257928
H320  H     H_    0.571328 0.299287 0.454646 0.259702

loop_
_geom_bond_atom_site_label_1
_geom_bond_atom_site_label_2
_ccdc_geom_bond_type
C32   C48   A    
C334  H222  S    
Cu4   O14   S    
C310  H164  S    
C312  H170  S    
C329  H209  S    
C290  H119  S    
C117  C159  A    
C191  C247  A    
C306  H155  S    
C118  C160  A    
C300  H141  S    
C335  C336  S    
C221  N3    A    
C53   C69   A    
O90   C356  S    
C42   C58   A    
C285  H107  S    
C37   H29   S    
C316  H178  S    
O86   C344  S    
C354  C355  S    
C201  C225  A    
C350  H259  S    
C175  O59   A    
C6    C85   S    
Cu12  O62   S    
C237  C242  A    
C46   C62   A    
C148  C238  A    
C100  C188  A    
C89   H81   S    
C195  C209  A    
C101  C189  A    
C58   C82   A    
C303  H148  S    
C281  H98   S    
C344  C345  S    
C351  H261  S    
C363  H289  S    
C22   C38   A    
C294  H127  S    
C356  C357  S    
Cu11  O31   S    
Cu6   Cu8   S    
C311  H168  S    
O96   C374  S    
C325  H199  S    
C64   C84   A    
C131  H59   S    
C92   C180  A    
C196  C220  A    
C5    C88   S    
C227  O43   S    
C343  H243  S    
C290  H118  S    
C299  H139  S    
C308  H161  S    
C345  H246  S    
Cu4   O15   S    
Cu3   O11   S    
C190  H78   S    
O76   C314  S    
C194  C218  A    
C208  C216  A    
C65   C257  A    
C337  H228  S    
C309  C310  S    
C330  C331  S    
C196  C210  A    
C363  C364  S    
C20   O92   S    
C273  O79   S    
C117  C133  A    
C230  N8    A    
C368  H300  S    
C109  C125  A    
C324  H198  S    
C228  N6    A    
C108  C124  A    
C17   O89   S    
C357  H275  S    
C323  H195  S    
C307  H158  S    
C339  H233  S    
C362  H287  S    
C43   C75   A    
C366  H295  S    
C332  C333  S    
Cu7   O23   S    
C1    O1    A    
O87   C347  S    
C347  C348  S    
Cu12  O60   S    
C337  H229  S    
Cu8   O54   S    
C25   C41   A    
C68   C260  A    
C23   O95   S    
C349  H255  S    
C69   C261  A    
C24   C280  A    
C329  C330  S    
C293  H125  S    
O89   C353  S    
C9    C265  A    
C28   C44   A    
C9    O81   S    
C47   C63   A    
C162  O20   A    
C284  C285  S    
C164  O22   A    
C20   C276  A    
C225  O41   S    
C197  C211  A    
C21   C277  A    
C296  C297  S    
C339  C340  S    
C91   C195  A    
C176  O64   A    
C338  H230  S    
C54   C70   A    
C11   C27   A    
C149  C243  A    
C326  C327  S    
C89   C193  A    
C295  H129  S    
C300  C301  S    
C291  H120  S    
C338  C339  S    
C138  C162  S    
C202  C214  A    
C80   C176  S    
C328  H206  S    
C208  C232  A    
C90   H82   S    
C104  H96   S    
O74   C308  S    
C322  H193  S    
C277  O75   S    
C35   C51   A    
O81   C329  S    
C228  O44   S    
C306  C307  S    
C289  H115  S    
C57   C249  A    
C251  C267  A    
C130  H58   S    
Cu10  O32   S    
C166  O26   A    
C260  H12   S    
C316  H180  S    
C225  N5    A    
C359  C360  S    
C164  O24   A    
C354  H268  S    
C227  N5    A    
C61   C253  A    
C373  H313  S    
C220  N2    A    
C148  C240  A    
C203  C213  A    
Cu1   O1    S    
C304  H150  S    
C161  O19   A    
C161  O17   A    
O70   C296  S    
C92   C196  A    
C113  H41   S    
C314  C315  S    
C17   C273  A    
C158  N6    S    
Cu6   O50   S    
C115  H43   S    
C8    O14   A    
C114  C130  A    
C72   C88   A    
C91   C179  A    
C354  H267  S    
C148  C212  A    
Cu1   Cu2   S    
C344  H244  S    
Cu5   Cu7   S    
C19   C35   A    
C373  H312  S    
C95   C183  A    
C375  H316  S    
C341  H238  S    
C176  O60   A    
C299  C300  S    
C93   C197  A    
C168  O30   A    
C345  H247  S    
C160  N8    S    
C91   H83   S    
C336  H226  S    
Cu2   O7    S    
C149  C213  A    
C174  O58   A    
C48   C64   A    
C127  H55   S    
C22   O94   S    
C217  N1    A    
C319  H185  S    
C180  C236  A    
C224  N4    A    
C317  H181  S    
C368  C369  S    
C170  O54   A    
C301  H143  S    
C2    C81   S    
C349  H256  S    
C325  H201  S    
C113  C157  A    
Cu9   O29   S    
C186  H74   S    
C111  C155  A    
C184  C240  A    
C357  C358  S    
C55   C71   A    
Cu8   O20   S    
C341  C342  S    
C104  C192  A    
C105  C153  A    
C340  H234  S    
C372  H310  S    
C298  H137  S    
C48   C76   A    
C205  C229  A    
Cu6   O24   S    
C282  C283  S    
C41   C73   A    
C195  C219  A    
C171  O51   A    
O65   C281  S    
C258  H10   S    
C1    C84   S    
C193  C217  A    
C152  C216  A    
C201  C213  A    
C315  H177  S    
C7    O11   A    
C374  H315  S    
C103  C207  A    
C197  C221  A    
C21   O93   S    
C234  C245  A    
C364  H290  S    
C136  C144  A    
C298  H138  S    
C353  H266  S    
C7    C86   S    
C194  C210  A    
C32   H24   S    
C326  H202  S    
C295  H131  S    
C181  H69   S    
C129  H57   S    
O93   C365  S    
C121  C137  A    
C76   C172  S    
Cu10  O58   S    
C327  H204  S    
C328  H208  S    
C198  C222  A    
C358  H277  S    
C232  N8    A    
C133  H61   S    
C367  H297  S    
C315  C316  S    
C125  H53   S    
C108  H36   S    
Cu11  O27   S    
C231  N7    A    
C288  C289  S    
C18   O90   S    
C36   C52   A    
C43   C59   A    
C37   C53   A    
C223  N3    A    
C155  N3    S    
Cu3   O9    S    
C292  H122  S    
C224  O40   S    
C302  C303  S    
C276  O80   S    
C376  H319  S    
C261  H13   S    
Cu1   O3    S    
C93   C181  A    
C3    C82   S    
C218  N2    A    
C162  O18   A    
C223  O39   S    
C287  H111  S    
C309  H163  S    
C282  H99   S    
C145  C209  A    
C342  H240  S    
C163  O23   A    
C190  C246  A    
C328  H207  S    
C6    O10   A    
C168  O32   A    
C370  H306  S    
C7    O15   A    
O66   C284  S    
C305  C306  S    
C169  O55   A    
C40   H32   S    
C178  C234  A    
C23   C279  A    
C184  H72   S    
C56   C72   A    
C295  H130  S    
C327  C328  S    
C347  H252  S    
Cu2   O5    S    
C365  H294  S    
C12   C268  A    
C116  C158  A    
C74   C170  S    
C13   C269  A    
C142  C166  S    
C18   C34   A    
C291  H121  S    
O67   C287  S    
C116  C132  A    
C319  H187  S    
Cu9   O57   S    
O95   C371  S    
C321  H190  S    
C106  C122  A    
C352  H262  S    
C280  O76   S    
C360  H282  S    
C51   C67   A    
C102  C206  A    
C143  C167  S    
C107  C153  A    
C110  C126  A    
C97   H89   S    
C25   H17   S    
C320  C321  S    
C59   C251  A    
Cu5   O49   S    
C310  H166  S    
C365  C366  S    
C103  C191  A    
C182  H70   S    
C235  C248  A    
C26   C42   A    
C374  H314  S    
C120  C160  A    
C318  C319  S    
C181  C237  A    
C70   C262  A    
C15   O87   S    
O92   C362  S    
C329  H210  S    
C10   C266  A    
C303  C304  S    
C99   C203  A    
C152  C246  A    
C30   C46   A    
C303  H149  S    
C38   H30   S    
C97   C201  A    
C66   C258  A    
C69   C87   A    
C120  H48   S    
C366  C367  S    
C99   H91   S    
C362  H286  S    
C22   C278  A    
C15   C31   A    
C147  C239  A    
C16   C32   A    
C249  H1    S    
C123  C137  A    
C141  C165  S    
C304  H152  S    
C56   C80   A    
C12   O84   S    
C146  C234  A    
C331  H214  S    
C139  C163  S    
C128  C140  A    
C274  O78   S    
C279  O73   S    
C264  C280  A    
Cu7   O55   S    
C351  C352  S    
C11   O83   S    
C230  O46   S    
C367  H299  S    
Cu5   O53   S    
Cu9   O61   S    
C282  H100  S    
C49   C77   A    
C290  C291  S    
C266  O70   S    
C323  C324  S    
C165  O27   A    
C51   C79   A    
Cu10  O26   S    
C96   H88   S    
C134  C144  A    
C312  H169  S    
C260  C276  A    
C261  C277  A    
C283  H101  S    
C175  O61   A    
C299  H140  S    
C308  H160  S    
C112  C156  A    
C292  H124  S    
C358  H276  S    
Cu4   O16   S    
C180  H68   S    
C151  C215  A    
C287  C288  S    
C67   C259  A    
C268  O72   S    
C18   C274  A    
C370  H304  S    
C90   C178  A    
C255  C271  A    
C145  C233  A    
C153  N1    S    
C128  H56   S    
C222  N4    A    
C360  H281  S    
C10   O82   S    
C371  C372  S    
C107  C123  A    
C118  H46   S    
C4    O6    A    
C323  H196  S    
O80   C326  S    
C136  H64   S    
C286  H110  S    
C9    C25   A    
C202  C226  A    
C222  O38   S    
C332  H217  S    
C174  O62   A    
O72   C302  S    
C267  O69   S    
C135  H63   S    
C12   C28   A    
C297  H135  S    
C94   H86   S    
C13   C29   A    
C59   C83   A    
C66   C86   A    
C256  H8    S    
C151  C247  A    
C296  H132  S    
C232  O48   S    
C98   H90   S    
C147  C211  A    
C172  O56   A    
C129  C141  A    
C33   C49   A    
C334  H220  S    
C321  C322  S    
C134  H62   S    
Cu12  O28   S    
C352  H264  S    
C231  O47   S    
C334  H221  S    
C376  H318  S    
C149  C241  A    
C114  C158  A    
C346  H250  S    
C165  O25   A    
C39   H31   S    
C252  C268  A    
C39   C55   A    
C102  H94   S    
C253  C269  A    
C369  H302  S    
C40   C56   A    
Cu8   O22   S    
C361  H284  S    
O91   C359  S    
C338  H231  S    
C259  C275  A    
C192  H80   S    
C15   C271  A    
C170  O50   A    
C47   C73   A    
C357  H274  S    
C219  N1    A    
C173  O63   A    
C348  C349  S    
C293  C294  S    
C13   O85   S    
C62   C82   A    
C312  C313  S    
C219  O35   S    
O75   C311  S    
C31   C47   A    
C27   H19   S    
C177  H65   S    
C306  H156  S    
C313  H172  S    
C17   C33   A    
C5    O13   A    
C30   H22   S    
C109  H37   S    
C285  H106  S    
C16   C272  A    
C177  C233  A    
C344  H245  S    
C71   C263  A    
C350  C351  S    
C42   C74   A    
C361  H285  S    
C72   C264  A    
O88   C350  S    
C186  C242  A    
C159  N7    S    
C291  C292  S    
C122  H50   S    
C333  H218  S    
C250  C266  A    
C33   H25   S    
C61   C83   A    
C314  H175  S    
C351  H260  S    
C185  C241  A    
C183  H71   S    
C363  H288  S    
C275  O77   S    
C179  H67   S    
C240  C243  A    
C119  C135  A    
C121  H49   S    
C311  H167  S    
C120  C136  A    
C289  H117  S    
C269  O67   S    
O73   C305  S    
C254  H6    S    
C50   C78   A    
C364  H292  S    
C166  O28   A    
C1    O5    A    
C38   C54   A    
C283  H103  S    
C298  H136  S    
C308  C309  S    
C258  C274  A    
C207  C215  A    
C28   H20   S    
C270  O66   S    
C262  H14   S    
C226  N6    A    
Cu2   O8    S    
C122  C138  A    
C337  H227  S    
C113  C129  A    
C375  C376  S    
C187  C243  A    
C8    O12   A    
C144  C168  S    
C317  H182  S    
C145  C235  A    
O84   C338  S    
C324  C325  S    
C301  H144  S    
C188  C244  A    
C140  C164  S    
C124  C138  A    
C73   C169  S    
C5    O9    A    
C307  H157  S    
C296  H133  S    
C339  H232  S    
C362  C363  S    
C31   H23   S    
C284  H105  S    
C24   C40   A    
C77   C173  S    
C300  H142  S    
C281  H97   S    
C257  C273  A    
C119  C159  A    
C286  H108  S    
C114  H42   S    
C29   H21   S    
C316  H179  S    
C192  C248  A    
C151  C245  A    
C294  C295  S    
C35   H27   S    
C14   C270  A    
C188  H76   S    
C317  C318  S    
C75   C171  S    
Cu12  O30   S    
C217  O33   S    
C251  H3    S    
C340  H236  S    
C229  N7    A    
C14   C30   A    
C41   C57   A    
C346  H248  S    
C98   C186  A    
C96   C200  A    
C36   H28   S    
C117  H45   S    
C310  H165  S    
C305  H154  S    
C100  C204  A    
C163  O21   A    
C4    C83   S    
C44   C60   A    
C369  C370  S    
C263  C279  A    
C26   H18   S    
C45   C61   A    
O78   C320  S    
C102  C190  A    
C178  H66   S    
C358  H278  S    
C104  C208  A    
C189  H77   S    
C109  C155  A    
C6    O16   A    
C152  C248  A    
C110  C156  A    
C173  O57   A    
C348  H253  S    
C313  H173  S    
C27   C43   A    
C150  C242  A    
C322  H194  S    
C21   C37   A    
O94   C368  S    
C205  C215  A    
C367  H298  S    
C29   C45   A    
O79   C323  S    
C11   C267  A    
Cu9   Cu11  S    
C167  O31   A    
C94   C182  A    
C52   C80   A    
C285  C286  S    
C24   O96   S    
C355  H270  S    
C370  H305  S    
C54   C78   A    
C375  H317  S    
C350  H258  S    
Cu3   O12   S    
C250  H2    S    
C204  C214  A    
Cu6   O18   S    
C206  C230  A    
O85   C341  S    
C278  O74   S    
Cu1   O2    S    
C281  C282  S    
C333  C334  S    
C254  C270  A    
C118  C134  A    
C110  H38   S    
Cu11  O63   S    
C287  H112  S    
O77   C317  S    
Cu11  O59   S    
C289  H116  S    
C115  C131  A    
C187  H75   S    
C125  C139  A    
C343  H242  S    
C3    O7    A    
C256  C272  A    
C318  H183  S    
C126  C140  A    
O69   C293  S    
C200  C212  A    
C49   C65   A    
C63   C81   A    
C311  C312  S    
C229  O45   S    
C53   C79   A    
C371  H308  S    
C97   C185  A    
C297  C298  S    
C373  H311  S    
C2    O2    A    
C156  N4    S    
C233  C246  A    
C341  H237  S    
C111  H39   S    
O71   C299  S    
C262  C278  A    
Cu7   O51   S    
C359  H279  S    
C302  H146  S    
C44   C76   A    
C336  C337  S    
C95   H87   S    
C371  H307  S    
Cu2   O6    S    
C221  O37   S    
C203  C227  A    
C34   H26   S    
C304  H151  S    
C100  H92   S    
C119  H47   S    
Cu6   O56   S    
C126  H54   S    
C112  C128  A    
Cu10  O64   S    
C331  H213  S    
C90   C194  A    
C93   H85   S    
C147  C237  A    
C324  H197  S    
C207  C231  A    
C146  C236  A    
C239  C244  A    
C154  N2    S    
C89   C177  A    
C204  C228  A    
C348  H254  S    
C106  C154  A    
C264  H16   S    
Cu10  Cu12  S    
C52   C68   A    
C307  H159  S    
C183  C239  A    
C10   C26   A    
C313  H171  S    
C265  O71   S    
C272  O68   S    
C320  H189  S    
C71   C85   A    
C99   C187  A    
C372  C373  S    
C340  H235  S    
C236  C247  A    
C116  H44   S    
C127  C139  A    
C96   C184  A    
C16   O88   S    
O83   C335  S    
C355  H269  S    
C146  C210  A    
C361  H283  S    
C325  H200  S    
C318  H184  S    
C132  C142  A    
C19   C275  A    
C34   C50   A    
C326  H203  S    
C315  H176  S    
C189  C245  A    
C200  C224  A    
C79   C175  S    
C374  C375  S    
C335  H223  S    
C288  H113  S    
C288  H114  S    
C179  C235  A    
C293  H126  S    
C294  H128  S    
C364  H291  S    
C353  H265  S    
C297  H134  S    
C20   C36   A    
Cu5   O17   S    
C284  H104  S    
C132  H60   S    
C103  H95   S    
C301  H145  S    
C172  O52   A    
C321  H191  S    
C94   C198  A    
C101  H93   S    
C133  C143  A    
C226  O42   S    
C157  N5    S    
C218  O34   S    
C193  C209  A    
C322  H192  S    
C169  O49   A    
C4    O4    A    
C171  O53   A    
C191  H79   S    
C198  C212  A    
C137  C161  S    
C349  H257  S    
C105  H33   S    
C356  H272  S    
C105  C121  A    
C167  O29   A    
Cu7   O19   S    
C107  H35   S    
C50   C66   A    
C46   C74   A    
C271  O65   S    
C101  C205  A    
C369  H303  S    
C343  H241  S    
C283  H102  S    
Cu3   O10   S    
C292  H123  S    
C55   C77   A    
C111  C127  A    
Cu4   O13   S    
C68   C88   A    
C376  H320  S    
C57   C81   A    
C150  C244  A    
C58   C250  A    
Cu1   O4    S    
C249  C265  A    
C255  H7    S    
C70   C86   A    
C359  H280  S    
Cu3   Cu4   S    
C253  H5    S    
C309  H162  S    
C182  C238  A    
Cu8   O52   S    
C60   C252  A    
C330  H211  S    
C342  C343  S    
C206  C216  A    
C62   C254  A    
C342  H239  S    
O68   C290  S    
C185  H73   S    
C252  H4    S    
C130  C142  A    
C98   C202  A    
Cu9   O25   S    
C319  H186  S    
O82   C332  S    
C353  C354  S    
C19   O91   S    
C366  H296  S    
C286  H109  S    
C320  H188  S    
C65   C85   A    
C305  H153  S    
C356  H273  S    
C123  H51   S    
C3    O3    A    
C332  H216  S    
C67   C87   A    
C345  C346  S    
C45   C75   A    
C8    C87   S    
C347  H251  S    
C368  H301  S    
C365  H293  S    
C263  H15   S    
C314  H174  S    
C124  H52   S    
C220  O36   S    
C63   C255  A    
C60   C84   A    
C257  H9    S    
C331  H215  S    
C23   C39   A    
C108  C154  A    
C259  H11   S    
C135  C143  A    
C352  H263  S    
Cu5   O21   S    
C360  C361  S    
C199  C211  A    
C150  C214  A    
C92   H84   S    
C302  H147  S    
C238  C241  A    
C106  H34   S    
C346  H249  S    
C131  C141  A    
C112  H40   S    
C336  H225  S    
C199  C223  A    
C327  H205  S    
C95   C199  A    
C372  H309  S    
C78   C174  S    
C333  H219  S    
C330  H212  S    
C115  C157  A    
C2    O8    A    
C355  H271  S    
C14   O86   S    
C335  H224  S    
C64   C256  A    
