data_mof_unit_15956.cif
_audit_creation_date              2012-12-10T19:16:29-0500
_audit_creation_method            fapswitch 2.2
_symmetry_space_group_name_H-M    P1
_symmetry_Int_Tables_number       1
_space_group_crystal_system       triclinic
_cell_length_a                    10.625275
_cell_length_b                    9.679366
_cell_length_c                    27.726844
_cell_angle_alpha                 89.979569
_cell_angle_beta                  89.924564
_cell_angle_gamma                 89.97318
_cell_volume                      2851.58996984

loop_
_atom_site_label
_atom_site_type_symbol
_atom_type_description
_atom_site_fract_x
_atom_site_fract_y
_atom_site_fract_z
_atom_type_partial_charge
C1    C     C_R   0.257556 0.500307 0.500027 0.838919
C2    C     C_R   0.398678 0.565802 0.974592 0.045238
C3    C     C_R   0.618345 0.483737 0.974573 0.062816
C4    C     C_R   0.499755 0.500026 0.405874 0.941865
C5    C     C_R   0.507722 0.522411 0.949359 0.067330
C6    C     C_R   0.294538 0.614884 0.947916 -0.221480
C7    C     C_R   0.295133 0.613087 0.897885 -0.130187
C8    C     C_R   0.399037 0.561451 0.872807 -0.020588
C9    C     C_R   0.505449 0.515417 0.898411 -0.055681
C10   C     C_R   0.609198 0.461306 0.873048 -0.019606
C11   C     C_R   0.605570 0.456660 0.822661 0.509916
C12   C     C_R   0.473581 0.388841 0.275611 0.604004
C13   C     C_R   0.399475 0.555126 0.822432 0.503553
C14   C     C_R   0.495914 0.376684 0.722522 -0.097369
C15   C     C_R   0.495494 0.375528 0.672397 -0.227775
C16   C     C_R   0.742667 0.500265 0.500040 0.841052
C17   C     C_R   0.506792 0.626317 0.671794 -0.226315
C18   C     C_R   0.507389 0.627095 0.721849 -0.100550
C19   C     C_R   0.501799 0.502447 0.747214 0.318230
C20   C     C_R   0.396783 0.556909 0.025463 0.079086
C21   C     C_R   0.510519 0.529386 0.050599 0.015024
C22   C     C_R   0.624462 0.503412 0.025241 -0.070770
C23   C     C_R   0.506765 0.512011 0.252575 0.124757
C24   C     C_R   0.284199 0.572329 0.052110 -0.223029
C25   C     C_R   0.736846 0.502782 0.102035 -0.232482
C26   C     C_R   0.716486 0.419901 0.948377 -0.144943
C27   C     C_R   0.712823 0.410815 0.898460 -0.163074
C28   C     C_R   0.500215 0.500021 0.594051 0.877987
C29   C     C_R   0.739890 0.499142 0.051406 0.514237
C30   C     C_3   0.071473 0.652351 0.500733 -0.398338
C31   C     C_3   0.072212 0.424748 0.545408 -0.397255
C32   C     C_3   0.928606 0.652316 0.500483 -0.395169
C33   C     C_3   0.927771 0.425289 0.545537 -0.399234
C34   C     C_R   0.509971 0.527851 0.101533 -0.054010
C35   C     C_3   0.072487 0.428206 0.454052 -0.411610
C36   C     C_3   0.121297 0.501346 0.500057 0.187303
C37   C     C_3   0.878915 0.501264 0.500068 0.178939
C38   C     C_3   0.928064 0.427377 0.454204 -0.391148
C39   C     C_3   0.371576 0.081414 0.491093 -0.232261
C40   C     C_3   0.371611 0.918773 0.490973 -0.234497
C41   C     C_3   0.581946 0.081390 0.460340 -0.226639
C42   C     C_3   0.582042 0.918593 0.460368 -0.233726
C43   C     C_3   0.546041 0.081204 0.545385 -0.233355
C44   C     C_3   0.545879 0.918668 0.545407 -0.231036
C45   C     C_R   0.396118 0.543814 0.127086 -0.010692
C46   C     C_R   0.397294 0.537878 0.177446 0.576338
C47   C     C_R   0.620127 0.506999 0.177517 0.593140
C48   C     C_R   0.536690 0.629417 0.279275 -0.183233
C49   C     C_R   0.533896 0.624278 0.329229 -0.286642
C50   C     C_R   0.467902 0.383144 0.325911 0.385259
C51   C     C_3   0.303328 0.255189 0.352348 -0.237291
C52   C     C_3   0.945504 0.421504 0.043643 -0.362572
C53   C     C_R   0.283964 0.564868 0.102016 -0.134367
C54   C     C_R   0.623104 0.510963 0.127054 -0.107085
C55   C     C_R   0.500521 0.501487 0.353070 -0.250887
C56   C     C_R   0.500780 0.500482 0.646721 -0.045160
F1    F     F_    0.446024 0.274931 0.249092 -0.635520
H1    H     H_    0.562192 0.724580 0.261191 0.188081
H2    H     H_    0.107722 0.475931 0.578670 0.165041
H3    H     H_    0.893664 0.708151 0.532991 0.171481
H4    H     H_    0.892694 0.477541 0.578706 0.165417
H5    H     H_    0.894687 0.709248 0.468070 0.171181
H6    H     H_    0.892881 0.316848 0.546300 0.172262
H7    H     H_    0.107158 0.482946 0.421315 0.157866
H8    H     H_    0.107733 0.319942 0.452405 0.165898
H9    H     H_    0.892380 0.480402 0.421300 0.165941
H10   H     H_    0.893986 0.318653 0.453096 0.171890
H11   H     H_    0.333223 0.120481 0.456388 0.151307
H12   H     H_    0.824187 0.503033 0.122021 0.200870
H13   H     H_    0.333613 0.880272 0.456104 0.148646
H14   H     H_    0.306977 0.119097 0.519829 0.143260
H15   H     H_    0.306776 0.880798 0.519574 0.144700
H16   H     H_    0.549852 0.119224 0.424566 0.204094
H17   H     H_    0.550091 0.880720 0.424580 0.157997
H18   H     H_    0.642714 0.120005 0.552672 0.144751
H19   H     H_    0.642430 0.879535 0.552788 0.143589
H20   H     H_    0.485877 0.118743 0.575490 0.147645
H21   H     H_    0.485434 0.881355 0.575464 0.147865
H22   H     H_    0.679752 0.119986 0.465020 0.140229
H23   H     H_    0.794666 0.369853 0.965826 0.188828
H24   H     H_    0.679871 0.880048 0.465122 0.142951
H25   H     H_    0.195189 0.576109 0.120888 0.188193
H26   H     H_    0.490748 0.277227 0.653855 0.148657
H27   H     H_    0.491324 0.280212 0.742236 0.140562
H28   H     H_    0.213138 0.651524 0.878948 0.194400
H29   H     H_    0.212141 0.658658 0.964739 0.156702
H30   H     H_    0.193691 0.585685 0.035271 0.150906
H31   H     H_    0.558890 0.716424 0.349177 0.192732
H32   H     H_    0.256804 0.258447 0.316417 0.202557
H33   H     H_    0.267652 0.340304 0.375601 0.125586
H34   H     H_    0.511304 0.724019 0.652836 0.148959
H35   H     H_    0.276868 0.156115 0.369697 0.165941
H36   H     H_    0.905312 0.317731 0.051822 0.168240
H37   H     H_    0.995854 0.463494 0.075474 0.185148
H38   H     H_    0.016317 0.407218 0.014630 0.197913
H39   H     H_    0.791248 0.362755 0.879914 0.193831
H40   H     H_    0.512390 0.724378 0.741035 0.139816
H41   H     H_    0.106280 0.710192 0.468628 0.171449
H42   H     H_    0.106517 0.316033 0.545785 0.170726
H43   H     H_    0.105385 0.707271 0.533542 0.170211
N1    N     N_R   0.508145 0.518782 0.201319 -0.324485
N2    N     N_R   0.502051 0.504046 0.798605 -0.357976
N3    N     N_3   0.499750 0.138610 0.498940 -0.037959
N4    N     N_3   0.499750 0.861390 0.498940 -0.034043
O1    O     O_R   0.314910 0.616040 0.499990 -0.636203
O2    O     O_2   0.298138 0.598793 0.797357 -0.557597
O3    O     O_2   0.727749 0.490307 0.202686 -0.546135
O4    O     O_2   0.705021 0.406819 0.797798 -0.557414
O5    O     O_3   0.435485 0.260264 0.348074 -0.581967
O6    O     O_3   0.853704 0.516331 0.027255 -0.609313
O7    O     O_R   0.314910 0.383960 0.499990 -0.638040
O8    O     O_R   0.500140 0.616020 0.428740 -0.635238
O9    O     O_R   0.500140 0.383980 0.428740 -0.578430
O10   O     O_R   0.685320 0.616040 0.499970 -0.636291
O11   O     O_R   0.685320 0.383960 0.499970 -0.636129
O12   O     O_R   0.500090 0.616050 0.571230 -0.629920
O13   O     O_R   0.500090 0.383950 0.571230 -0.630583
O14   O     O_2   0.288925 0.551367 0.202491 -0.548920
Zn1   Zn    Zn3+2 0.500150 0.654960 0.499980 0.904286
Zn2   Zn    Zn3+2 0.500150 0.345040 0.499980 0.918616

loop_
_geom_bond_atom_site_label_1
_geom_bond_atom_site_label_2
_ccdc_geom_bond_type
C10   C27   A    
C8    C13   A    
C47   N1    A    
C22   C29   A    
C41   C42   S    
C35   C36   S    
C17   H34   S    
C14   H27   S    
C44   N4    S    
C7    C8    A    
C23   N1    S    
C45   C46   A    
C12   C23   A    
C26   C27   A    
C40   H13   S    
C28   O13   A    
C51   H33   S    
C19   N2    S    
C35   H8    S    
C30   H43   S    
C46   O14   S    
C52   H38   S    
C18   C19   A    
C39   H11   S    
C31   H2    S    
C44   H19   S    
C28   O12   A    
C20   C24   A    
C8    C9    A    
C31   C33   S    
C52   H37   S    
C35   H7    S    
C18   H40   S    
C31   H42   S    
C9    C10   A    
O10   Zn1   S    
C16   C37   S    
N4    Zn1   S    
C4    O8    A    
C45   C53   A    
C51   O5    S    
C21   C22   A    
C25   C29   A    
C49   H31   S    
C27   H39   S    
C2    C6    A    
C42   H24   S    
C43   N3    S    
C43   H18   S    
C46   N1    A    
C42   H17   S    
C2    C20   A    
C38   H9    S    
C4    O9    A    
C35   C38   S    
C25   C54   A    
O13   Zn2   S    
C39   C40   S    
C15   H26   S    
C21   C34   A    
C24   C53   A    
C49   C55   A    
C50   O5    S    
C33   C37   S    
C41   N3    S    
C42   N4    S    
O7    Zn2   S    
C43   C44   S    
C5    C9    A    
C37   C38   S    
C51   H35   S    
C40   N4    S    
O9    Zn2   S    
C29   O6    S    
C52   O6    S    
C33   H6    S    
C17   C18   A    
C52   H36   S    
C34   C45   A    
C32   C37   S    
C38   H10   S    
C39   N3    S    
C17   C56   A    
C47   C54   A    
C12   F1    S    
C48   C49   A    
C34   C54   A    
C47   O3    S    
C4    C55   S    
C2    C5    A    
C25   H12   S    
C32   H3    S    
C16   O11   A    
C23   C48   A    
C40   H15   S    
C14   C15   A    
C14   C19   A    
C3    C26   A    
O1    Zn1   S    
C13   O2    S    
C3    C5    A    
C16   O10   A    
C41   H22   S    
O8    Zn1   S    
C12   C50   A    
C48   H1    S    
C6    C7    A    
C43   H20   S    
C30   H41   S    
C50   C55   A    
C6    H29   S    
O12   Zn1   S    
C30   C36   S    
C15   C56   A    
C44   H21   S    
C32   H5    S    
C1    O7    A    
C30   C32   S    
C7    H28   S    
C28   C56   S    
N3    Zn2   S    
C11   N2    A    
C24   H30   S    
C26   H23   S    
C10   C11   A    
C41   H16   S    
C20   C21   A    
C33   H4    S    
O11   Zn2   S    
C11   O4    S    
C39   H14   S    
C31   C36   S    
C53   H25   S    
C3    C22   A    
C13   N2    A    
C51   H32   S    
C1    C36   S    
C1    O1    A    
