data_mof_unit_39394.cif
_audit_creation_date              2012-12-11T16:14:41-0500
_audit_creation_method            fapswitch 2.2
_symmetry_space_group_name_H-M    P1
_symmetry_Int_Tables_number       1
_space_group_crystal_system       triclinic
_cell_length_a                    13.550847
_cell_length_b                    13.547809
_cell_length_c                    28.448013
_cell_angle_alpha                 90.360779
_cell_angle_beta                  90.240619
_cell_angle_gamma                 60.219001
_cell_volume                      4532.76613254

loop_
_atom_site_label
_atom_site_type_symbol
_atom_type_description
_atom_site_fract_x
_atom_site_fract_y
_atom_site_fract_z
_atom_type_partial_charge
C1    C     C_R   0.279188 0.620802 0.566387 0.548880
C2    C     C_1   0.648673 0.652097 0.652808 -0.005016
C3    C     C_1   0.633873 0.229907 0.611544 -0.004735
C4    C     C_R   0.621796 0.600979 0.566675 0.544732
C5    C     C_R   0.745722 0.200984 0.726738 -0.086967
C6    C     C_R   0.755432 0.186036 0.775783 0.277795
C7    C     C_R   0.614122 0.125269 0.773091 -0.156933
C8    C     C_R   0.606437 0.138229 0.724410 -0.128582
C9    C     C_R   0.672035 0.176107 0.701174 -0.004482
C10   C     C_R   0.687099 0.150507 0.798929 0.048734
C11   C     C_1   0.697704 0.129586 0.848658 -0.012590
C12   C     C_1   0.638758 0.633481 0.612330 0.004844
C13   C     C_1   0.654762 0.200553 0.651875 -0.048529
C14   C     C_1   0.707336 0.102533 0.889335 -0.012980
C15   C     C_1   0.228630 0.638855 0.611880 -0.006539
C16   C     C_R   0.600645 0.279300 0.565935 0.547574
C17   C     C_R   0.156696 0.588160 0.725424 -0.166605
C18   C     C_R   0.146291 0.592466 0.774177 -0.162719
C19   C     C_R   0.172965 0.757770 0.776637 0.297191
C20   C     C_R   0.180734 0.755066 0.727407 0.325678
C21   C     C_R   0.174092 0.668369 0.701767 -0.009243
C22   C     C_R   0.155193 0.675822 0.800075 -0.014673
C23   C     C_3   0.767950 0.658382 0.761182 -0.159733
C24   C     C_1   0.133335 0.683611 0.849782 -0.070318
C25   C     C_1   0.198355 0.652726 0.652237 -0.058001
C26   C     C_1   0.105658 0.698713 0.890460 -0.015925
C27   C     C_1   0.638034 0.633562 0.388816 0.019242
C28   C     C_R   0.276371 0.621098 0.434510 0.542102
C29   C     C_R   0.735541 0.567846 0.272410 0.272884
C30   C     C_R   0.735888 0.573682 0.223320 0.209927
C31   C     C_R   0.592840 0.776181 0.227328 0.214282
C32   C     C_R   0.592931 0.769522 0.277150 0.195823
C33   C     C_R   0.661423 0.664455 0.298996 -0.017043
C34   C     C_3   0.671351 0.678886 0.795626 0.000428
C35   C     C_R   0.665708 0.678899 0.200851 -0.022546
C36   C     C_1   0.675419 0.690813 0.151062 0.015437
C37   C     C_1   0.649626 0.652084 0.348539 0.048066
C38   C     C_1   0.692383 0.701709 0.110489 0.016520
C39   C     C_1   0.634858 0.225764 0.388933 0.003706
C40   C     C_R   0.620520 0.600515 0.434191 0.539003
C41   C     C_R   0.598383 0.148866 0.276039 -0.154687
C42   C     C_R   0.599218 0.142068 0.226998 0.222585
C43   C     C_R   0.751527 0.190013 0.224975 0.275777
C44   C     C_R   0.750761 0.195435 0.274156 0.323531
C45   C     C_3   0.745049 0.571350 0.735046 0.268838
C46   C     C_R   0.673187 0.174835 0.299520 -0.054963
C47   C     C_R   0.675770 0.162486 0.201559 0.005918
C48   C     C_1   0.684760 0.139780 0.152165 0.006538
C49   C     C_1   0.656520 0.196257 0.348824 -0.051428
C50   C     C_1   0.695682 0.108976 0.112102 0.025196
C51   C     C_1   0.224490 0.637727 0.389740 0.007411
C52   C     C_R   0.600436 0.277247 0.433814 0.548959
C53   C     C_R   0.069185 0.675144 0.281983 0.253416
C54   C     C_R   0.055412 0.678387 0.232954 -0.099510
C55   C     C_R   0.254534 0.621009 0.222000 -0.110856
C56   C     C_3   0.657664 0.665418 0.703172 0.031400
C57   C     C_R   0.269014 0.617032 0.270453 -0.150057
C58   C     C_R   0.176588 0.645468 0.300276 0.074795
C59   C     C_R   0.147639 0.652754 0.203390 0.009888
C60   C     C_1   0.128468 0.669723 0.154174 -0.038331
C61   C     C_1   0.195579 0.644029 0.349609 0.011576
C62   C     C_1   0.101728 0.691957 0.113891 0.005910
C63   C     C_R   0.720737 0.055172 0.935236 0.537593
C64   C     C_3   0.679028 0.754627 0.728820 -0.189632
C65   C     C_R   0.730539 0.717521 0.932355 0.541460
C66   C     C_R   0.057411 0.729404 0.936414 0.545859
C67   C     C_3   0.651081 0.589220 0.770331 -0.083755
C68   C     C_R   0.714460 0.056458 0.067307 0.547870
C69   C     C_R   0.725607 0.717269 0.064826 0.542197
C70   C     C_R   0.053607 0.727528 0.068629 0.549110
C71   C     C_3   0.584172 0.773497 0.763941 0.290970
C72   C     C_1   0.698756 0.700810 0.886562 0.007469
C73   C     C_3   0.438551 0.953367 0.746334 0.025678
C74   C     C_3   0.341125 0.061588 0.767602 -0.247223
C75   C     C_3   0.271610 0.147847 0.729768 -0.493968
C76   C     C_3   0.898475 0.457938 0.314819 0.032025
C77   C     C_3   0.995115 0.420359 0.279030 -0.229044
C78   C     C_3   0.564337 0.684985 0.738514 0.225129
C79   C     C_3   0.107020 0.391899 0.303089 -0.479473
C80   C     C_3   0.916848 0.464430 0.696870 0.011723
C81   C     C_3   0.986100 0.353408 0.669630 -0.254662
C82   C     C_3   0.086143 0.351145 0.644199 -0.483855
C83   C     C_3   0.941042 0.133094 0.790505 0.029920
C84   C     C_3   0.018360 0.131852 0.830041 -0.237766
C85   C     C_3   0.995456 0.089760 0.876211 -0.372885
C86   C     C_1   0.681966 0.689548 0.846019 -0.005584
Cr1   Cr    Cr6+3 0.413560 0.417690 0.499580 1.035530
Cr2   Cr    Cr6+3 0.418030 0.668340 0.500400 1.052239
Cr3   Cr    Cr6+3 0.668390 0.413960 0.499990 1.035073
Cr4   Cr    Cr6+3 0.919710 0.916540 0.003080 1.030836
Cr5   Cr    Cr6+3 0.665300 0.919470 0.999630 1.063463
Cr6   Cr    Cr6+3 0.916060 0.665490 0.000390 1.040784
H1    H     H_    0.547957 0.120656 0.704952 0.111888
H2    H     H_    0.852435 0.646112 0.771488 0.113908
H3    H     H_    0.794081 0.233469 0.708834 0.137554
H4    H     H_    0.563303 0.095233 0.790655 0.132915
H5    H     H_    0.402080 0.915735 0.721639 0.198728
H6    H     H_    0.495235 0.976048 0.726686 0.111906
H7    H     H_    0.284714 0.039470 0.787630 0.192634
H8    H     H_    0.375862 0.100544 0.792342 0.166464
H9    H     H_    0.326066 0.172637 0.709743 0.146343
H10   H     H_    0.201697 0.225120 0.746533 0.143860
H11   H     H_    0.233938 0.111504 0.705194 0.165772
H12   H     H_    0.152409 0.521215 0.706137 0.117242
H13   H     H_    0.185853 0.830198 0.834385 0.317502
H14   H     H_    0.191570 0.833363 0.671640 0.324436
H15   H     H_    0.926820 0.393588 0.343230 0.166796
H16   H     H_    0.880998 0.539330 0.331943 0.117745
H17   H     H_    0.006314 0.344017 0.259606 0.241200
H18   H     H_    0.973234 0.489807 0.253387 0.172095
H19   H     H_    0.097013 0.465173 0.324436 0.185829
H20   H     H_    0.173505 0.371623 0.276116 0.161500
H21   H     H_    0.135219 0.316986 0.326315 0.157472
H22   H     H_    0.791672 0.485745 0.164873 0.323562
H23   H     H_    0.130791 0.530698 0.791746 0.126498
H24   H     H_    0.452179 0.920459 0.222333 0.335616
H25   H     H_    0.518285 0.932112 0.289054 0.326690
H26   H     H_    0.478073 0.104194 0.226168 0.327503
H27   H     H_    0.814193 0.215103 0.167262 0.316162
H28   H     H_    0.823389 0.216093 0.330156 0.321967
H29   H     H_    0.911350 0.718786 0.293508 0.316415
H30   H     H_    0.417730 0.709112 0.755975 0.358052
H31   H     H_    0.972653 0.472589 0.723585 0.128369
H32   H     H_    0.886110 0.536399 0.671613 0.130661
H33   H     H_    0.018552 0.280561 0.694311 0.164305
H34   H     H_    0.537921 0.135606 0.295981 0.122111
H35   H     H_    0.930374 0.343865 0.643366 0.183264
H36   H     H_    0.055282 0.422022 0.618613 0.155296
H37   H     H_    0.134634 0.269392 0.624885 0.155680
H38   H     H_    0.144022 0.358802 0.669811 0.142470
H39   H     H_    0.965138 0.159716 0.757588 0.131327
H40   H     H_    0.956489 0.044588 0.785678 0.158528
H41   H     H_    0.108240 0.074649 0.819824 0.151380
H42   H     H_    0.005658 0.218815 0.835191 0.169115
H43   H     H_    0.005090 0.003943 0.871473 0.165876
H44   H     H_    0.908191 0.149483 0.888909 0.190333
H45   H     H_    0.690373 0.821597 0.711583 0.107783
H46   H     H_    0.057087 0.084542 0.903290 0.131561
H47   H     H_    0.972657 0.703520 0.217875 0.102960
H48   H     H_    0.325684 0.602030 0.199170 0.134317
H49   H     H_    0.352029 0.593707 0.284759 0.127775
H50   H     H_    0.640209 0.521606 0.787248 0.142689
O1    O     O_R   0.503010 0.303330 0.550820 -0.507439
O2    O     O_R   0.827060 0.642880 0.947470 -0.509351
O3    O     O_R   0.013800 0.673690 0.954100 -0.492161
O4    O     O_R   0.320040 0.522690 0.547470 -0.496412
O5    O     O_R   0.031250 0.825430 0.055080 -0.499079
O6    O     O_R   0.814180 0.011990 0.050320 -0.500948
O7    O     O_R   0.640680 0.032900 0.051920 -0.483589
O8    O     O_R   0.671090 0.815590 0.046300 -0.479050
O9    O     O_R   0.822940 0.642440 0.050310 -0.511250
O10   O     O_R   0.009970 0.673280 0.049430 -0.494260
O11   O     O_3   0.833690 0.833830 0.001040 -0.257458
O12   O     O_R   0.522480 0.657560 0.452870 -0.488175
O13   O     O_R   0.303930 0.694040 0.551750 -0.502778
O14   O     O_R   0.523510 0.657900 0.548240 -0.489565
O15   O     O_R   0.694770 0.503160 0.551780 -0.511158
O16   O     O_R   0.657990 0.319990 0.547370 -0.494056
O17   O     O_R   0.501900 0.302960 0.447930 -0.505395
O18   O     O_R   0.319020 0.522350 0.452090 -0.499286
O19   O     O_R   0.302820 0.693680 0.448870 -0.500002
O20   O     O_3   0.499026 0.877408 0.782988 -0.556486
O21   O     O_3   0.182362 0.842550 0.800064 -0.693190
O22   O     O_3   0.196849 0.837648 0.706192 -0.653206
O23   O     O_R   0.693670 0.502790 0.448900 -0.510191
O24   O     O_3   0.800959 0.463284 0.293790 -0.483233
O25   O     O_3   0.806358 0.474428 0.199030 -0.638142
O26   O     O_3   0.521766 0.875131 0.203442 -0.665067
O27   O     O_3   0.528440 0.863261 0.305311 -0.693097
O28   O     O_3   0.526709 0.114865 0.203150 -0.649564
O29   O     O_3   0.828520 0.210873 0.201506 -0.603748
O30   O     O_3   0.825895 0.222829 0.295642 -0.595081
O31   O     O_3   0.979869 0.701725 0.312253 -0.709719
O32   O     O_3   0.458155 0.699574 0.725878 -0.669024
O33   O     O_3   0.826027 0.461335 0.719514 -0.555093
O34   O     O_R   0.656970 0.319650 0.452000 -0.495646
O35   O     O_3   0.826582 0.211471 0.801739 -0.559910
O36   O     O_3   0.499990 0.499990 0.499990 -0.254172
O37   O     O_R   0.035380 0.825870 0.952240 -0.515664
O38   O     O_R   0.818010 0.012400 0.954990 -0.504007
O39   O     O_R   0.644810 0.033340 0.949080 -0.502668
O40   O     O_R   0.674910 0.816000 0.950960 -0.491409

loop_
_geom_bond_atom_site_label_1
_geom_bond_atom_site_label_2
_ccdc_geom_bond_type
C7    C10   A    
C32   O27   S    
C63   O39   A    
C71   O20   S    
C55   C59   A    
C41   C42   A    
C35   C36   S    
C51   C61   T    
C2    C12   T    
C81   C82   S    
C53   O31   S    
H22   O25   S    
C53   C54   A    
C73   H5    S    
C7    H4    S    
C46   C49   S    
C84   H42   S    
Cr4   O5    S    
C79   H20   S    
C83   C84   S    
C23   C45   S    
C69   O8    A    
Cr2   O14   S    
Cr1   O4    S    
C17   H12   S    
C24   C26   T    
C30   O25   S    
Cr5   O11   S    
C45   O33   S    
C34   C86   S    
C5    C6    A    
C11   C14   T    
C15   C25   T    
H26   O28   S    
Cr2   O19   S    
C20   O22   S    
C29   C33   A    
C28   O18   A    
C56   C78   S    
Cr1   O18   S    
C62   C70   S    
C60   C62   T    
C73   C74   S    
C64   C71   S    
C1    O13   A    
C9    C13   S    
C66   O3    A    
Cr4   O6    S    
C68   O7    A    
C42   O28   S    
H29   O31   S    
C19   C20   A    
C45   C56   S    
C8    C9    A    
C45   C67   S    
C75   H10   S    
C41   C46   A    
H13   O21   S    
C76   O24   S    
Cr6   O11   S    
C1    C15   S    
H14   O22   S    
C4    C12   S    
C29   C30   A    
C79   H21   S    
C52   O34   A    
C3    C13   T    
C64   H45   S    
C81   H33   S    
C58   C61   S    
C48   C50   T    
C39   C52   S    
C38   C69   S    
C59   C60   S    
C76   H16   S    
C81   H35   S    
C75   H11   S    
C40   O12   A    
C1    O4    A    
C67   C78   S    
C5    H3    S    
C44   C46   A    
C28   O19   A    
C54   C59   A    
C77   C79   S    
C73   H6    S    
Cr4   O38   S    
C84   H41   S    
C74   C75   S    
C83   O35   S    
C16   O16   A    
C26   C66   S    
C47   C48   S    
C7    C8    A    
C19   C22   A    
C70   O10   A    
C76   C77   S    
Cr5   O7    S    
C65   O2    A    
C43   O29   S    
H28   O30   S    
C74   H8    S    
H30   O32   S    
C4    O15   A    
C33   C37   S    
C55   H48   S    
Cr4   O11   S    
C69   O9    A    
C29   O24   S    
C34   C67   S    
C43   C44   A    
C44   O30   S    
C5    C9    A    
C73   O20   S    
C54   H47   S    
C27   C40   S    
C23   C34   S    
C82   H36   S    
C34   C71   S    
C16   O1    A    
Cr6   O9    S    
C56   C64   S    
C17   C18   A    
C19   O21   S    
Cr3   O36   S    
C84   C85   S    
C82   H37   S    
C77   H17   S    
Cr3   O23   S    
C40   O23   A    
C85   H43   S    
C30   C35   A    
C23   C64   S    
C39   C49   T    
C76   H15   S    
C55   C57   A    
C6    O35   S    
C31   C35   A    
C82   H38   S    
C78   O32   S    
C80   H32   S    
C21   C25   S    
Cr4   O37   S    
C4    O14   A    
Cr6   O3    S    
C18   C22   A    
C41   H34   S    
C31   C32   A    
C8    H1    S    
C80   O33   S    
C80   C81   S    
C68   O6    A    
C18   H23   S    
C6    C10   A    
Cr5   O8    S    
C72   C86   T    
C53   C58   A    
Cr3   O15   S    
C74   H7    S    
C79   H19   S    
C65   C72   S    
C66   O37   A    
C23   H2    S    
C57   H49   S    
C32   C33   A    
Cr5   O39   S    
C83   H39   S    
C83   H40   S    
C2    C56   S    
Cr1   O36   S    
Cr3   O16   S    
C57   C58   A    
C43   C47   A    
C52   O17   A    
C14   C63   S    
C85   H46   S    
C36   C38   T    
C28   C51   S    
Cr1   O17   S    
C22   C24   S    
C42   C47   A    
C65   O40   A    
C77   H18   S    
Cr6   O2    S    
C17   C21   A    
C10   C11   S    
C63   O38   A    
C85   H44   S    
H25   O27   S    
Cr6   O10   S    
C31   O26   S    
C20   C21   A    
Cr2   O13   S    
Cr5   O40   S    
H27   O29   S    
C75   H9    S    
H24   O26   S    
C70   O5    A    
Cr3   O34   S    
Cr1   O1    S    
C67   H50   S    
C50   C68   S    
Cr2   O36   S    
C71   C78   S    
C3    C16   S    
C27   C37   T    
Cr2   O12   S    
C80   H31   S    
