data_mof_unit_44352.cif
_audit_creation_date              2012-12-10T18:06:51-0500
_audit_creation_method            fapswitch 2.2
_symmetry_space_group_name_H-M    P1
_symmetry_Int_Tables_number       1
_space_group_crystal_system       triclinic
_cell_length_a                    12.630877
_cell_length_b                    13.126507
_cell_length_c                    15.518236
_cell_angle_alpha                 84.913584
_cell_angle_beta                  98.007214
_cell_angle_gamma                 96.17909
_cell_volume                      2525.92519107

loop_
_atom_site_label
_atom_site_type_symbol
_atom_type_description
_atom_site_fract_x
_atom_site_fract_y
_atom_site_fract_z
_atom_type_partial_charge
C1    C     C_R   0.444500 0.308376 0.511696 0.862212
C2    C     C_R   0.651810 0.423742 0.935073 0.175308
C3    C     C_R   0.540118 0.410353 0.903395 0.048464
C4    C     C_R   0.436190 0.514113 0.336130 0.875433
C5    C     C_R   0.729759 0.440625 0.878552 -0.229687
C6    C     C_R   0.699427 0.458995 0.790220 -0.240634
C7    C     C_R   0.511245 0.414566 0.810948 -0.069402
C8    C     C_R   0.717924 0.920436 0.589850 -0.213431
C9    C     C_R   0.593920 0.797331 0.510519 -0.047236
C10   C     C_R   0.301426 0.167901 0.487325 -0.197227
C11   C     C_R   0.267455 0.064282 0.482888 -0.169914
C12   C     C_R   0.428839 0.466370 0.103219 0.062964
C13   C     C_R   0.341535 0.992136 0.504024 -0.202254
C14   C     C_R   0.450556 0.023252 0.533491 0.092260
C15   C     C_R   0.480231 0.126272 0.551747 0.086231
C16   C     C_R   0.557079 0.691351 0.494032 0.861669
C17   C     C_R   0.532158 0.956527 0.541655 0.068441
C18   C     C_R   0.636313 0.986359 0.584174 0.169948
C19   C     C_R   0.657899 0.082911 0.617339 -0.270081
C20   C     C_R   0.581427 0.153347 0.599543 -0.221600
C21   C     C_R   0.515151 0.864831 0.501116 -0.279177
C22   C     C_R   0.696399 0.825383 0.553862 -0.204242
C23   C     C_R   0.316081 0.450447 0.076431 0.052773
C24   C     C_R   0.408382 0.199469 0.519436 -0.090430
C25   C     C_R   0.137078 0.650070 0.618221 -0.337748
C26   C     C_R   0.765461 0.371558 0.401241 0.057273
C27   C     C_R   0.863534 0.357208 0.372729 -0.071593
C28   C     C_R   0.561176 0.480078 0.663521 0.856135
C29   C     C_R   0.955256 0.415570 0.404763 -0.279746
C30   C     C_R   0.953232 0.482609 0.469678 0.006581
C31   C     C_R   0.852368 0.501484 0.492254 0.214179
C32   C     C_R   0.048767 0.529740 0.513690 -0.000164
C33   C     C_R   0.042864 0.601805 0.575206 0.191999
C34   C     C_R   0.502981 0.440664 0.049671 0.093855
C35   C     C_R   0.943208 0.623100 0.594172 -0.307355
C36   C     C_R   0.849436 0.572218 0.554283 -0.213249
C37   C     C_R   0.150887 0.504802 0.501387 -0.061488
C38   C     C_R   0.235536 0.624473 0.601044 -0.004757
C39   C     C_R   0.394323 0.511680 0.243565 -0.073464
C40   C     C_R   0.590792 0.451270 0.756404 -0.089441
C41   C     C_R   0.244637 0.483116 0.129864 -0.005155
C42   C     C_R   0.284399 0.505328 0.215582 -0.239947
C43   C     C_R   0.464650 0.507784 0.183476 -0.272158
C44   C     C_R   0.167079 0.355930 0.977439 0.137443
C45   C     C_R   0.464992 0.407637 0.965480 0.045904
C46   C     C_R   0.107737 0.390955 0.899107 -0.138452
C47   C     C_R   0.002001 0.349612 0.875980 -0.143666
C48   C     C_R   0.955059 0.272595 0.930642 -0.123084
C49   C     C_R   0.013969 0.236807 0.008349 -0.131409
C50   C     C_R   0.119595 0.278362 0.031985 -0.138071
C51   C     C_R   0.405351 0.370785 0.768734 0.118704
C52   C     C_R   0.394443 0.269394 0.744071 -0.193017
C53   C     C_R   0.295924 0.226397 0.703731 -0.124381
C54   C     C_R   0.208002 0.284557 0.686768 -0.098591
C55   C     C_R   0.218292 0.385650 0.710557 -0.135610
C56   C     C_R   0.354749 0.375013 0.948207 -0.288009
C57   C     C_R   0.316614 0.429176 0.751136 -0.087100
C58   C     C_R   0.673781 0.294780 0.376587 0.180791
C59   C     C_R   0.599698 0.315174 0.303099 -0.106214
C60   C     C_R   0.524412 0.238128 0.269305 -0.158104
C61   C     C_R   0.527786 0.137183 0.305269 -0.119388
C62   C     C_R   0.606589 0.114048 0.374500 -0.117031
C63   C     C_R   0.677744 0.192481 0.411369 -0.128096
C64   C     C_R   0.874367 0.276207 0.314364 0.123550
C65   C     C_R   0.936827 0.195012 0.345459 -0.170913
C66   C     C_R   0.944128 0.116476 0.291994 -0.131989
C67   C     C_R   0.280098 0.397992 0.000435 -0.050196
C68   C     C_R   0.889584 0.118695 0.207185 -0.127641
C69   C     C_R   0.828963 0.200246 0.175264 -0.123525
C70   C     C_R   0.821748 0.278933 0.228538 -0.134490
C71   C     C_R   0.134279 0.509922 0.096735 0.135409
C72   C     C_R   0.049823 0.482736 0.147223 -0.139431
C73   C     C_R   0.951343 0.523317 0.123387 -0.140935
C74   C     C_R   0.934533 0.588037 0.047266 -0.132203
C75   C     C_R   0.016823 0.613357 0.995437 -0.142244
C76   C     C_R   0.116896 0.576064 0.020776 -0.132137
C77   C     C_R   0.614101 0.443343 0.078780 -0.238434
C78   C     C_R   0.685856 0.427755 0.023355 -0.260966
H1    H     H_    0.814462 0.450057 0.903509 0.161296
H2    H     H_    0.309338 0.661534 0.633182 0.136967
H3    H     H_    0.937774 0.677245 0.641857 0.147784
H4    H     H_    0.134595 0.706288 0.664812 0.144297
H5    H     H_    0.163969 0.447654 0.459502 0.122762
H6    H     H_    0.027552 0.404698 0.378604 0.140963
H7    H     H_    0.775928 0.588143 0.574518 0.208305
H8    H     H_    0.761237 0.481862 0.748510 0.163452
H9    H     H_    0.770006 0.428931 0.048163 0.156497
H10   H     H_    0.230085 0.521347 0.259814 0.159235
H11   H     H_    0.547647 0.533649 0.202839 0.146568
H12   H     H_    0.757856 0.772657 0.563141 0.147389
H13   H     H_    0.325269 0.322961 0.898846 0.182954
H14   H     H_    0.649287 0.457929 0.143944 0.126723
H15   H     H_    0.142757 0.451811 0.857130 0.118571
H16   H     H_    0.956430 0.377449 0.815806 0.126543
H17   H     H_    0.873164 0.240515 0.912717 0.127999
H18   H     H_    0.978097 0.176221 0.049854 0.128649
H19   H     H_    0.164574 0.249759 0.092221 0.124927
H20   H     H_    0.462210 0.223713 0.756343 0.131468
H21   H     H_    0.287912 0.148072 0.685249 0.142725
H22   H     H_    0.131870 0.251301 0.655216 0.117094
H23   H     H_    0.736085 0.106345 0.651935 0.146242
H24   H     H_    0.149766 0.430135 0.697789 0.130656
H25   H     H_    0.323710 0.507497 0.769622 0.117143
H26   H     H_    0.605398 0.389393 0.269250 0.127901
H27   H     H_    0.467005 0.255864 0.212801 0.144431
H28   H     H_    0.472158 0.076446 0.277482 0.131717
H29   H     H_    0.614353 0.035002 0.397931 0.149695
H30   H     H_    0.740371 0.172863 0.463364 0.127983
H31   H     H_    0.978367 0.191802 0.411464 0.121082
H32   H     H_    0.991566 0.053623 0.316484 0.125585
H33   H     H_    0.894740 0.057466 0.166072 0.118661
H34   H     H_    0.797561 0.941857 0.622841 0.133180
H35   H     H_    0.787550 0.202499 0.109276 0.131172
H36   H     H_    0.774948 0.341630 0.203294 0.111243
H37   H     H_    0.061165 0.432642 0.206422 0.123062
H38   H     H_    0.888203 0.505049 0.164350 0.126247
H39   H     H_    0.857823 0.618844 0.028609 0.135737
H40   H     H_    0.003895 0.663864 0.936710 0.124081
H41   H     H_    0.181442 0.600306 0.982078 0.118935
H42   H     H_    0.439819 0.843207 0.461950 0.151643
H43   H     H_    0.244448 0.223544 0.464274 0.149075
H44   H     H_    0.311535 0.912502 0.498268 0.138057
H45   H     H_    0.184514 0.040092 0.459576 0.138736
H46   H     H_    0.602486 0.229179 0.622736 0.165119
N1    N     N_R   0.239390 0.551900 0.544730 -0.096663
N2    N     N_R   0.759950 0.448600 0.455730 -0.147967
O1    O     O_R   0.374950 0.371210 0.521360 -0.606783
O2    O     O_R   0.542050 0.338030 0.492790 -0.606319
O3    O     O_R   0.368720 0.526070 0.390200 -0.619762
O4    O     O_R   0.535820 0.492890 0.361630 -0.620960
O5    O     O_R   0.457950 0.661970 0.507210 -0.612625
O6    O     O_R   0.625050 0.628790 0.478640 -0.630498
O7    O     O_R   0.464180 0.507110 0.638370 -0.603352
O8    O     O_R   0.631280 0.473930 0.609800 -0.646817
Zn1   Zn    Zn3+2 0.388420 0.522150 0.519080 0.944334
Zn2   Zn    Zn3+2 0.611580 0.477850 0.480920 0.926241

loop_
_geom_bond_atom_site_label_1
_geom_bond_atom_site_label_2
_ccdc_geom_bond_type
C78   H9    S    
C66   C68   A    
C77   H14   S    
C48   H17   S    
C27   C29   A    
C19   H23   S    
C41   C42   A    
C19   C20   A    
C1    O2    A    
C10   H43   S    
C35   H3    S    
C77   C78   A    
C70   H36   S    
C5    C6    A    
C12   C23   A    
C69   H35   S    
C26   C27   A    
C29   C30   A    
C73   H38   S    
C28   O8    A    
C59   H26   S    
C9    C16   S    
O1    Zn1   S    
C21   H42   S    
C3    C7    A    
O2    Zn2   S    
C34   C77   A    
C26   N2    A    
C30   C31   A    
C9    C22   A    
C28   C40   S    
C18   C19   A    
C73   C74   A    
C23   C67   A    
C16   O5    A    
O3    Zn1   S    
C56   H13   S    
C35   C36   A    
C45   C56   A    
C68   C69   A    
C8    C22   A    
C7    C40   A    
C51   C57   A    
C64   C70   A    
C5    H1    S    
C4    O4    A    
C41   C71   S    
N1    Zn1   S    
N2    Zn2   S    
C59   C60   A    
C13   C14   A    
C14   C17   A    
C54   H22   S    
C61   C62   A    
C75   H40   S    
C44   C46   A    
C39   C42   A    
C37   N1    A    
C15   C20   A    
C57   H25   S    
O4    Zn2   S    
C76   H41   S    
C74   C75   A    
C51   C52   A    
C53   H21   S    
C29   H6    S    
C10   C11   A    
O8    Zn2   S    
C62   H29   S    
C10   C24   A    
C58   C59   A    
C53   C54   A    
C3    C45   A    
C8    C18   A    
C28   O7    A    
C60   C61   A    
C68   H33   S    
C75   C76   A    
C62   C63   A    
C2    C78   A    
C25   C38   A    
C47   C48   A    
C55   H24   S    
C4    C39   S    
O6    Zn2   S    
C17   C18   A    
C22   H12   S    
C34   C45   A    
C43   H11   S    
C32   C37   A    
C66   H32   S    
C61   H28   S    
C26   C58   S    
C65   H31   S    
C48   C49   A    
C49   C50   A    
C55   C57   A    
C25   H4    S    
C6    C40   A    
C2    C5    A    
C42   H10   S    
C12   C34   A    
C38   N1    A    
C52   C53   A    
C44   C50   A    
C58   C63   A    
C74   H39   S    
C54   C55   A    
C15   C24   A    
C50   H19   S    
C31   C36   A    
C11   H45   S    
C1    O1    A    
C72   C73   A    
C6    H8    S    
C39   C43   A    
C4    O3    A    
C36   H7    S    
C12   C43   A    
C56   C67   A    
O5    Zn1   S    
C23   C41   A    
C64   C65   A    
C8    H34   S    
C2    C3    A    
C7    C51   S    
C71   C72   A    
C32   C33   A    
C30   C32   A    
C13   H44   S    
C11   C13   A    
C9    C21   A    
C71   C76   A    
C46   H15   S    
C38   H2    S    
C52   H20   S    
C33   C35   A    
C47   H16   S    
C49   H18   S    
C69   C70   A    
C16   O6    A    
C17   C21   A    
C20   H46   S    
C46   C47   A    
C27   C64   S    
C1    C24   S    
C65   C66   A    
C25   C33   A    
O7    Zn1   S    
C14   C15   A    
C37   H5    S    
C44   C67   S    
C31   N2    A    
C63   H30   S    
C60   H27   S    
C72   H37   S    
