data_mof_unit_63280.cif
_audit_creation_date              2012-12-10T17:57:51-0500
_audit_creation_method            fapswitch 2.2
_symmetry_space_group_name_H-M    P1
_symmetry_Int_Tables_number       1
_space_group_crystal_system       triclinic
_cell_length_a                    18.603329
_cell_length_b                    18.742094
_cell_length_c                    18.859923
_cell_angle_alpha                 109.421521
_cell_angle_beta                  109.277814
_cell_angle_gamma                 108.90397
_cell_volume                      5111.96904916

loop_
_atom_site_label
_atom_site_type_symbol
_atom_type_description
_atom_site_fract_x
_atom_site_fract_y
_atom_site_fract_z
_atom_type_partial_charge
C1    C     C_R   0.380353 0.381438 0.499579 0.872165
C2    C     C_3   0.807457 0.499517 0.810409 -0.084400
C3    C     C_3   0.797898 0.443373 0.721943 0.045778
C4    C     C_3   0.830025 0.592137 0.824522 -0.404580
C5    C     C_R   0.314096 0.238647 0.490351 0.092264
C6    C     C_R   0.314359 0.316220 0.502010 -0.091094
C7    C     C_R   0.255194 0.334077 0.525481 -0.197678
C8    C     C_R   0.189663 0.270379 0.525863 0.264856
C9    C     C_R   0.186362 0.189153 0.505654 -0.101104
C10   C     C_R   0.253157 0.177657 0.494999 0.032298
C11   C     C_3   0.248952 0.103712 0.427876 -0.509425
C12   C     C_R   0.617517 0.497536 0.618792 0.829210
C13   C     C_3   0.315262 0.170932 0.421318 0.246963
C14   C     C_R   0.312426 0.573866 0.320813 0.083101
C15   C     C_R   0.309041 0.496704 0.315145 -0.204513
C16   C     C_R   0.235043 0.417249 0.246885 0.293001
C17   C     C_R   0.169856 0.416905 0.181205 0.148720
C18   C     C_R   0.181392 0.496222 0.182801 -0.178512
C19   C     C_R   0.250538 0.573600 0.255434 0.055708
C20   C     C_3   0.316449 0.650883 0.262654 -0.418225
C21   C     C_3   0.384691 0.651435 0.334962 -0.475342
C22   C     C_R   0.758450 0.680553 0.501197 0.084517
C23   C     C_R   0.618526 0.618580 0.499586 0.800546
C24   C     C_R   0.685352 0.685881 0.500603 -0.154600
C25   C     C_R   0.681409 0.761790 0.510218 -0.260128
C26   C     C_R   0.744283 0.826519 0.508646 0.225469
C27   C     C_R   0.814604 0.816875 0.502393 -0.112563
C28   C     C_R   0.822758 0.745610 0.503119 0.020179
C29   C     C_3   0.836004 0.682942 0.442076 -0.465889
C30   C     C_3   0.764525 0.611163 0.439121 0.100406
C31   C     C_R   0.999540 0.381650 0.880385 0.877172
C32   C     C_R   0.877622 0.501886 0.879997 0.880119
C33   C     C_R   0.996410 0.618634 0.115558 0.814756
C34   C     C_R   0.380000 0.499741 0.380960 0.865102
C35   C     C_R   0.116549 0.498471 0.115548 0.830813
C36   C     C_R   0.000496 0.120201 0.617693 0.866807
C37   C     C_R   0.118711 0.119276 0.500848 0.804841
C38   C     C_R   0.001022 0.881165 0.382421 0.782268
C39   C     C_R   0.881175 0.881620 0.500252 0.825626
C40   C     C_R   0.925570 0.248544 0.741844 0.008064
C41   C     C_R   0.002888 0.317189 0.814752 -0.193923
C42   C     C_R   0.083221 0.328429 0.817926 0.173046
C43   C     C_R   0.083420 0.264995 0.751268 0.280278
C44   C     C_R   0.003580 0.191502 0.682458 -0.181310
C45   C     C_3   0.646601 0.466986 0.743467 0.524611
C46   C     C_R   0.925739 0.188215 0.675947 -0.032827
C47   C     C_3   0.844605 0.115345 0.656106 -0.477706
C48   C     C_3   0.844959 0.181836 0.730275 0.591445
C49   C     C_R   0.920673 0.679692 0.181488 0.049595
C50   C     C_R   0.998333 0.683954 0.185403 -0.009619
C51   C     C_R   0.077540 0.747949 0.261051 -0.193302
C52   C     C_R   0.078459 0.811185 0.327688 -0.186833
C53   C     C_R   0.000295 0.811510 0.318109 -0.036345
C54   C     C_R   0.921600 0.741966 0.247193 0.012917
C55   C     C_3   0.845685 0.741830 0.187081 -0.432008
C56   C     C_3   0.716651 0.455818 0.806145 0.016392
C57   C     C_3   0.846553 0.676183 0.114280 0.176541
C58   C     C_3   0.718718 0.432445 0.646874 0.015126
C59   C     C_3   0.764188 0.586942 0.745264 -0.522719
C60   C     C_3   0.683620 0.493873 0.686359 -0.056625
Cu1   Cu    Cu3+1 0.500370 0.438220 0.438550 1.018713
Cu2   Cu    Cu3+1 0.499630 0.561780 0.561450 0.955006
Cu3   Cu    Cu3+1 0.935500 0.438280 0.997350 0.993460
Cu4   Cu    Cu3+1 0.059110 0.561800 0.997270 0.997338
Cu5   Cu    Cu3+1 0.062130 0.000020 0.562160 1.011729
Cu6   Cu    Cu3+1 0.937870 0.000080 0.437940 0.961243
H1    H     H_    0.897042 0.628543 0.836241 0.217232
H2    H     H_    0.741416 0.454343 0.606238 0.157699
H3    H     H_    0.257891 0.396264 0.540592 0.167315
H4    H     H_    0.275672 0.068087 0.455307 0.183021
H5    H     H_    0.183433 0.061973 0.369218 0.231286
H6    H     H_    0.379399 0.172674 0.442692 0.129627
H7    H     H_    0.324398 0.635590 0.204384 0.206441
H8    H     H_    0.306432 0.707880 0.285151 0.195457
H9    H     H_    0.432427 0.636771 0.318841 0.188298
H10   H     H_    0.413880 0.708668 0.399139 0.203388
H11   H     H_    0.627035 0.768813 0.514158 0.161294
H12   H     H_    0.816670 0.682899 0.379588 0.156538
H13   H     H_    0.902073 0.690198 0.472435 0.212470
H14   H     H_    0.704747 0.569748 0.374563 0.124402
H15   H     H_    0.789941 0.090619 0.591486 0.219382
H16   H     H_    0.856324 0.064339 0.666401 0.177940
H17   H     H_    0.138421 0.750092 0.267671 0.142653
H18   H     H_    0.140302 0.862231 0.384174 0.152225
H19   H     H_    0.787199 0.714147 0.193704 0.153512
H20   H     H_    0.695947 0.385334 0.778184 0.205132
H21   H     H_    0.862040 0.805263 0.189022 0.251321
H22   H     H_    0.786740 0.612018 0.076155 0.108106
H23   H     H_    0.785279 0.379074 0.716771 0.196703
H24   H     H_    0.796280 0.603369 0.708368 0.169071
H25   H     H_    0.745762 0.637712 0.767025 0.220527
H26   H     H_    0.828389 0.629976 0.882535 0.232332
O1    O     O_R   0.410140 0.357660 0.448100 -0.523566
O2    O     O_R   0.049970 0.462000 0.907620 -0.562830
O3    O     O_R   0.854460 0.447890 0.906680 -0.567364
O4    O     O_R   0.958840 0.552200 0.906620 -0.568178
O5    O     O_R   0.944630 0.538080 0.087010 -0.600177
O6    O     O_R   0.049020 0.642390 0.086940 -0.568108
O7    O     O_R   0.035760 0.447880 0.088010 -0.572980
O8    O     O_R   0.140150 0.552190 0.087940 -0.596487
O9    O     O_R   0.051980 0.090160 0.642200 -0.539521
O10   O     O_R   0.947040 0.090210 0.537310 -0.587697
O11   O     O_R   0.142640 0.090190 0.552500 -0.551858
O12   O     O_R   0.409510 0.462000 0.551890 -0.616659
O13   O     O_R   0.037710 0.090250 0.447610 -0.589494
O14   O     O_R   0.052960 0.909890 0.462790 -0.594752
O15   O     O_R   0.948020 0.909940 0.357900 -0.586324
O16   O     O_R   0.962290 0.909850 0.552490 -0.589589
O17   O     O_R   0.857360 0.909910 0.447600 -0.576155
O18   O     O_R   0.590970 0.447830 0.538770 -0.614117
O19   O     O_R   0.590340 0.552170 0.642560 -0.573288
O20   O     O_R   0.590490 0.538000 0.448110 -0.603871
O21   O     O_R   0.589860 0.642340 0.551900 -0.586621
O22   O     O_R   0.409660 0.447830 0.357440 -0.532034
O23   O     O_R   0.409030 0.552170 0.461230 -0.595863
O24   O     O_R   0.945590 0.357690 0.907690 -0.551501
Cl1   Cl    Cl    0.546239 0.363810 0.678194 -0.706244
N1    N     N_2   0.878554 0.481743 0.719514 -0.418043
H27   H     H_    0.891991 0.537018 0.714250 0.258638
C61   C     C_3   0.898369 0.423179 0.667381 -0.688362
H28   H     H_    0.966686 0.458941 0.682148 0.237269
H29   H     H_    0.854522 0.396916 0.597858 0.218434
H30   H     H_    0.892115 0.369492 0.682060 0.244758
N2    N     N_2   0.129428 0.289607 0.548084 -0.409414
H31   H     H_    0.101092 0.253547 0.571851 0.270126
C62   C     C_3   0.067322 0.296990 0.484487 -0.645339
H32   H     H_    0.025411 0.314842 0.508807 0.222589
H33   H     H_    0.025241 0.234130 0.423253 0.237450
H34   H     H_    0.101428 0.348215 0.472030 0.229068
Cl2   Cl    Cl    0.270201 0.165827 0.318867 -0.503947
Cl3   Cl    Cl    0.223553 0.318225 0.242763 -0.559103
N3    N     N_2   0.631339 0.534934 0.792165 -0.429405
H35   H     H_    0.682971 0.594894 0.840751 0.251181
C63   C     C_3   0.545695 0.520010 0.780435 -0.514243
H36   H     H_    0.549110 0.582563 0.816419 0.191774
H37   H     H_    0.522369 0.476923 0.805568 0.236869
H38   H     H_    0.498502 0.491010 0.711357 0.263593
N4    N     N_2   0.096781 0.337018 0.110086 -0.417104
H39   H     H_    0.113290 0.292166 0.081743 0.280549
C64   C     C_3   0.026609 0.300233 0.126403 -0.557747
H40   H     H_    0.046248 0.276357 0.172126 0.250482
H41   H     H_    0.968751 0.244931 0.064866 0.209270
H42   H     H_    0.007914 0.349011 0.153732 0.229385
N5    N     N_2   0.735953 0.900342 0.512845 -0.434332
H43   H     H_    0.722489 0.926756 0.560990 0.249041
C65   C     C_3   0.674722 0.885576 0.431334 -0.638326
H44   H     H_    0.607297 0.838764 0.411051 0.209361
H45   H     H_    0.691300 0.859918 0.380408 0.246129
H46   H     H_    0.677204 0.947685 0.438430 0.225466
N6    N     N_2   0.724558 0.486052 0.891828 -0.419296
H47   H     H_    0.742740 0.550126 0.926746 0.278078
C66   C     C_3   0.663003 0.426364 0.903025 -0.568271
H48   H     H_    0.680675 0.454611 0.972109 0.195270
H49   H     H_    0.664798 0.364417 0.882990 0.242079
H50   H     H_    0.596075 0.413456 0.864557 0.252135
N7    N     N_2   0.793563 0.560247 0.473376 -0.400957
H51   H     H_    0.742440 0.501670 0.453424 0.254485
C67   C     C_3   0.857679 0.602068 0.563781 -0.660224
H52   H     H_    0.876230 0.555205 0.576694 0.213849
H53   H     H_    0.829912 0.623697 0.605089 0.205350
H54   H     H_    0.917510 0.658345 0.581076 0.240064
N8    N     N_2   0.163215 0.400281 0.890511 -0.396153
H55   H     H_    0.211700 0.425146 0.876698 0.296360
C68   C     C_3   0.193761 0.388390 0.964685 -0.617771
H56   H     H_    0.211045 0.335797 0.949753 0.249113
H57   H     H_    0.142945 0.371921 0.983950 0.211392
H58   H     H_    0.252471 0.449391 0.019932 0.219691
Cl4   Cl    Cl    0.183432 0.276552 0.756112 -0.633560
Cl5   Cl    Cl    0.756050 0.202867 0.695964 -0.682098
N9    N     N_2   0.856884 0.167301 0.803929 -0.394496
H59   H     H_    0.799024 0.131829 0.800326 0.276233
C69   C     C_3   0.922898 0.144634 0.838656 -0.695751
H60   H     H_    0.937573 0.158966 0.905387 0.240206
H61   H     H_    0.984482 0.182301 0.841390 0.238277
H62   H     H_    0.898512 0.074340 0.799391 0.218118
Cl6   Cl    Cl    0.878865 0.721054 0.052764 -0.669767
N10   N     N_2   0.651641 0.340961 0.591800 -0.385307
H63   H     H_    0.589626 0.329488 0.556679 0.312223
C70   C     C_3   0.671539 0.284639 0.536988 -0.620343
H64   H     H_    0.614775 0.218115 0.496612 0.238559
H65   H     H_    0.727683 0.280293 0.575888 0.262085
H66   H     H_    0.685293 0.308174 0.493603 0.199342

loop_
_geom_bond_atom_site_label_1
_geom_bond_atom_site_label_2
_ccdc_geom_bond_type
C45   C60   S    
C55   H19   S    
C62   H32   S    
C30   N7    S    
C41   C42   A    
Cu6   O10   S    
C19   C20   S    
C64   H42   S    
Cu5   O9    S    
Cu6   O15   S    
C63   H38   S    
C12   O18   A    
C11   H4    S    
C7    C8    A    
C43   Cl4   S    
C69   H60   S    
C40   C46   A    
C23   O20   A    
C21   H10   S    
C28   C29   S    
C26   C27   A    
C25   H11   S    
C42   N8    S    
C14   C21   S    
C2    C32   S    
C68   H56   S    
C34   O23   A    
C64   H41   S    
C33   O6    A    
C5    C6    A    
C11   H5    S    
N9    H59   S    
C58   C60   S    
C49   C54   A    
C65   H46   S    
Cu3   O3    S    
C49   C57   S    
C36   O10   A    
C18   C19   A    
C47   H16   S    
C38   O15   A    
C52   H18   S    
C16   Cl3   S    
N1    H27   S    
Cu3   O7    S    
C67   H54   S    
C54   C55   S    
Cu2   O19   S    
C45   C56   S    
C27   C39   S    
C8    C9    A    
N10   C70   S    
Cu2   O23   S    
C13   Cl2   S    
C17   N4    S    
C31   C41   S    
C18   C35   S    
C15   C34   S    
Cu2   O12   S    
C61   H30   S    
C70   H66   S    
C30   H14   S    
Cu4   O6    S    
C59   C60   S    
C22   C28   A    
C67   H53   S    
C35   O7    A    
Cu1   O18   S    
C44   C46   A    
C17   C18   A    
C65   H45   S    
C39   O16   A    
C15   C16   A    
C29   H12   S    
C51   C52   A    
C64   H40   S    
Cu4   O4    S    
Cu2   O21   S    
N5    C65   S    
N4    H39   S    
Cu1   O1    S    
C37   O11   A    
C16   C17   A    
C63   H37   S    
C62   H34   S    
C25   C26   A    
C53   C54   A    
C1    O1    A    
Cu3   Cu4   S    
C36   O9    A    
C59   H24   S    
C38   O14   A    
C2    C4    S    
C43   C44   A    
C37   O13   A    
C29   C30   S    
C3    N1    S    
C23   O21   A    
C57   Cl6   S    
C56   H20   S    
C47   C48   S    
C29   H13   S    
C66   H50   S    
C39   O17   A    
C23   C24   S    
C20   C21   S    
C9    C37   S    
C50   C51   A    
C20   H8    S    
Cu5   O16   S    
C59   H25   S    
C52   C53   A    
C24   C25   A    
C1    O12   A    
C6    C7    A    
C65   H44   S    
N4    C64   S    
N10   H63   S    
C48   N9    S    
Cu3   O24   S    
C58   H2    S    
C40   C41   A    
C32   O4    A    
C66   H49   S    
Cu5   Cu6   S    
C55   C57   S    
C67   H52   S    
C22   C24   A    
C36   C44   S    
C42   C43   A    
Cu5   O11   S    
Cu6   O13   S    
C56   N6    S    
C35   O8    A    
C51   H17   S    
C31   O24   A    
Cu1   O22   S    
C61   H28   S    
C61   H29   S    
N2    C62   S    
N8    H55   S    
C9    C10   A    
C45   Cl1   S    
C40   C48   S    
C46   C47   S    
N7    H51   S    
C62   H33   S    
C22   C30   S    
C14   C15   A    
C5    C13   S    
C14   C19   A    
C68   H58   S    
C8    N2    S    
N5    H43   S    
C7    H3    S    
C4    H1    S    
C69   H62   S    
C63   H36   S    
C13   H6    S    
C70   H64   S    
C34   O22   A    
C31   O2    A    
C21   H9    S    
Cu5   O14   S    
C57   H22   S    
C3    H23   S    
C68   H57   S    
C2    C3    S    
C33   C50   S    
Cu4   O2    S    
C5    C10   A    
Cu3   O5    S    
N8    C68   S    
C2    C56   S    
C11   C13   S    
C38   C53   S    
N9    C69   S    
C4    C59   S    
N7    C67   S    
C69   H61   S    
C20   H7    S    
N3    H35   S    
C58   N10   S    
N6    C66   S    
C47   H15   S    
Cu6   O17   S    
C55   H21   S    
Cu1   Cu2   S    
N1    C61   S    
C10   C11   S    
C48   Cl5   S    
C12   C60   S    
C3    C58   S    
Cu4   O8    S    
C32   O3    A    
C66   H48   S    
C45   N3    S    
N3    C63   S    
C49   C50   A    
C26   N5    S    
C27   C28   A    
N6    H47   S    
C33   O5    A    
C4    H26   S    
Cu1   O20   S    
C12   O19   A    
C1    C6    S    
N2    H31   S    
C70   H65   S    
