data_mof_unit_28425.cif
_audit_creation_date              2012-12-11T16:34:28-0500
_audit_creation_method            fapswitch 2.2
_symmetry_space_group_name_H-M    P1
_symmetry_Int_Tables_number       1
_space_group_crystal_system       triclinic
_cell_length_a                    8.240582
_cell_length_b                    17.405926
_cell_length_c                    27.005505
_cell_angle_alpha                 95.584063
_cell_angle_beta                  92.657787
_cell_angle_gamma                 83.766638
_cell_volume                      3829.84924764

loop_
_atom_site_label
_atom_site_type_symbol
_atom_type_description
_atom_site_fract_x
_atom_site_fract_y
_atom_site_fract_z
_atom_type_partial_charge
Ba1   Ba    Ba6+2 0.856110 0.463800 0.523550 1.640218
Ba2   Ba    Ba6+2 0.333710 0.536130 0.476450 1.640157
C1    C     C_3   0.649424 0.188790 0.655717 -0.367288
C2    C     C_R   0.896146 0.574706 0.175200 0.573564
C3    C     C_2   0.757343 0.549946 0.271837 -0.086878
C4    C     C_3   0.158778 0.291091 0.659115 0.287220
C5    C     C_3   0.738696 0.577405 0.326192 -0.050807
C6    C     C_1   0.984670 0.490447 0.343211 0.036197
C7    C     C_2   0.026558 0.487672 0.295678 -0.107351
C8    C     C_2   0.904717 0.516367 0.256068 0.187141
C9    C     C_R   0.030722 0.507963 0.102033 -0.080188
C10   C     C_R   0.080492 0.444804 0.130011 -0.035927
C11   C     C_R   0.174161 0.380235 0.106890 -0.059596
C12   C     C_3   0.655656 0.267383 0.636213 0.343371
C13   C     C_R   0.934032 0.572179 0.124535 -0.021366
C14   C     C_2   0.849947 0.530628 0.360283 -0.292512
C15   C     C_2   0.350616 0.479942 0.641892 -0.277558
C16   C     C_3   0.123633 0.272451 0.711100 -0.333446
C17   C     C_R   0.198248 0.437158 0.976009 0.023333
C18   C     C_R   0.087316 0.574675 0.975426 0.020440
C19   C     C_R   0.159511 0.504679 0.950080 0.033510
C20   C     C_R   0.268498 0.368926 0.948897 -0.098695
C21   C     C_R   0.302511 0.367429 0.898675 -0.060996
C22   C     C_R   0.267425 0.433704 0.872883 -0.026180
C23   C     C_3   0.502111 0.656737 0.627297 0.300613
C24   C     C_R   0.195670 0.502464 0.898540 -0.080920
C25   C     C_R   0.161662 0.569223 0.872765 -0.053002
C26   C     C_R   0.194488 0.565884 0.821474 0.593203
C27   C     C_R   0.303665 0.432639 0.821996 0.580401
C28   C     C_3   0.199287 0.300079 0.416951 0.314289
C29   C     C_2   0.459638 0.480549 0.729538 -0.072098
C30   C     C_3   0.500306 0.486574 0.675841 -0.052890
C31   C     C_1   0.209824 0.514556 0.657473 0.038072
C32   C     C_2   0.172005 0.516129 0.705059 -0.105932
C33   C     C_2   0.303092 0.496668 0.744093 0.207512
C34   C     C_3   0.482921 0.686298 0.681837 -0.372266
C35   C     C_R   0.165096 0.439914 0.027812 0.019384
C36   C     C_R   0.076022 0.506807 0.051312 0.050162
C37   C     C_R   0.029088 0.572290 0.024350 0.020983
C38   C     C_R   0.215337 0.377670 0.057065 -0.100382
C39   C     C_R   0.873432 0.632311 0.095556 -0.062407
C40   C     C_3   0.211013 0.212681 0.404016 -0.381420
C41   C     C_R   0.079404 0.644054 0.950580 0.047312
C42   C     C_R   0.105404 0.639352 0.899389 -0.058695
C43   C     C_R   0.915864 0.631016 0.046177 -0.114362
C44   C     C_R   0.410841 0.279031 0.520731 -0.288064
C45   C     C_3   0.043039 0.705061 0.339543 0.344104
C46   C     C_R   0.551810 0.254595 0.494684 0.066352
C47   C     C_R   0.608161 0.175355 0.488485 -0.115217
C48   C     C_R   0.521690 0.120542 0.507991 -0.005580
C49   C     C_R   0.376083 0.145729 0.532934 -0.132052
C50   C     C_R   0.319925 0.225206 0.538547 0.008593
C51   C     C_R   0.587523 0.835226 0.506615 -0.112162
C52   C     C_3   0.994156 0.698416 0.579984 0.308691
C53   C     C_R   0.639427 0.755620 0.501827 0.042323
C54   C     C_R   0.873667 0.778894 0.456995 0.011278
C55   C     C_R   0.822823 0.859103 0.461412 -0.128989
C56   C     C_3   0.049651 0.729790 0.287318 -0.346174
C57   C     C_R   0.677571 0.887433 0.485870 -0.000885
C58   C     C_1   0.625200 0.969964 0.493066 -0.000662
C59   C     C_1   0.578288 0.038539 0.499923 0.001098
C60   C     C_R   0.777356 0.727737 0.475191 -0.285567
C61   C     C_3   0.970389 0.785903 0.592638 -0.383410
C62   C     C_3   0.680192 0.371171 0.375466 0.301463
C63   C     C_3   0.681353 0.352056 0.319322 -0.358849
C64   C     C_3   0.072447 0.724680 0.977423 -0.419099
C65   C     C_3   0.503187 0.743266 0.359792 0.368542
C66   C     C_3   0.459747 0.820438 0.337900 -0.363860
C67   C     C_R   0.034840 0.447237 0.180355 0.597828
H1    H     H_    0.763726 0.263643 0.612613 0.099065
H2    H     H_    0.802129 0.386203 0.389043 0.009399
H3    H     H_    0.587778 0.421434 0.383946 0.081484
H4    H     H_    0.762618 0.173235 0.678095 0.132874
H5    H     H_    0.777692 0.303891 0.309641 0.132493
H6    H     H_    0.706098 0.403495 0.300934 0.068759
H7    H     H_    0.560663 0.334579 0.305274 0.135170
H8    H     H_    0.542242 0.280735 0.613628 -0.039345
H9    H     H_    0.638932 0.143774 0.623976 0.077251
H10   H     H_    0.381232 0.641936 0.611740 0.029534
H11   H     H_    0.400650 0.741363 0.684944 0.139664
H12   H     H_    0.289980 0.195901 0.371670 0.128333
H13   H     H_    0.428812 0.643315 0.701963 0.079050
H14   H     H_    0.603913 0.696769 0.699512 0.124662
H15   H     H_    0.542045 0.190477 0.679330 0.126575
H16   H     H_    0.162236 0.318667 0.738827 0.131457
H17   H     H_    0.116707 0.647870 0.341180 0.081401
H18   H     H_    0.913689 0.699758 0.346944 -0.056282
H19   H     H_    0.174556 0.742674 0.279783 0.149405
H20   H     H_    0.016661 0.682070 0.259928 0.128036
H21   H     H_    0.962732 0.782276 0.282876 0.115170
H22   H     H_    0.638647 0.732433 0.361619 -0.071377
H23   H     H_    0.264095 0.182057 0.435963 0.063175
H24   H     H_    0.457284 0.748252 0.398137 0.079496
H25   H     H_    0.518919 0.866674 0.361001 0.069967
H26   H     H_    0.325688 0.836252 0.337197 0.150906
H27   H     H_    0.100911 0.350645 0.654446 0.083053
H28   H     H_    0.503648 0.816590 0.299382 0.120745
H29   H     H_    0.150494 0.466686 0.285628 0.140911
H30   H     H_    0.216163 0.330832 0.127328 0.121489
H31   H     H_    0.558064 0.469464 0.756895 0.098852
H32   H     H_    0.356384 0.313435 0.879938 0.120383
H33   H     H_    0.296150 0.314777 0.965236 0.068635
H34   H     H_    0.087379 0.194424 0.394624 0.127124
H35   H     H_    0.289430 0.326217 0.042744 0.069556
H36   H     H_    0.660008 0.567618 0.245594 0.126103
H37   H     H_    0.790307 0.680429 0.110765 0.121733
H38   H     H_    0.292950 0.289124 0.655715 -0.015051
H39   H     H_    0.091651 0.692445 0.880945 0.125087
H40   H     H_    0.047012 0.532054 0.716057 0.120209
H41   H     H_    0.854609 0.675796 0.025070 0.084280
H42   H     H_    0.835492 0.544531 0.399988 0.083248
H43   H     H_    0.357050 0.444911 0.606339 0.067928
H44   H     H_    0.481254 0.856606 0.528037 0.080596
H45   H     H_    0.876011 0.677377 0.567755 0.004545
H46   H     H_    0.304947 0.103952 0.546586 0.081348
H47   H     H_    0.897994 0.898980 0.447476 0.078653
H48   H     H_    0.716307 0.156365 0.467402 0.084517
H49   H     H_    0.366222 0.340031 0.524443 0.068260
H50   H     H_    0.990611 0.269536 0.714313 0.143903
H51   H     H_    0.817984 0.666277 0.472631 0.060008
H52   H     H_    0.190946 0.215931 0.719059 0.119210
H53   H     H_    0.323148 0.317488 0.425356 0.003126
H54   H     H_    0.122621 0.315139 0.449951 0.062585
H55   H     H_    0.591700 0.604156 0.624584 0.035926
H56   H     H_    0.081002 0.685175 0.549450 0.073287
H57   H     H_    0.948631 0.755799 0.972662 0.118073
H58   H     H_    0.109180 0.723658 0.017397 0.128405
H59   H     H_    0.161073 0.758629 0.961650 0.120968
H60   H     H_    0.877087 0.800915 0.621365 0.135477
H61   H     H_    0.929458 0.815528 0.559129 0.063367
H62   H     H_    0.087581 0.807056 0.607043 0.124332
N1    N     N_R   0.945438 0.512417 0.203162 -0.420694
N2    N     N_R   0.264451 0.497979 0.796487 -0.424494
O1    O     O_2   0.910880 0.540430 0.617910 -0.463065
O2    O     O_2   0.211683 0.773753 0.466117 -0.486927
O3    O     O_3   0.107106 0.760828 0.373741 -0.598296
O4    O     O_3   0.142880 0.540370 0.557740 -0.488263
O5    O     O_3   0.562610 0.408580 0.475460 -0.488196
O6    O     O_2   0.365880 0.685750 0.523280 -0.459247
O7    O     O_3   0.558652 0.715105 0.602496 -0.641224
O8    O     O_2   0.415650 0.533643 0.322516 -0.496937
O9    O     O_3   0.431020 0.684133 0.330022 -0.590001
O10   O     O_2   0.072963 0.390672 0.203469 -0.597856
O11   O     O_2   0.370264 0.373414 0.800443 -0.602619
O12   O     O_3   0.642639 0.305954 0.397300 -0.635580
O13   O     O_2   0.820790 0.633482 0.194473 -0.619699
O14   O     O_2   0.163761 0.624033 0.799331 -0.597381
O15   O     O_3   0.675650 0.402220 0.588450 -0.487232
O16   O     O_2   0.838774 0.439547 0.672960 -0.497552
O17   O     O_3   0.054399 0.664076 0.622698 -0.627531
O18   O     O_3   0.667021 0.324160 0.676479 -0.593122
O19   O     O_2   0.823810 0.314230 0.476690 -0.458505
O20   O     O_3   0.086630 0.363340 0.564170 -0.490450
O21   O     O_2   0.982635 0.226168 0.532534 -0.483899
O22   O     O_3   0.093772 0.236367 0.624239 -0.601076
O23   O     O_2   0.278810 0.459550 0.382060 -0.460299
O24   O     O_3   0.046820 0.459570 0.442260 -0.494406
O25   O     O_3   0.514050 0.597710 0.411540 -0.477106
O26   O     O_3   0.130549 0.336140 0.375812 -0.623286
O27   O     O_3   0.627090 0.591350 0.524530 -0.472781
O28   O     O_3   0.103080 0.636600 0.435820 -0.489653
P1    P     P_3+3 0.078810 0.562990 0.610370 0.998779
P2    P     P_3+3 0.645380 0.325580 0.462150 0.988403
P3    P     P_3+3 0.121003 0.262025 0.564398 0.937380
P4    P     P_3+3 0.110900 0.436950 0.389630 0.996629
P5    P     P_3+3 0.074235 0.737955 0.433777 0.945399
P6    P     P_3+3 0.671140 0.414714 0.653486 0.968323
P7    P     P_3+3 0.550653 0.688548 0.538353 0.952669
P8    P     P_3+3 0.524182 0.594983 0.346975 0.948978

loop_
_geom_bond_atom_site_label_1
_geom_bond_atom_site_label_2
_ccdc_geom_bond_type
O7    P7    S    
C27   N2    Am   
C19   C24   A    
C7    H29   S    
C62   O12   S    
C51   C53   A    
O16   P6    D    
C10   C67   A    
C40   H34   S    
C33   N2    S    
C51   C57   A    
C52   O17   S    
C46   P2    S    
C3    H36   S    
C54   C55   A    
C24   C25   A    
C63   H7    S    
Ba2   O6    S    
O21   P3    D    
C17   C19   A    
C22   C24   A    
C32   C33   S    
C35   C38   A    
Ba2   O24   S    
O4    P1    S    
C45   O3    S    
C61   H60   S    
C61   H61   S    
C52   C61   S    
C21   H32   S    
C34   H14   S    
C53   C60   A    
C44   C50   A    
C64   H58   S    
C44   H49   S    
Ba1   O19   S    
Ba1   Ba2   S    
C12   H8    S    
C66   H28   S    
C11   C38   A    
C17   C35   A    
C22   C27   A    
C9    C13   A    
C25   C42   A    
C47   H48   S    
C28   H53   S    
C34   H13   S    
C6    C7    D    
C12   O18   S    
C4    H38   S    
O5    P2    S    
C61   H62   S    
C7    C8    S    
C60   H51   S    
C4    O22   S    
C37   C43   A    
O27   P7    S    
C57   C58   S    
C6    C14   D    
C12   H1    S    
C40   H12   S    
C15   C31   D    
C53   P7    S    
O17   P1    S    
Ba2   O28   S    
C65   H22   S    
C23   H55   S    
C51   H44   S    
C31   C32   D    
C55   H47   S    
C42   H39   S    
C28   O26   S    
C4    C16   S    
C52   H56   S    
C44   C46   A    
C16   H16   S    
C39   H37   S    
O20   P3    S    
C62   H2    S    
C65   C66   S    
Ba2   O5    S    
C45   H17   S    
C23   O7    S    
C13   C39   A    
C2    N1    Am   
C34   H11   S    
O24   P4    S    
C3    C5    S    
C18   C37   A    
C43   H41   S    
O12   P2    S    
C27   O11   D    
C49   H46   S    
C63   H5    S    
C26   N2    Am   
C58   C59   T    
C45   H18   S    
C11   H30   S    
C9    C36   A    
C41   C42   A    
C35   C36   A    
C38   H35   S    
C29   C30   S    
Ba2   O25   S    
C2    O13   D    
C17   C20   A    
O8    P8    D    
C48   C49   A    
C29   H31   S    
C18   C19   A    
Ba1   O20   S    
C28   H54   S    
C56   H21   S    
Ba2   P4    S    
C66   H26   S    
C1    C12   S    
C50   P3    S    
O9    P8    S    
C46   C47   A    
Ba1   P1    S    
C4    H27   S    
C5    P8    S    
C15   C30   S    
C54   C60   A    
O26   P4    S    
Ba1   O1    S    
C15   H43   S    
C67   N1    Am   
C1    H15   S    
C18   C41   A    
Ba1   O4    S    
C48   C59   S    
C5    C14   S    
C26   O14   D    
Ba2   O23   S    
C21   C22   A    
C40   H23   S    
C23   H10   S    
Ba2   O4    S    
Ba1   O27   S    
O28   P5    S    
C56   H19   S    
C9    C10   A    
O25   P8    S    
O15   P6    S    
O22   P3    S    
C67   O10   D    
C66   H25   S    
C16   H52   S    
C20   H33   S    
C62   C63   S    
C2    C13   A    
Ba1   O24   S    
C31   P1    S    
C64   H57   S    
C49   C50   A    
C45   C56   S    
C1    H9    S    
C36   C37   A    
O3    P5    S    
O23   P4    D    
C41   C64   S    
O18   P6    S    
C52   H45   S    
O2    P5    D    
C64   H59   S    
C29   C33   D    
C62   H3    S    
O6    P7    D    
C1    H4    S    
C56   H20   S    
C8    N1    S    
O19   P2    D    
C55   C57   A    
C6    P4    S    
Ba1   O5    S    
C23   C34   S    
O1    P1    D    
C3    C8    D    
C10   C11   A    
Ba1   P2    S    
Ba2   O27   S    
C47   C48   A    
C30   P6    S    
C54   P5    S    
C25   C26   A    
C65   H24   S    
C32   H40   S    
C39   C43   A    
C20   C21   A    
C28   C40   S    
Ba1   O15   S    
C65   O9    S    
C16   H50   S    
C63   H6    S    
C14   H42   S    
