data_mof_unit_13870.cif
_audit_creation_date              2012-12-10T17:31:24-0500
_audit_creation_method            fapswitch 2.2
_symmetry_space_group_name_H-M    P1
_symmetry_Int_Tables_number       1
_space_group_crystal_system       triclinic
_cell_length_a                    18.996359
_cell_length_b                    18.47079
_cell_length_c                    12.358312
_cell_angle_alpha                 90.175709
_cell_angle_beta                  129.173165
_cell_angle_gamma                 90.181581
_cell_volume                      3361.55281732

loop_
_atom_site_label
_atom_site_type_symbol
_atom_type_description
_atom_site_fract_x
_atom_site_fract_y
_atom_site_fract_z
_atom_type_partial_charge
C1    C     C_R   0.612752 0.898554 0.653785 0.793523
C2    C     C_R   0.612265 0.102078 0.652904 0.794965
C3    C     C_R   0.112754 0.398556 0.653789 0.793513
C4    C     C_R   0.112266 0.602078 0.652905 0.794963
C5    C     C_R   0.237332 0.785541 0.024061 0.086689
C6    C     C_R   0.254465 0.236756 0.058878 0.071692
C7    C     C_R   0.737331 0.285542 0.024061 0.086690
C8    C     C_R   0.754468 0.736755 0.058877 0.071689
C9    C     C_R   0.654911 0.285425 0.003751 0.150822
C10   C     C_R   0.675148 0.741756 0.046651 0.175018
C11   C     C_R   0.154911 0.785426 0.003748 0.150821
C12   C     C_R   0.175129 0.241732 0.046612 0.175016
C13   C     C_R   0.578253 0.251114 0.887251 -0.241261
C14   C     C_R   0.597344 0.772765 0.928751 -0.238958
C15   C     C_R   0.078253 0.751116 0.887247 -0.241256
C16   C     C_R   0.097326 0.272734 0.928699 -0.238957
C17   C     C_R   0.584004 0.212497 0.796735 -0.187809
C18   C     C_R   0.597875 0.798974 0.824510 -0.187114
C19   C     C_R   0.084004 0.712499 0.796733 -0.187812
C20   C     C_R   0.097871 0.298958 0.824480 -0.187112
C21   C     C_R   0.314646 0.814949 0.148800 -0.212041
C22   C     C_R   0.320446 0.187377 0.154797 -0.273899
C23   C     C_R   0.814645 0.314950 0.148799 -0.212042
C24   C     C_R   0.820439 0.687366 0.154778 -0.273893
C25   C     C_R   0.226229 0.855173 0.216401 -0.190895
C26   C     C_R   0.243624 0.166871 0.250622 -0.195612
C27   C     C_R   0.726231 0.355171 0.216405 -0.190892
C28   C     C_R   0.743651 0.666902 0.250671 -0.195620
C29   C     C_R   0.676371 0.161773 0.737687 -0.109055
C30   C     C_R   0.682850 0.845187 0.749364 -0.109342
C31   C     C_R   0.176373 0.661771 0.737690 -0.109053
C32   C     C_R   0.182861 0.345197 0.749381 -0.109335
C33   C     C_R   0.684325 0.999618 0.284730 -0.346780
C34   C     C_R   0.184325 0.499616 0.284730 -0.346775
C35   C     C_R   0.343401 0.000803 0.627157 0.069947
C36   C     C_R   0.843401 0.500805 0.627157 0.069945
C37   C     C_R   0.308816 0.002132 0.698527 -0.257875
C38   C     C_R   0.808816 0.502136 0.698527 -0.257875
C39   C     C_R   0.384800 0.099165 0.343368 0.790830
C40   C     C_R   0.383850 0.901324 0.342027 0.789936
C41   C     C_R   0.884801 0.599166 0.343369 0.790836
C42   C     C_R   0.883851 0.401324 0.342028 0.789938
C43   C     C_R   0.367517 0.002410 0.844094 -0.207031
C44   C     C_R   0.867517 0.502414 0.844094 -0.207037
C45   C     C_R   0.462257 0.000817 0.920833 0.000175
C46   C     C_R   0.962257 0.500818 0.920832 0.000177
C47   C     C_R   0.494611 0.000096 0.842658 0.282363
C48   C     C_R   0.994610 0.500095 0.842658 0.282368
C49   C     C_R   0.526052 0.000273 0.071527 -0.040103
C50   C     C_R   0.026052 0.500273 0.071526 -0.040101
C51   C     C_R   0.620059 0.999722 0.139137 0.147649
C52   C     C_R   0.120059 0.499720 0.139137 0.147650
C53   C     C_R   0.650060 0.999511 0.061585 -0.258287
C54   C     C_R   0.150060 0.499509 0.061585 -0.258291
C55   C     C_R   0.588937 0.999800 0.917126 -0.168044
C56   C     C_R   0.088936 0.499799 0.917126 -0.168041
C57   C     C_R   0.501506 0.000183 0.159341 -0.023673
C58   C     C_R   0.001506 0.500183 0.159341 -0.023681
C59   C     C_R   0.656298 0.999894 0.365221 0.375848
C60   C     C_R   0.156298 0.499893 0.365221 0.375856
C61   C     C_R   0.650160 0.319829 0.100420 -0.193152
C62   C     C_R   0.672050 0.709754 0.146360 -0.196663
C63   C     C_R   0.150158 0.819832 0.100415 -0.193149
C64   C     C_R   0.172019 0.209714 0.146296 -0.196664
C65   C     C_R   0.308341 0.853673 0.239211 -0.070253
C66   C     C_R   0.316216 0.153099 0.251013 -0.045482
C67   C     C_R   0.808342 0.353673 0.239212 -0.070258
C68   C     C_R   0.816222 0.653105 0.251021 -0.045486
C69   C     C_R   0.752199 0.169531 0.743803 -0.212896
C70   C     C_R   0.761448 0.843532 0.762302 -0.243520
C71   C     C_R   0.252202 0.669527 0.743809 -0.212895
C72   C     C_R   0.261472 0.343564 0.762355 -0.243521
C73   C     C_R   0.317503 0.721922 0.828321 -0.199085
C74   C     C_R   0.340949 0.314945 0.880403 -0.130586
C75   C     C_R   0.817498 0.221927 0.828313 -0.199086
C76   C     C_R   0.840924 0.814898 0.880329 -0.130577
C77   C     C_R   0.312553 0.764551 0.916833 0.150290
C78   C     C_R   0.343713 0.285948 0.986960 0.158175
C79   C     C_R   0.812548 0.264555 0.916826 0.150288
C80   C     C_R   0.843700 0.785909 0.986903 0.158175
C81   C     C_R   0.740559 0.253057 0.922607 0.078075
C82   C     C_R   0.760710 0.775259 0.965407 0.032385
C83   C     C_R   0.240562 0.753055 0.922609 0.078075
C84   C     C_R   0.260714 0.275274 0.965428 0.032393
C85   C     C_R   0.666522 0.208166 0.818893 0.035637
C86   C     C_R   0.679781 0.806243 0.845075 0.054751
C87   C     C_R   0.166524 0.708165 0.818894 0.035637
C88   C     C_R   0.179785 0.306245 0.845078 0.054756
Cu1   Cu    Cu3+1 0.526340 1.000000 0.421010 0.957411
Cu2   Cu    Cu3+1 0.026340 0.500000 0.421010 0.957412
Cu3   Cu    Cu3+1 0.473640 0.000000 0.578990 0.917054
Cu4   Cu    Cu3+1 0.973640 0.500000 0.578990 0.917057
H1    H     H_    0.220205 0.885296 0.285522 0.149535
H2    H     H_    0.239122 0.140607 0.324327 0.149385
H3    H     H_    0.720208 0.385292 0.285529 0.149539
H4    H     H_    0.739160 0.640652 0.324399 0.149394
H5    H     H_    0.722110 0.999219 0.113350 0.152877
H6    H     H_    0.222110 0.499217 0.113349 0.152880
H7    H     H_    0.756354 0.999394 0.336357 0.139217
H8    H     H_    0.256354 0.499391 0.336357 0.139217
H9    H     H_    0.431412 0.000126 0.116217 0.141709
H10   H     H_    0.931412 0.500127 0.116217 0.141706
H11   H     H_    0.297128 0.000774 0.514257 0.121332
H12   H     H_    0.797128 0.500776 0.514257 0.121337
H13   H     H_    0.337095 0.003626 0.893907 0.146388
H14   H     H_    0.837094 0.503632 0.893907 0.146386
H15   H     H_    0.236108 0.003046 0.640680 0.147185
H16   H     H_    0.736108 0.503052 0.640680 0.147187
H17   H     H_    0.619110 0.000072 0.868104 0.208387
H18   H     H_    0.119110 0.500071 0.868104 0.208385
H19   H     H_    0.514069 0.252541 0.867809 0.141345
H20   H     H_    0.534236 0.772319 0.912659 0.133554
H21   H     H_    0.014068 0.752544 0.867803 0.141336
H22   H     H_    0.034209 0.272271 0.912580 0.133551
H23   H     H_    0.587117 0.320863 0.084439 0.146346
H24   H     H_    0.612711 0.715294 0.139943 0.129472
H25   H     H_    0.087115 0.820867 0.084430 0.146368
H26   H     H_    0.112666 0.215234 0.139849 0.129472
H27   H     H_    0.381352 0.807874 0.179524 0.178395
H28   H     H_    0.372333 0.171171 0.149184 0.164583
H29   H     H_    0.881351 0.307876 0.179519 0.178396
H30   H     H_    0.872304 0.671138 0.149128 0.164586
H31   H     H_    0.760723 0.135528 0.681481 0.165467
H32   H     H_    0.764469 0.871163 0.688345 0.166722
H33   H     H_    0.260727 0.635523 0.681489 0.165470
H34   H     H_    0.264499 0.371203 0.688412 0.166722
H35   H     H_    0.372644 0.729693 0.824967 0.136375
H36   H     H_    0.403144 0.321416 0.894905 0.139471
H37   H     H_    0.872638 0.229700 0.824955 0.136369
H38   H     H_    0.903111 0.821350 0.894803 0.139465
H39   H     H_    0.521851 0.188290 0.706712 0.176293
H40   H     H_    0.532803 0.813395 0.727640 0.171106
H41   H     H_    0.021852 0.688292 0.706709 0.176290
H42   H     H_    0.032803 0.313377 0.727600 0.171091
N1    N     N_R   0.566260 0.000000 0.302220 -0.172838
N2    N     N_R   0.066260 0.500000 0.302220 -0.172836
N3    N     N_R   0.434410 0.000000 0.697680 -0.207146
N4    N     N_R   0.934410 0.500000 0.697680 -0.207145
O1    O     O_R   0.608610 0.924520 0.551740 -0.550582
O2    O     O_R   0.608610 0.075480 0.551740 -0.550177
O3    O     O_R   0.108610 0.424520 0.551740 -0.550582
O4    O     O_R   0.108610 0.575480 0.551740 -0.550176
O5    O     O_R   0.564110 0.924510 0.685150 -0.605454
O6    O     O_R   0.564110 0.075490 0.685150 -0.605163
O7    O     O_R   0.064110 0.424510 0.685150 -0.605446
O8    O     O_R   0.064110 0.575490 0.685150 -0.605164
O9    O     O_R   0.435880 0.075470 0.314850 -0.590583
O10   O     O_R   0.435880 0.924530 0.314850 -0.575705
O11   O     O_R   0.935880 0.575470 0.314850 -0.590588
O12   O     O_R   0.935880 0.424530 0.314850 -0.575704
O13   O     O_R   0.391380 0.075460 0.448260 -0.596652
O14   O     O_R   0.391380 0.924540 0.448260 -0.593306
O15   O     O_R   0.891380 0.575460 0.448260 -0.596654
O16   O     O_R   0.891380 0.424540 0.448260 -0.593304
N5    N     N_3   0.374906 0.824099 0.987295 -0.619575
H43   H     H_    0.367195 0.857216 0.912083 0.233392
H44   H     H_    0.440939 0.803597 0.049693 0.207273
N6    N     N_3   0.432428 0.280382 0.120459 -0.624810
H45   H     H_    0.430943 0.289512 0.202462 0.231167
H46   H     H_    0.461109 0.230497 0.128356 0.215612
N7    N     N_3   0.874900 0.324104 0.987287 -0.619574
H47   H     H_    0.867185 0.357221 0.912073 0.233395
H48   H     H_    0.940933 0.303604 0.049682 0.207281
N8    N     N_3   0.932425 0.780322 0.120381 -0.624815
H49   H     H_    0.930965 0.789466 0.202407 0.231171
H50   H     H_    0.961078 0.730426 0.128254 0.215619
N9    N     N_3   0.722372 0.000086 0.513958 -0.536224
H51   H     H_    0.763572 0.954794 0.543093 0.180597
H52   H     H_    0.763583 0.045851 0.543932 0.181191
N10   N     N_3   0.222372 0.500085 0.513958 -0.536234
H53   H     H_    0.263568 0.454791 0.543091 0.180600
H54   H     H_    0.263587 0.545847 0.543931 0.181190

loop_
_geom_bond_atom_site_label_1
_geom_bond_atom_site_label_2
_ccdc_geom_bond_type
C26   H2    S    
Cu1   O10   S    
C83   C87   A    
C15   C19   A    
C25   H1    S    
Cu1   N1    S    
C17   H39   S    
C2    O6    A    
C14   C18   A    
C18   H40   S    
C3    O3    A    
C25   C63   A    
Cu2   O12   S    
Cu4   N4    S    
N7    H47   S    
C64   H26   S    
N9    H52   S    
C22   H28   S    
C18   C86   A    
C75   C79   A    
C2    C29   S    
C17   C85   A    
N8    H49   S    
C42   O16   A    
C5    C11   A    
C35   H11   S    
C4    O4    A    
Cu3   O14   S    
C63   H25   S    
C41   O11   A    
N10   H53   S    
C69   H31   S    
C6    C22   A    
C39   O13   A    
C49   C57   A    
C40   O14   A    
C7    C9    A    
C43   H13   S    
C45   C47   A    
C23   C67   A    
C26   C64   A    
C22   C66   A    
C9    C13   A    
C27   C61   A    
C30   C70   A    
Cu3   N3    S    
C27   H3    S    
C78   N6    S    
Cu3   O5    S    
C80   N8    S    
C12   C16   A    
C44   C46   A    
Cu1   O1    S    
C61   H23   S    
C34   H8    S    
C15   H21   S    
Cu4   O15   S    
C58   H10   S    
C30   C86   A    
C60   N2    A    
C29   C85   A    
C1    O1    A    
C21   C65   A    
C31   C71   A    
C20   H42   S    
C33   C59   A    
C55   H17   S    
C34   C60   A    
C10   C62   A    
C11   C15   A    
C79   N7    S    
Cu2   O11   S    
C6    C12   A    
C56   H18   S    
N7    H48   S    
C52   C54   A    
C41   C68   S    
C29   C69   A    
C53   C55   A    
Cu2   Cu4   S    
C46   C48   A    
C6    C84   A    
C40   O10   A    
Cu4   O8    S    
C26   C66   A    
C76   C80   A    
C31   C87   A    
C32   C72   A    
C10   C14   A    
N9    H51   S    
C79   C81   A    
C49   C51   A    
C73   H35   S    
C72   H34   S    
C33   H7    S    
C50   C58   A    
C37   C43   A    
C14   H20   S    
C5    C83   A    
C38   C44   A    
C1    O5    A    
C70   H32   S    
Cu2   N2    S    
C50   C52   A    
C45   C49   A    
C16   C20   A    
Cu1   O2    S    
C4    O8    A    
C47   N3    A    
C24   H30   S    
C57   N1    A    
C25   C65   A    
N5    H44   S    
C43   C45   A    
Cu2   O4    S    
C23   H29   S    
C19   H41   S    
C35   N3    A    
C72   C74   A    
C7    C81   A    
C3    O7    A    
C44   H14   S    
C40   C65   S    
C70   C76   A    
N6    H45   S    
C39   C66   S    
C9    C61   A    
C32   C88   A    
Cu1   Cu3   S    
C39   O9    A    
C74   H36   S    
C59   N9    S    
C47   C55   A    
Cu3   O6    S    
Cu1   O9    S    
C12   C64   A    
C73   C77   A    
C41   O15   A    
C35   C37   A    
Cu4   O7    S    
C59   N1    A    
C8    C10   A    
C54   H6    S    
C84   C88   A    
C28   C68   A    
C16   H22   S    
C54   C56   A    
C37   H15   S    
C48   C56   A    
C33   C51   A    
C57   H9    S    
C46   C50   A    
C34   C52   A    
C48   N4    A    
C28   H4    S    
C53   H5    S    
C36   C38   A    
C19   C87   A    
C60   N10   S    
C13   H19   S    
C82   C86   A    
C77   N5    S    
Cu3   O13   S    
N6    H46   S    
C36   H12   S    
C42   C67   S    
N10   H54   S    
C7    C23   A    
Cu2   O3    S    
C20   C88   A    
N8    H50   S    
C1    C30   S    
C8    C24   A    
C80   C82   A    
C69   C75   A    
C38   H16   S    
C3    C32   S    
C42   O12   A    
C4    C31   S    
C27   C67   A    
C62   H24   S    
C24   C68   A    
C13   C17   A    
C78   C84   A    
C8    C82   A    
C5    C21   A    
C21   H27   S    
C74   C78   A    
C71   C73   A    
N5    H43   S    
C77   C83   A    
C71   H33   S    
Cu4   O16   S    
C2    O2    A    
C51   C53   A    
C11   C63   A    
C36   N4    A    
C81   C85   A    
C76   H38   S    
C75   H37   S    
C28   C62   A    
C58   N2    A    
