data_mof_unit_48838.cif
_audit_creation_date              2012-12-11T14:17:42-0500
_audit_creation_method            fapswitch 2.2
_symmetry_space_group_name_H-M    P1
_symmetry_Int_Tables_number       1
_space_group_crystal_system       triclinic
_cell_length_a                    6.942234
_cell_length_b                    13.629453
_cell_length_c                    20.438373
_cell_angle_alpha                 102.031764
_cell_angle_beta                  90.16207
_cell_angle_gamma                 90.588699
_cell_volume                      1891.24855535

loop_
_atom_site_label
_atom_site_type_symbol
_atom_type_description
_atom_site_fract_x
_atom_site_fract_y
_atom_site_fract_z
_atom_type_partial_charge
O1    O     O_R   0.506860 0.599390 0.449240 -0.538013
O2    O     O_R   0.180220 0.594600 0.586780 -0.553483
O3    O     O_R   0.004500 0.400610 0.550760 -0.538488
C1    C     C_R   0.349468 0.613504 0.614283 0.666115
O4    O     O_R   0.177490 0.611290 0.451970 -0.540568
O5    O     O_R   0.001750 0.417420 0.414990 -0.538465
C2    C     C_R   0.346556 0.637846 0.435117 0.698564
O6    O     O_R   0.509610 0.582580 0.585010 -0.540020
O7    O     O_3   0.337420 0.436370 0.488020 -0.370142
V1    V     V_3+5 0.064680 0.511800 0.502220 1.413430
O8    O     O_R   0.671710 0.405400 0.413220 -0.544920
C3    C     C_R   0.839854 0.382928 0.387113 0.725072
O9    O     O_R   0.674440 0.388710 0.548030 -0.541727
C4    C     C_R   0.842767 0.362318 0.565006 0.696257
V2    V     V_3+5 0.564010 0.488200 0.497780 1.417013
O10   O     O_3   0.841140 0.563630 0.511980 -0.372447
C5    C     C_R   0.851946 0.111312 0.612958 -0.159661
H1    H     H_    0.844938 0.161474 0.520228 0.103175
H2    H     H_    0.857797 0.985916 0.696043 0.121711
H3    H     H_    0.851295 0.032908 0.587986 0.112090
C6    C     C_R   0.849708 0.285526 0.605215 -0.030113
C7    C     C_R   0.862709 0.315685 0.928687 -0.168019
C8    C     C_R   0.859828 0.391871 0.892952 -0.120484
C9    C     C_R   0.857669 0.369158 0.823245 -0.162133
C10   C     C_R   0.857662 0.268367 0.787129 0.079202
C11   C     C_R   0.859965 0.190526 0.824201 0.067039
C12   C     C_R   0.855651 0.242213 0.715631 0.072864
C13   C     C_R   0.855274 0.139181 0.683087 0.142438
C14   C     C_R   0.857818 0.064533 0.720576 -0.206392
C15   C     C_R   0.860283 0.089577 0.789940 -0.197281
C16   C     C_R   0.853529 0.314550 0.675014 -0.220963
C17   C     C_R   0.848567 0.184127 0.574281 -0.175565
C18   C     C_R   0.862770 0.215346 0.895078 -0.074860
H4    H     H_    0.865354 0.335002 0.982881 0.097013
H5    H     H_    0.856428 0.432397 0.799340 0.102660
H6    H     H_    0.859891 0.469421 0.919502 0.117430
H7    H     H_    0.862266 0.028698 0.816534 0.119304
C19   C     C_2   0.001873 0.289873 0.284523 -0.123926
C20   C     C_2   0.842913 0.309989 0.322545 -0.281517
H8    H     H_    0.138066 0.325170 0.302868 0.132201
H9    H     H_    0.708947 0.270286 0.307085 0.169259
C21   C     C_2   0.005895 0.215661 0.219451 -0.159211
C22   C     C_2   0.856728 0.195493 0.175570 0.140222
H10   H     H_    0.141483 0.177392 0.206789 0.096232
C23   C     C_2   0.207248 0.779300 0.786106 -0.133625
C24   C     C_2   0.363040 0.827562 0.816876 -0.272128
H11   H     H_    0.069944 0.786470 0.811915 0.132193
H12   H     H_    0.497948 0.826777 0.790325 0.172375
C25   C     C_2   0.209303 0.720101 0.715840 -0.160792
C26   C     C_2   0.363605 0.670609 0.684651 0.138447
H13   H     H_    0.072762 0.715364 0.689241 0.100666
C27   C     C_R   0.369133 0.888763 0.387097 -0.158783
H14   H     H_    0.364977 0.838641 0.479867 0.102196
H15   H     H_    0.376895 0.014099 0.303947 0.121745
H16   H     H_    0.375068 0.967148 0.412048 0.112674
C28   C     C_R   0.355991 0.714615 0.394888 -0.031657
C29   C     C_R   0.349694 0.684333 0.071410 -0.167859
C30   C     C_R   0.344392 0.608167 0.107168 -0.122445
C31   C     C_R   0.346975 0.630883 0.176873 -0.160958
C32   C     C_R   0.354791 0.731687 0.212955 0.079114
C33   C     C_R   0.359696 0.809498 0.175855 0.068474
C34   C     C_R   0.358223 0.757881 0.284448 0.071665
C35   C     C_R   0.366221 0.860888 0.316963 0.142780
C36   C     C_R   0.370863 0.935498 0.279442 -0.207254
C37   C     C_R   0.367694 0.910434 0.210080 -0.199002
C38   C     C_R   0.353586 0.685595 0.325089 -0.214263
C39   C     C_R   0.363642 0.815982 0.425807 -0.177076
C40   C     C_R   0.357208 0.784666 0.104981 -0.074938
H17   H     H_    0.347007 0.606171 0.304394 0.093578
H18   H     H_    0.348414 0.664997 0.017215 0.101379
H19   H     H_    0.342924 0.567604 0.200778 0.102491
H20   H     H_    0.338705 0.530625 0.080638 0.117572
O11   O     O_R   0.203230 0.917310 0.915020 -0.538740
O12   O     O_R   0.535500 0.888690 0.048040 -0.539598
O13   O     O_R   0.711080 0.082610 0.085000 -0.541708
C41   C     C_R   0.366494 0.862099 0.064898 0.689073
O14   O     O_R   0.532630 0.905370 0.913230 -0.545795
O15   O     O_R   0.708190 0.099410 0.949230 -0.538745
C42   C     C_R   0.364183 0.886368 0.886068 0.726520
O16   O     O_R   0.206120 0.900510 0.050790 -0.538558
O17   O     O_3   0.375360 0.063570 0.011990 -0.372484
V3    V     V_3+5 0.648170 0.988200 0.997780 1.419193
O18   O     O_R   0.038240 0.111390 0.951940 -0.540008
C43   C     C_R   0.869853 0.137883 0.935111 0.688401
O19   O     O_R   0.041120 0.094710 0.086750 -0.551712
C44   C     C_R   0.872116 0.117968 0.112714 0.668545
V4    V     V_3+5 0.148810 0.011930 0.002180 1.415902
O20   O     O_3   0.871750 0.936430 0.988010 -0.369489
N1    N     N_2   0.683381 0.251888 0.187087 -0.519424
H21   H     H_    0.559491 0.210957 0.171946 0.257469
C45   C     C_3   0.689333 0.345495 0.164320 -0.538436
H22   H     H_    0.553555 0.386854 0.178330 0.187335
H23   H     H_    0.704720 0.330825 0.109015 0.175817
H24   H     H_    0.811440 0.393324 0.188138 0.214808
N2    N     N_2   0.539041 0.665185 0.720262 -0.520588
H25   H     H_    0.661729 0.667244 0.692226 0.254607
C46   C     C_3   0.542978 0.585445 0.757137 -0.542722
H26   H     H_    0.678889 0.590691 0.786477 0.183817
H27   H     H_    0.535899 0.511170 0.722130 0.185096
H28   H     H_    0.420311 0.592189 0.792538 0.215039
H29   H     H_    0.371540 0.971289 0.183461 0.115013
H30   H     H_    0.853662 0.394004 0.695724 0.093907

loop_
_geom_bond_atom_site_label_1
_geom_bond_atom_site_label_2
_ccdc_geom_bond_type
O18   V4    S    
V4    O20   S    
N2    H25   S    
C37   H29   S    
C1    O6    A    
C46   H26   S    
C20   H9    S    
O19   C44   A    
C6    C16   A    
C22   N1    S    
O12   C41   A    
C4    C6    S    
C13   C14   A    
C19   C21   S    
O16   V4    S    
O5    C3    A    
C19   C20   D    
V3    O20   S    
C26   N2    S    
C38   H17   S    
V2    O10   S    
C8    H6    S    
C5    H3    S    
C32   C34   A    
O11   V4    S    
O13   C44   A    
O8    V2    S    
C25   H13   S    
C8    C9    A    
O1    V2    S    
C29   H18   S    
N1    C45   S    
C14   C15   A    
O7    V1    S    
C27   H16   S    
C23   H11   S    
C31   C32   A    
O9    C4    A    
C5    C13   A    
C21   H10   S    
C2    C28   S    
O12   V3    S    
C46   H27   S    
O17   V3    S    
O14   C42   A    
C7    H4    S    
C6    C17   A    
C24   H12   S    
C9    H5    S    
C34   C38   A    
O19   V4    S    
C12   C16   A    
C16   H30   S    
C9    C10   A    
C45   H22   S    
O4    C2    A    
C30   C31   A    
C23   C24   D    
C15   H7    S    
C1    C26   S    
C32   C33   A    
O2    C1    A    
C34   C35   A    
O15   C43   A    
C45   H23   S    
O15   V3    S    
C11   C18   A    
O18   C43   A    
C23   C25   S    
O11   C42   A    
C27   C39   A    
O17   V4    S    
O3    C4    A    
C11   C15   A    
O6    V2    S    
O9    V2    S    
C40   C41   S    
C21   C22   D    
C29   C40   A    
O2    V1    S    
C46   H28   S    
C7    C18   A    
O1    C2    A    
C22   C44   S    
C41   O16   A    
C27   C35   A    
O5    V1    S    
O8    C3    A    
N2    C46   S    
O13   V3    S    
C10   C12   A    
C28   C39   A    
C36   C37   A    
C3    C20   S    
C10   C11   A    
O4    V1    S    
O3    V1    S    
V1    O10   S    
C45   H24   S    
C19   H8    S    
C33   C40   A    
C30   H20   S    
C29   C30   A    
C24   C42   S    
H15   C36   S    
O14   V3    S    
C28   C38   A    
O7    V2    S    
H14   C39   S    
C18   C43   S    
C35   C36   A    
C33   C37   A    
H1    C17   S    
C25   C26   D    
C12   C13   A    
C5    C17   A    
C7    C8    A    
N1    H21   S    
C31   H19   S    
H2    C14   S    
