data_mof_unit_47654.cif
_audit_creation_date              2013-03-05T16:21:22-0500
_audit_creation_method            fapswitch 2.2
_symmetry_space_group_name_H-M    P1
_symmetry_Int_Tables_number       1
_space_group_crystal_system       triclinic
_cell_length_a                    8.768633
_cell_length_b                    15.120557
_cell_length_c                    13.978218
_cell_angle_alpha                 89.510975
_cell_angle_beta                  97.665312
_cell_angle_gamma                 92.953015
_cell_volume                      1834.32195494

loop_
_atom_site_label
_atom_site_type_symbol
_atom_site_description
_atom_site_fract_x
_atom_site_fract_y
_atom_site_fract_z
_atom_type_partial_charge
O1    O     O_R   0.500010 0.371450 0.581430 -0.550464
O2    O     O_R   0.499990 0.628550 0.418570 -0.556501
O3    O     O_R   0.500010 0.371460 0.418560 -0.569895
O4    O     O_R   0.499990 0.628540 0.581440 -0.545621
C1    C     C_R   0.508670 0.329930 0.501617 0.861837
C2    C     C_R   0.498176 0.669554 0.499260 0.866817
O5    O     O_R   0.274840 0.499990 0.562640 -0.547204
O6    O     O_R   0.725160 0.500010 0.437360 -0.567916
O7    O     O_R   0.274840 0.500000 0.399770 -0.528249
O8    O     O_R   0.725160 0.500000 0.600230 -0.542531
C3    C     C_R   0.204269 0.498574 0.476004 0.863710
C4    C     C_R   0.795464 0.503616 0.524072 0.850444
Cu1   Cu    Cu3+1 0.500000 0.499990 0.596430 1.122099
Cu2   Cu    Cu3+1 0.500000 0.500010 0.403570 1.097422
C5    C     C_2   0.039464 0.483934 0.467598 -0.237157
C6    C     C_2   0.959833 0.520384 0.533221 -0.204708
C7    C     C_R   0.518548 0.088994 0.586814 0.296370
C8    C     C_R   0.380389 0.903391 0.441754 0.335101
C9    C     C_R   0.528884 0.182286 0.592100 -0.125725
C10   C     C_R   0.373444 0.809987 0.443231 -0.143433
C11   C     C_R   0.524475 0.232794 0.505079 -0.142895
C12   C     C_R   0.495730 0.765706 0.496772 -0.118795
C13   C     C_R   0.532319 0.188945 0.418017 -0.115020
C14   C     C_R   0.623853 0.813665 0.543845 -0.083606
H1    H     H_    0.541094 0.225496 0.352192 0.214447
H2    H     H_    0.718939 0.780069 0.582893 0.212227
C15   C     C_R   0.529727 0.097420 0.414122 -0.085205
C16   C     C_R   0.632560 0.905195 0.539261 -0.090861
H3    H     H_    0.536875 0.065461 0.345898 0.203637
H4    H     H_    0.732953 0.941229 0.576373 0.193097
C17   C     C_R   0.516456 0.047216 0.496927 -0.013608
C18   C     C_R   0.510826 0.950440 0.490027 -0.010893
C19   C     C_R   0.571609 0.572417 0.113416 -0.260829
C20   C     C_R   0.378870 0.462851 0.884367 -0.275150
H5    H     H_    0.626332 0.629221 0.081725 0.191310
H6    H     H_    0.281181 0.432573 0.914357 0.199505
C21   C     C_R   0.572356 0.569516 0.214635 0.474061
C22   C     C_R   0.379765 0.459786 0.783492 0.478637
N1    N     N_R   0.500000 0.500020 0.258690 -0.293944
N2    N     N_R   0.500000 0.499980 0.741310 -0.284976
C23   C     C_R   0.432142 0.430829 0.200957 0.464256
C24   C     C_R   0.619095 0.542551 0.801081 0.493027
C25   C     C_R   0.434702 0.431945 0.100299 -0.267315
C26   C     C_R   0.621563 0.543480 0.902273 -0.261649
H7    H     H_    0.383313 0.375751 0.058093 0.197660
H8    H     H_    0.719298 0.575621 0.946391 0.190063
C27   C     C_R   0.502235 0.503211 0.054289 0.051039
C28   C     C_R   0.500859 0.503714 0.945855 0.047030
C29   C     C_2   0.969377 0.415428 0.397240 0.941102
O9    O     O_2   0.967243 0.428852 0.310739 -0.503164
O10   O     O_R   0.901310 0.337340 0.430256 -0.743174
H9    H     H_    0.854736 0.296690 0.375570 0.343925
C30   C     C_2   0.019722 0.599048 0.592701 0.977635
O11   O     O_2   0.116588 0.592268 0.663372 -0.496684
O12   O     O_R   0.958827 0.681150 0.568768 -0.729880
H10   H     H_    0.006711 0.730024 0.614037 0.359322
N3    N     N_R   0.512767 0.036456 0.672621 0.137958
O13   O     O_R   0.400013 0.977887 0.677481 -0.277019
O14   O     O_R   0.624927 0.043203 0.743599 -0.291476
N4    N     N_R   0.249763 0.950215 0.399468 0.146853
O15   O     O_R   0.120970 0.941968 0.436136 -0.293892
O16   O     O_R   0.253673 0.992392 0.318297 -0.276033
C31   C     C_2   0.548674 0.223971 0.688989 0.990573
O17   O     O_2   0.660087 0.274586 0.713596 -0.539757
O18   O     O_R   0.443796 0.202170 0.753590 -0.655205
H11   H     H_    0.470401 0.234231 0.817520 0.348410
C32   C     C_2   0.238316 0.760235 0.389525 0.945407
O19   O     O_2   0.183694 0.693340 0.424175 -0.607466
O20   O     O_R   0.172660 0.790416 0.299257 -0.655968
H12   H     H_    0.081163 0.751224 0.270181 0.374205
N5    N     N_R   0.653246 0.640372 0.269950 0.141772
O21   O     O_R   0.791047 0.628881 0.313923 -0.317741
O22   O     O_R   0.609562 0.720748 0.254229 -0.326683
N6    N     N_R   0.250088 0.414772 0.727467 0.152331
O23   O     O_R   0.270477 0.347711 0.674149 -0.322735
O24   O     O_R   0.112365 0.424548 0.749536 -0.279743
N7    N     N_R   0.359139 0.354304 0.239971 0.131528
O25   O     O_R   0.243908 0.363217 0.287725 -0.293151
O26   O     O_R   0.377280 0.276569 0.205088 -0.354124
N8    N     N_R   0.744272 0.587980 0.763026 0.138493
O27   O     O_R   0.883596 0.564878 0.792514 -0.296455
O28   O     O_R   0.725197 0.666609 0.726677 -0.348809

loop_
_geom_bond_atom_site_label_1
_geom_bond_atom_site_label_2
_geom_bond_distance
_ccdc_geom_bond_type
O12   H10   1.013887 S    
C31   O18   1.398235 S    
C24   N8    1.425290 S    
C15   H3    1.083434 S    
C10   C32   1.487935 S    
N1    C23   1.386375 A    
N7    O25   1.296218 A    
O5    C3    1.284180 A    
C8    C18   1.409992 A    
N6    O24   1.301526 A    
O1    C1    1.297704 A    
C9    C11   1.427949 A    
C14   H2    1.081046 S    
C23   N7    1.432515 S    
N3    O14   1.301194 A    
C5    C6    1.360844 D    
C2    C12   1.455188 S    
N4    O16   1.300406 A    
O4    Cu1   1.953235 S    
C6    C30   1.489250 S    
Cu1   N2    2.025163 S    
C7    C9    1.410804 A    
Cu2   N1    2.025164 S    
C3    C5    1.439917 S    
C17   C18   1.465169 S    
C9    C31   1.483978 S    
C29   O10   1.398192 S    
C13   C15   1.384344 A    
C20   H6    1.082226 S    
N2    C24   1.382065 A    
Cu1   Cu2   2.695837 S    
C23   C25   1.410126 A    
O2    C2    1.294047 A    
C24   C26   1.411938 A    
C26   H8    1.082669 S    
N7    O26   1.301670 A    
C11   C13   1.402187 A    
N6    O23   1.297204 A    
C15   C17   1.393327 A    
O10   H9    1.013802 S    
C4    C6    1.439339 S    
C16   C18   1.397259 A    
N8    O28   1.298906 A    
N5    O22   1.301137 A    
C30   O11   1.221155 D    
C19   C21   1.414315 A    
C32   O19   1.220949 D    
N4    O15   1.300951 A    
C32   O20   1.398301 S    
O7    Cu2   1.967957 S    
O7    C3    1.301179 A    
C27   C28   1.514120 S    
O6    C4    1.284708 A    
C1    C11   1.482132 S    
C25   H7    1.082246 S    
O3    Cu2   1.953233 S    
O8    C4    1.298810 A    
C8    N4    1.434716 S    
C10   C12   1.417577 A    
O18   H11   1.013981 S    
C21   N5    1.427702 S    
C7    C17   1.408640 A    
C12   C14   1.395710 A    
O4    C2    1.299385 A    
O1    Cu1   1.956656 S    
C30   O12   1.397047 S    
C22   N6    1.435735 S    
O6    Cu2   1.967829 S    
C20   C22   1.412287 A    
C14   C16   1.383557 A    
N8    O27   1.300618 A    
O3    C1    1.310323 A    
O8    Cu1   1.967956 S    
C16   H4    1.083741 S    
N5    O21   1.299895 A    
C21   N1    1.382202 A    
C22   N2    1.386468 A    
N3    O13   1.301195 A    
C19   C27   1.401146 A    
C19   H5    1.082564 S    
C8    C10   1.410589 A    
C5    C29   1.486086 S    
O20   H12   1.013989 S    
O2    Cu2   1.956658 S    
C31   O17   1.223218 D    
O5    Cu1   1.967831 S    
C13   H1    1.078796 S    
C20   C28   1.400139 A    
C29   O9    1.222171 D    
C25   C27   1.396246 A    
C26   C28   1.397528 A    
C7    N3    1.438079 S    
