data_mof_unit_23927.cif
_audit_creation_date              2013-03-05T16:36:16-0500
_audit_creation_method            fapswitch 2.2
_symmetry_space_group_name_H-M    P1
_symmetry_Int_Tables_number       1
_space_group_crystal_system       triclinic
_cell_length_a                    27.562578
_cell_length_b                    9.312286
_cell_length_c                    7.773476
_cell_angle_alpha                 90.000767
_cell_angle_beta                  89.993314
_cell_angle_gamma                 87.021909
_cell_volume                      1992.52820692

loop_
_atom_site_label
_atom_site_type_symbol
_atom_site_description
_atom_site_fract_x
_atom_site_fract_y
_atom_site_fract_z
_atom_type_partial_charge
O1    O     O_R   0.500000 0.288390 0.642760 -0.575035
O2    O     O_R   0.500000 0.711610 0.357240 -0.575668
O3    O     O_R   0.500000 0.711610 0.642760 -0.575043
O4    O     O_R   0.500000 0.288390 0.357240 -0.575673
C1    C     C_R   0.500107 0.219612 0.500000 0.829035
C2    C     C_R   0.499893 0.780388 0.500002 0.828940
O5    O     O_R   0.430260 0.500000 0.642770 -0.571165
O6    O     O_R   0.569740 0.500000 0.357230 -0.571894
O7    O     O_R   0.569740 0.500000 0.642770 -0.571166
O8    O     O_R   0.430260 0.500000 0.357230 -0.571840
C3    C     C_R   0.407199 0.503848 0.500193 0.806845
C4    C     C_R   0.592801 0.496152 0.500171 0.806794
Cu1   Cu    Cu3+1 0.500000 0.500000 0.669080 1.036285
Cu2   Cu    Cu3+1 0.500000 0.500000 0.330920 1.035717
C5    C     C_R   0.181472 0.434845 0.714450 0.636820
C6    C     C_R   0.818437 0.567906 0.713055 0.636821
C7    C     C_R   0.167791 0.617628 0.504194 0.590007
C8    C     C_R   0.832275 0.385577 0.502321 0.590482
O9    O     O_2   0.211242 0.374588 0.834564 -0.480483
O10   O     O_2   0.788596 0.627921 0.833153 -0.480951
O11   O     O_2   0.182380 0.687501 0.363147 -0.489131
O12   O     O_2   0.817741 0.315860 0.361091 -0.488866
N1    N     N_R   0.199717 0.524345 0.591613 -0.445351
N2    N     N_R   0.800280 0.478385 0.590081 -0.445502
C9    C     C_R   0.278147 0.647073 0.547901 0.056914
C10   C     C_R   0.722072 0.354529 0.546961 0.056666
C11   C     C_R   0.279422 0.386293 0.531945 0.005613
C12   C     C_R   0.720385 0.615399 0.531046 0.005507
C13   C     C_R   0.328419 0.641462 0.520355 -0.241206
C14   C     C_R   0.671784 0.359466 0.519920 -0.241522
C15   C     C_R   0.329840 0.383687 0.507455 -0.227265
C16   C     C_R   0.669958 0.617330 0.507133 -0.227472
C17   C     C_R   0.252101 0.519301 0.555468 0.181701
C18   C     C_R   0.747899 0.482716 0.554322 0.181984
C19   C     C_R   0.100286 0.519547 0.647052 -0.039697
C20   C     C_R   0.899684 0.483734 0.645648 -0.039808
C21   C     C_R   0.131367 0.408895 0.714812 -0.064731
C22   C     C_R   0.868525 0.594097 0.713632 -0.064565
C23   C     C_R   0.118928 0.635715 0.558261 -0.080349
C24   C     C_R   0.881130 0.367719 0.556353 -0.079981
C25   C     C_R   0.110264 0.281835 0.778010 -0.002108
C26   C     C_R   0.889532 0.721036 0.777518 -0.001971
C27   C     C_R   0.087011 0.756818 0.518475 -0.122559
C28   C     C_R   0.913072 0.246755 0.516450 -0.122272
C29   C     C_R   0.354235 0.510061 0.503078 -0.045511
C30   C     C_R   0.645761 0.490579 0.502964 -0.045280
C31   C     C_R   0.980600 0.366747 0.645459 0.061246
C32   C     C_R   0.019371 0.636591 0.646473 0.060872
C33   C     C_R   0.969634 0.625924 0.684517 0.029014
C34   C     C_R   0.030287 0.377300 0.684317 0.029174
C35   C     C_R   0.949948 0.491505 0.661735 0.085500
C36   C     C_R   0.050004 0.511782 0.662553 0.085382
C37   C     C_R   0.961450 0.242833 0.575792 -0.210056
C38   C     C_R   0.038591 0.760650 0.577499 -0.208824
C39   C     C_R   0.939191 0.740691 0.744058 -0.210186
C40   C     C_R   0.060645 0.262342 0.743756 -0.210339
C41   C     C_1   0.500035 0.064916 0.500003 -0.148008
C42   C     C_1   0.499966 0.935083 0.500005 -0.148055
N3    N     N_1   0.500000 0.500000 0.076820 -0.037111
N4    N     N_1   0.500000 0.500000 0.923180 -0.037147
H1    H     H_    0.350595 0.281881 0.495655 0.165257
H2    H     H_    0.649050 0.718882 0.495441 0.165195
H3    H     H_    0.347801 0.739944 0.518166 0.153057
H4    H     H_    0.652563 0.260694 0.517791 0.153049
C43   C     C_2   0.258403 0.245836 0.547926 0.940302
O13   O     O_2   0.219558 0.222494 0.480361 -0.549852
O14   O     O_R   0.283439 0.141287 0.647349 -0.732397
H5    H     H_    0.263194 0.058482 0.678307 0.380071
C44   C     C_2   0.741267 0.756147 0.546248 0.941053
O15   O     O_2   0.780075 0.779548 0.478420 -0.550072
O16   O     O_R   0.716163 0.860928 0.645163 -0.732849
H6    H     H_    0.736352 0.944001 0.675587 0.379499
C45   C     C_2   0.254022 0.789220 0.564580 0.875551
O17   O     O_2   0.229374 0.819392 0.691407 -0.619371
O18   O     O_R   0.257067 0.884968 0.427219 -0.703897
H7    H     H_    0.231013 0.964994 0.431668 0.396480
C46   C     C_2   0.746475 0.212676 0.563198 0.874661
O19   O     O_2   0.771186 0.182641 0.689898 -0.618325
O20   O     O_R   0.743654 0.117139 0.425532 -0.703561
H8    H     H_    0.769777 0.037296 0.430139 0.397131
C47   C     C_2   0.137201 0.165113 0.873554 0.924658
O21   O     O_2   0.117459 0.107428 0.994324 -0.520730
O22   O     O_R   0.183767 0.116389 0.824215 -0.705736
H9    H     H_    0.197794 0.037587 0.902413 0.373997
C48   C     C_2   0.862420 0.837440 0.873034 0.924484
O23   O     O_2   0.881923 0.894659 0.994622 -0.520190
O24   O     O_R   0.815943 0.886315 0.822783 -0.705155
H10   H     H_    0.801730 0.964681 0.901222 0.374359
C49   C     C_2   0.102771 0.884149 0.424236 0.965526
O25   O     O_2   0.083101 0.918372 0.288609 -0.474567
O26   O     O_R   0.138253 0.969582 0.491110 -0.690609
H11   H     H_    0.148755 0.937287 0.610128 0.326569
C50   C     C_2   0.897267 0.119386 0.422557 0.966063
O27   O     O_2   0.916245 0.086509 0.285272 -0.473152
O28   O     O_R   0.862499 0.032488 0.491515 -0.692100
H12   H     H_    0.852411 0.064380 0.611156 0.326167
H13   H     H_    0.985005 0.147893 0.552786 0.148380
H14   H     H_    0.015047 0.855616 0.554541 0.148263
H15   H     H_    0.954624 0.842153 0.775546 0.164725
H16   H     H_    0.045155 0.160814 0.774568 0.164537

loop_
_geom_bond_atom_site_label_1
_geom_bond_atom_site_label_2
_geom_bond_distance
_ccdc_geom_bond_type
O24   H10   1.013923 S    
C13   H3    1.085194 S    
C50   O27   1.220419 D    
C14   H4    1.085180 S    
C45   O17   1.221657 D    
C15   H1    1.085403 S    
C19   C23   1.402982 A    
C12   C44   1.463397 S    
O3    C2    1.281224 A    
C47   O21   1.223221 D    
Cu1   N4    1.975239 S    
C48   O23   1.223136 D    
C11   C17   1.427475 A    
C5    O9    1.346229 S    
Cu2   N3    1.975239 S    
C7    N1    1.382562 A    
O1    C1    1.281219 A    
C19   C21   1.407656 A    
C22   C26   1.431921 A    
C32   C36   1.406208 A    
C43   O14   1.397042 S    
N1    C17   1.469241 S    
C7    C23   1.412493 A    
C44   O16   1.397063 S    
O7    Cu1   1.933037 S    
C5    C21   1.414311 A    
C20   C24   1.402852 A    
C8    C24   1.412145 A    
C28   C50   1.477518 S    
C28   C37   1.409681 A    
C10   C18   1.422416 A    
O28   H12   1.010850 S    
C33   C35   1.401143 A    
C34   C36   1.401077 A    
C49   O26   1.393039 S    
O3    Cu1   1.981169 S    
C6    O10   1.346270 S    
C31   C37   1.402416 A    
C48   O24   1.392932 S    
C12   C18   1.427300 A    
N3    N4    1.194318 T    
C6    N2    1.379377 A    
Cu1   Cu2   2.628679 S    
O4    Cu2   1.981169 S    
C45   O18   1.396410 S    
O2    C2    1.281233 A    
C47   O22   1.392708 S    
O5    C3    1.277290 A    
C31   C34   1.410858 A    
C46   O20   1.396402 S    
C9    C13   1.400325 A    
C10   C46   1.456354 S    
C11   C15   1.401576 A    
O14   H5    1.004272 S    
C12   C16   1.401476 A    
C4    C30   1.458120 S    
O8    Cu2   1.933040 S    
O26   H11   1.010553 S    
C31   C35   1.406235 A    
C37   H13   1.084187 S    
C46   O19   1.221703 D    
C34   C40   1.402381 A    
C13   C29   1.389651 A    
C32   C38   1.402254 A    
O18   H7    1.008286 S    
C25   C40   1.414251 A    
C11   C43   1.463067 S    
C26   C39   1.414381 A    
C27   C38   1.409887 A    
O22   H9    1.013939 S    
O5    Cu1   1.933088 S    
O6    C4    1.279746 A    
C25   C47   1.483449 S    
C26   C48   1.483396 S    
C27   C49   1.478111 S    
C20   C35   1.396685 A    
C32   C33   1.410920 A    
C10   C14   1.400340 A    
C8    N2    1.382284 A    
C3    C29   1.458153 S    
O1    Cu1   1.981164 S    
C40   H16   1.084191 S    
O6    Cu2   1.933085 S    
C8    O12   1.346980 S    
C16   C30   1.385942 A    
C14   C30   1.389822 A    
O4    C1    1.281239 A    
C23   C27   1.427706 A    
C1    C41   1.440679 S    
C20   C22   1.407575 A    
C16   H2    1.085389 S    
O16   H6    1.004391 S    
C33   C39   1.402580 A    
C41   C42   1.209141 T    
C5    N1    1.379414 A    
C9    C45   1.455922 S    
C2    C42   1.440678 S    
C21   C25   1.432177 A    
C44   O15   1.222189 D    
O2    Cu2   1.981163 S    
O7    C4    1.277302 A    
N2    C18   1.468789 S    
C9    C17   1.422443 A    
O8    C3    1.279759 A    
O20   H8    1.008415 S    
C24   C28   1.427269 A    
C50   O28   1.393186 S    
C43   O13   1.222189 D    
C15   C29   1.385785 A    
C39   H15   1.084151 S    
C19   C36   1.396723 A    
C38   H14   1.084178 S    
C49   O25   1.220342 D    
C6    C22   1.414361 A    
C7    O11   1.346971 S    
