data_mof_unit_41410.cif
_audit_creation_date              2012-12-11T17:04:58-0500
_audit_creation_method            fapswitch 2.2
_symmetry_space_group_name_H-M    P1
_symmetry_Int_Tables_number       1
_space_group_crystal_system       triclinic
_cell_length_a                    17.512806
_cell_length_b                    24.534457
_cell_length_c                    14.927672
_cell_angle_alpha                 90.100147
_cell_angle_beta                  125.393757
_cell_angle_gamma                 89.99023
_cell_volume                      5228.56732453

loop_
_atom_site_label
_atom_site_type_symbol
_atom_type_description
_atom_site_fract_x
_atom_site_fract_y
_atom_site_fract_z
_atom_type_partial_charge
C1    C     C_R   0.831207 0.644199 0.907239 -0.128689
C2    C     C_R   0.190046 0.624372 0.091819 -0.050899
C3    C     C_R   0.347098 0.151447 0.910039 -0.095882
C4    C     C_R   0.641627 0.154185 0.089691 -0.172747
C5    C     C_R   0.833507 0.342652 0.001368 -0.004456
C6    C     C_R   0.183436 0.360869 0.000732 0.052623
C7    C     C_R   0.364672 0.824378 0.994283 -0.012573
C8    C     C_R   0.682081 0.858875 0.001460 0.058680
C9    C     C_R   0.965977 0.503513 0.292946 -0.101700
C10   C     C_R   0.924191 0.503907 0.627424 -0.071209
C11   C     C_R   0.460955 0.003947 0.287730 -0.089503
C12   C     C_R   0.424512 0.004214 0.627413 -0.064725
C13   C     C_R   0.686684 0.500697 0.645837 -0.083093
C14   C     C_R   0.304598 0.500971 0.365184 -0.029382
C15   C     C_R   0.174519 0.001028 0.716805 -0.170159
C16   C     C_R   0.811954 0.001259 0.355681 -0.106933
C17   C     C_3   0.524029 0.457004 0.572808 -0.376761
C18   C     C_3   0.467156 0.455226 0.445747 -0.384591
C19   C     C_3   0.000066 0.961324 0.611544 -0.407304
C20   C     C_3   0.972217 0.953774 0.492719 -0.371456
C21   C     C_3   0.461287 0.503047 0.565347 0.615243
C22   C     C_3   0.530067 0.499603 0.448549 0.607399
C23   C     C_3   0.931835 0.009627 0.572639 0.612008
C24   C     C_3   0.046067 0.995290 0.514976 0.611832
C25   C     C_3   0.404847 0.501257 0.441304 0.047987
C26   C     C_3   0.586490 0.501242 0.572488 0.062702
C27   C     C_3   0.904105 0.001967 0.456403 0.080829
C28   C     C_3   0.075231 0.002376 0.632273 0.084671
C29   C     C_3   0.467408 0.545634 0.441214 -0.241632
C30   C     C_3   0.524600 0.547400 0.568347 -0.238483
C31   C     C_3   0.978834 0.043365 0.477235 -0.252526
C32   C     C_3   0.007510 0.051051 0.596316 -0.197283
C33   C     C_R   0.762425 0.305062 0.095967 0.079504
C34   C     C_R   0.303613 0.323190 0.982106 0.080961
C35   C     C_R   0.303283 0.733271 0.925924 0.075805
C36   C     C_R   0.805247 0.814255 0.999753 0.074045
C37   C     C_R   0.758516 0.315294 0.000905 0.059556
C38   C     C_R   0.243066 0.317934 0.013345 0.046381
C39   C     C_R   0.314030 0.778424 0.988429 0.056713
C40   C     C_R   0.733922 0.812138 0.013947 -0.026293
C41   C     C_R   0.672787 0.302707 0.900093 -0.396157
C42   C     C_R   0.240194 0.269604 0.060982 -0.395751
C43   C     C_R   0.269582 0.781516 0.041071 -0.378564
C44   C     C_R   0.710709 0.763357 0.041538 -0.247120
C45   C     C_R   0.922950 0.357106 0.092179 0.234507
C46   C     C_R   0.092951 0.370041 0.907983 0.136636
C47   C     C_R   0.435137 0.849862 0.088643 0.184763
C48   C     C_R   0.592822 0.869735 0.908297 0.133882
C49   C     C_R   0.225259 0.735678 0.044861 0.552454
C50   C     C_R   0.748351 0.714866 0.037294 0.538386
C51   C     C_R   0.607553 0.267761 0.897012 0.583325
C52   C     C_R   0.286299 0.223669 0.060741 0.554142
C53   C     C_R   0.229692 0.686908 0.997663 -0.055972
C54   C     C_R   0.809581 0.716931 0.004724 -0.199835
C55   C     C_R   0.632228 0.243264 0.996089 -0.015937
C56   C     C_R   0.334295 0.227523 0.011442 -0.102310
C57   C     C_R   0.261290 0.687324 0.930955 -0.112053
C58   C     C_R   0.843404 0.766432 0.995725 0.003370
C59   C     C_R   0.698303 0.271226 0.093134 -0.082781
C60   C     C_R   0.349310 0.277882 0.981345 -0.078129
C61   C     C_3   0.330006 0.650749 0.931001 0.451403
C62   C     C_3   0.850002 0.787257 0.906014 0.432741
C63   C     C_3   0.765994 0.257558 0.212849 0.397979
C64   C     C_3   0.338660 0.295895 0.878797 0.445254
C65   C     C_3   0.835867 0.295086 0.215463 -0.594119
C66   C     C_3   0.289366 0.346623 0.881051 -0.605171
C67   C     C_3   0.375824 0.701991 0.924594 -0.609636
C68   C     C_3   0.808653 0.840654 0.911961 -0.623301
C69   C     C_R   0.906867 0.557642 0.477095 0.191082
C70   C     C_R   0.920199 0.557311 0.394902 0.189521
C71   C     C_R   0.403555 0.057784 0.474051 0.158486
C72   C     C_R   0.414556 0.057595 0.389830 0.186198
C73   C     C_R   0.891556 0.508573 0.512620 0.066698
C74   C     C_R   0.918101 0.508158 0.346106 0.053266
C75   C     C_R   0.390955 0.008638 0.511988 0.066583
C76   C     C_R   0.413020 0.008446 0.341287 0.061552
C77   C     C_R   0.864214 0.462673 0.443009 -0.175450
C78   C     C_R   0.875109 0.463194 0.357459 -0.232138
C79   C     C_R   0.364274 0.962382 0.443414 -0.197784
C80   C     C_R   0.372819 0.962932 0.355876 -0.242416
C81   C     C_3   0.993537 0.600794 0.448535 -0.508022
C82   C     C_3   0.979894 0.601182 0.539256 -0.527876
C83   C     C_3   0.486141 0.102089 0.440734 -0.503112
C84   C     C_3   0.474922 0.102326 0.533460 -0.510411
C85   C     C_R   0.988781 0.547643 0.256451 -0.194539
C86   C     C_R   0.946648 0.547546 0.695781 -0.232011
C87   C     C_R   0.484710 0.047887 0.251750 -0.181440
C88   C     C_R   0.448303 0.047800 0.696502 -0.223227
C89   C     C_R   0.738625 0.455333 0.702585 0.408393
C90   C     C_R   0.255654 0.455796 0.303825 0.387984
C91   C     C_R   0.230868 0.955177 0.743489 0.501507
C92   C     C_R   0.760212 0.955706 0.299484 0.407743
C93   C     C_R   0.995823 0.456912 0.267075 0.541723
C94   C     C_R   0.937513 0.457529 0.688597 0.487842
C95   C     C_R   0.492872 0.957324 0.264531 0.525233
C96   C     C_R   0.435860 0.957857 0.687989 0.483784
C97   C     C_R   0.738466 0.545869 0.701446 0.415728
C98   C     C_R   0.256239 0.545812 0.304452 0.383852
C99   C     C_R   0.230394 0.046304 0.743053 0.473861
C100  C     C_R   0.761162 0.046295 0.299063 0.439000
C101  C     C_R   0.821732 0.365650 0.909479 -0.182464
C102  C     C_R   0.188696 0.378597 0.091073 -0.208301
C103  C     C_R   0.343257 0.852951 0.906013 -0.133632
C104  C     C_R   0.687755 0.877045 0.091505 -0.211626
C105  C     C_R   0.927203 0.645776 0.091525 -0.103079
C106  C     C_R   0.095857 0.626110 0.907345 -0.098931
C107  C     C_R   0.439693 0.150159 0.092901 -0.038676
C108  C     C_R   0.556419 0.151776 0.907848 -0.084329
C109  C     C_R   0.851257 0.669336 0.000409 0.083964
C110  C     C_R   0.183080 0.640181 0.998778 0.117227
C111  C     C_R   0.374894 0.179706 0.003580 0.128964
C112  C     C_R   0.611838 0.185358 0.997772 0.079381
H1    H     H_    0.782361 0.657726 0.823770 0.126011
H2    H     H_    0.247394 0.632814 0.175785 0.134226
H3    H     H_    0.306014 0.167711 0.827991 0.120128
H4    H     H_    0.666000 0.170190 0.168902 0.131362
H5    H     H_    0.548229 0.421472 0.628949 0.176069
H6    H     H_    0.443513 0.418068 0.393615 0.180513
H7    H     H_    0.008293 0.929263 0.668920 0.169035
H8    H     H_    0.960099 0.914722 0.448624 0.185176
H9    H     H_    0.443222 0.581279 0.385355 0.170206
H10   H     H_    0.549469 0.584481 0.620764 0.173500
H11   H     H_    0.969230 0.075876 0.419897 0.169367
H12   H     H_    0.022301 0.090001 0.641584 0.179479
H13   H     H_    0.657756 0.316453 0.822846 0.142206
H14   H     H_    0.196567 0.266612 0.090511 0.148874
H15   H     H_    0.271965 0.818890 0.081582 0.145892
H16   H     H_    0.658392 0.762637 0.058710 0.156033
H17   H     H_    0.296794 0.624411 0.856746 0.094981
H18   H     H_    0.804289 0.765005 0.826897 0.084392
H19   H     H_    0.792303 0.215014 0.231942 0.105329
H20   H     H_    0.292961 0.268815 0.806966 0.087105
H21   H     H_    0.895371 0.269724 0.234301 0.167437
H22   H     H_    0.214650 0.349013 0.810180 0.173062
H23   H     H_    0.366762 0.706186 0.844821 0.184296
H24   H     H_    0.738114 0.849456 0.836191 0.177313
H25   H     H_    0.853813 0.332067 0.267026 0.218069
H26   H     H_    0.329482 0.385046 0.898836 0.221673
H27   H     H_    0.448168 0.709854 0.998328 0.210058
H28   H     H_    0.858139 0.875657 0.944097 0.215154
H29   H     H_    0.845787 0.424219 0.460142 0.166153
H30   H     H_    0.861003 0.426382 0.310328 0.147670
H31   H     H_    0.348257 0.923776 0.463104 0.168410
H32   H     H_    0.359650 0.925691 0.310004 0.158427
H33   H     H_    0.970232 0.639263 0.400392 0.201337
H34   H     H_    0.043254 0.586940 0.618743 0.206331
H35   H     H_    0.460465 0.140179 0.391406 0.204818
H36   H     H_    0.539650 0.088940 0.612515 0.211373
H37   H     H_    0.064100 0.586139 0.476038 0.215573
H38   H     H_    0.949505 0.640032 0.543671 0.203189
H39   H     H_    0.556823 0.088445 0.466863 0.215246
H40   H     H_    0.443491 0.140733 0.537831 0.202557
H41   H     H_    0.977454 0.589739 0.264475 0.136865
H42   H     H_    0.927459 0.589518 0.671070 0.143044
H43   H     H_    0.470706 0.090075 0.256010 0.150562
H44   H     H_    0.431029 0.090009 0.672796 0.137499
H45   H     H_    0.764807 0.359669 0.825124 0.188938
H46   H     H_    0.246309 0.372354 0.175735 0.185310
H47   H     H_    0.303415 0.838021 0.822781 0.183677
H48   H     H_    0.743668 0.868705 0.175867 0.190791
H49   H     H_    0.967977 0.661938 0.174238 0.102663
H50   H     H_    0.065790 0.636119 0.822527 0.099535
H51   H     H_    0.482843 0.164082 0.177277 0.093202
H52   H     H_    0.511787 0.162839 0.822363 0.162344
N1    N     N_R   0.892620 0.603790 0.941770 -0.049072
N2    N     N_R   0.107380 0.603790 0.058230 -0.050800
N3    N     N_R   0.392620 0.103790 0.941770 -0.056788
N4    N     N_R   0.607380 0.103790 0.058230 -0.048900
N5    N     N_R   0.952270 0.397640 0.058010 -0.074280
N6    N     N_R   0.047730 0.397640 0.941990 -0.060244
N7    N     N_R   0.452270 0.897640 0.058010 -0.072579
N8    N     N_R   0.547730 0.897640 0.941990 -0.059513
N9    N     N_R   0.026310 0.529110 0.206760 -0.073088
N10   N     N_R   0.973690 0.529110 0.793240 -0.071878
N11   N     N_R   0.526310 0.029110 0.206760 -0.074766
N12   N     N_R   0.473690 0.029110 0.793240 -0.068264
N13   N     N_R   0.818570 0.472310 0.793020 -0.091437
N14   N     N_R   0.181430 0.472310 0.206980 -0.097214
N15   N     N_R   0.318570 0.972310 0.793020 -0.090703
N16   N     N_R   0.681430 0.972310 0.206980 -0.099878
N17   N     N_R   0.026930 0.472300 0.207330 -0.073267
N18   N     N_R   0.973070 0.472300 0.792670 -0.072152
N19   N     N_R   0.526930 0.972300 0.207330 -0.081148
N20   N     N_R   0.473070 0.972300 0.792670 -0.072349
N21   N     N_R   0.817960 0.529130 0.792460 -0.136586
N22   N     N_R   0.182040 0.529130 0.207540 -0.138847
N23   N     N_R   0.317960 0.029130 0.792460 -0.136240
N24   N     N_R   0.682040 0.029130 0.207540 -0.132932
N25   N     N_R   0.894850 0.397640 0.943830 -0.058260
N26   N     N_R   0.105150 0.397640 0.056170 -0.067067
N27   N     N_R   0.394850 0.897640 0.943830 -0.064870
N28   N     N_R   0.605150 0.897640 0.056170 -0.062202
N29   N     N_R   0.950040 0.603780 0.055950 -0.044390
N30   N     N_R   0.049960 0.603780 0.944050 -0.040875
N31   N     N_R   0.450040 0.103780 0.055950 -0.056068
N32   N     N_R   0.549960 0.103780 0.944050 -0.053023
Ni1   Ni    Ni4+2 0.934160 0.565860 0.869070 0.201948
Ni2   Ni    Ni4+2 0.065840 0.565860 0.130930 0.214678
Ni3   Ni    Ni4+2 0.434160 0.065860 0.869070 0.191450
Ni4   Ni    Ni4+2 0.565840 0.065860 0.130930 0.195882
Ni5   Ni    Ni4+2 0.067260 0.435560 0.132230 0.244080
Ni6   Ni    Ni4+2 0.932740 0.435560 0.867770 0.245011
Ni7   Ni    Ni4+2 0.567260 0.935560 0.132230 0.225298
Ni8   Ni    Ni4+2 0.432740 0.935560 0.867770 0.244452
O1    O     O_3   0.178770 0.737359 0.094554 -0.748437
H53   H     H_    0.182419 0.774782 0.122046 0.317547
O2    O     O_3   0.719191 0.667334 0.058717 -0.750289
H54   H     H_    0.746481 0.635251 0.046829 0.320931
O3    O     O_3   0.524045 0.254831 0.798755 -0.755216
H55   H     H_    0.518424 0.275885 0.738554 0.318827
O4    O     O_3   0.279405 0.174119 0.099688 -0.768324
H56   H     H_    0.243423 0.179049 0.131512 0.312671
O5    O     O_3   0.387931 0.621328 0.029451 -0.724480
H57   H     H_    0.414124 0.646947 0.092416 0.324486
O6    O     O_3   0.942983 0.792113 0.938669 -0.710935
H58   H     H_    0.981445 0.808965 0.012950 0.328560
O7    O     O_3   0.736609 0.276122 0.277665 -0.725204
H59   H     H_    0.712512 0.313919 0.255140 0.330025
O8    O     O_3   0.424835 0.307180 0.895413 -0.699348
H60   H     H_    0.464976 0.328086 0.964939 0.325343
C113  C     C_3   0.989626 0.313488 0.171732 -0.440555
C114  C     C_3   0.082447 0.310743 0.184435 -0.237427
C115  C     C_3   0.144794 0.265105 0.262285 -0.887361
H61   H     H_    0.159515 0.271313 0.344668 0.279389
H62   H     H_    0.110349 0.224916 0.229100 0.250559
H63   H     H_    0.212363 0.265132 0.271361 0.253377
H64   H     H_    0.068510 0.303171 0.102795 0.189577
H65   H     H_    0.119768 0.349835 0.218980 0.273208
H66   H     H_    0.005313 0.319241 0.253990 0.257943
H67   H     H_    0.955856 0.272942 0.140014 0.176944
C116  C     C_3   0.045808 0.336960 0.803563 -0.426000
C117  C     C_3   0.959614 0.306768 0.781422 -0.200806
C118  C     C_3   0.911510 0.273630 0.675340 -0.774130
H68   H     H_    0.888018 0.300713 0.604246 0.287902
H69   H     H_    0.960250 0.242500 0.681114 0.243270
H70   H     H_    0.849353 0.252538 0.661356 0.242473
H71   H     H_    0.981731 0.278700 0.850914 0.172235
H72   H     H_    0.908479 0.336046 0.775441 0.255648
H73   H     H_    0.029076 0.363173 0.734366 0.223666
H74   H     H_    0.094808 0.305646 0.810723 0.177244
C119  C     C_3   0.500475 0.816374 0.191224 -0.433062
C120  C     C_3   0.603962 0.829002 0.248173 -0.148054
C121  C     C_3   0.664413 0.796795 0.354835 -0.834045
H75   H     H_    0.647777 0.808731 0.413563 0.267724
H76   H     H_    0.652248 0.752349 0.338125 0.248322
H77   H     H_    0.739587 0.805290 0.393107 0.267495
H78   H     H_    0.624457 0.817708 0.192866 0.181473
H79   H     H_    0.616100 0.872927 0.266928 0.272585
H80   H     H_    0.478836 0.819232 0.247565 0.243159
H81   H     H_    0.491532 0.772476 0.168209 0.167802
C122  C     C_3   0.546883 0.839271 0.800949 -0.418462
C123  C     C_3   0.462907 0.805954 0.777115 -0.200621
C124  C     C_3   0.418435 0.773266 0.670971 -0.823542
H82   H     H_    0.393763 0.800962 0.600378 0.279993
H83   H     H_    0.469857 0.743988 0.677555 0.250485
H84   H     H_    0.357524 0.750034 0.655722 0.242458
H85   H     H_    0.486209 0.777324 0.846152 0.179355
H86   H     H_    0.409367 0.833437 0.769895 0.240203
H87   H     H_    0.527972 0.867557 0.733780 0.217968
H88   H     H_    0.597564 0.810504 0.804641 0.176730
O9    O     O_3   0.723778 0.402934 0.662666 -0.770749
H89   H     H_    0.667276 0.402964 0.585750 0.333996
O10   O     O_3   0.265381 0.403695 0.343135 -0.777805
H90   H     H_    0.316037 0.404008 0.422957 0.341773
O11   O     O_3   0.202806 0.903610 0.700420 -0.759219
H91   H     H_    0.136171 0.899045 0.670299 0.325813
O12   O     O_3   0.771854 0.904201 0.341669 -0.805361
H92   H     H_    0.814173 0.906485 0.422776 0.338832
O13   O     O_3   0.013121 0.406572 0.314553 -0.800334
H93   H     H_    0.014786 0.410164 0.381673 0.316383
O14   O     O_3   0.884574 0.411093 0.644719 -0.778198
H94   H     H_    0.820485 0.422543 0.584120 0.336443
O15   O     O_3   0.510194 0.907651 0.314235 -0.811080
H95   H     H_    0.514768 0.912580 0.382985 0.318458
O16   O     O_3   0.379432 0.912632 0.643608 -0.786759
H96   H     H_    0.315712 0.925501 0.584490 0.340083
O17   O     O_3   0.724002 0.596383 0.654624 -0.745743
H97   H     H_    0.785597 0.615005 0.695324 0.307448
O18   O     O_3   0.266420 0.596785 0.348575 -0.736372
H98   H     H_    0.208591 0.617481 0.295598 0.317685
O19   O     O_3   0.198419 0.096430 0.694425 -0.760493
H99   H     H_    0.247570 0.112041 0.688558 0.308767
O20   O     O_3   0.775407 0.097145 0.344809 -0.733569
H100  H     H_    0.713436 0.115020 0.305261 0.313479
O21   O     O_3   0.420891 0.504839 0.623115 -0.728409
H101  H     H_    0.474343 0.505583 0.701792 0.309966
O22   O     O_3   0.570511 0.497807 0.390817 -0.737931
H102  H     H_    0.517085 0.496999 0.312131 0.314071
O23   O     O_3   0.866933 0.017182 0.597506 -0.733804
H103  H     H_    0.904846 0.020996 0.678543 0.306560
O24   O     O_3   0.109211 0.987823 0.487226 -0.745653
H104  H     H_    0.069966 0.984071 0.406125 0.304095

loop_
_geom_bond_atom_site_label_1
_geom_bond_atom_site_label_2
_ccdc_geom_bond_type
C63   C65   S    
N20   Ni8   S    
C22   C29   S    
C55   C59   A    
C46   C116  S    
O24   H104  S    
C99   N23   A    
C115  H63   S    
C123  H86   S    
C97   N21   A    
C108  H52   S    
N11   N19   A    
C100  N24   A    
C101  N25   A    
C98   O18   S    
N30   Ni1   S    
C10   C94   A    
O14   H94   S    
C104  N28   A    
C14   C90   A    
C92   N16   A    
C93   N17   A    
C115  H61   S    
C70   C74   A    
C18   H6    S    
C65   H25   S    
C33   C59   A    
C34   C60   A    
C18   C25   S    
C1    H1    S    
C25   C29   S    
C5    C101  A    
C27   C31   S    
C41   H13   S    
C122  C123  S    
C119  H80   S    
C43   H15   S    
C77   C78   A    
C17   C21   S    
C4    N4    A    
C86   N10   A    
C64   C66   S    
C19   C23   S    
O6    H58   S    
N2    Ni2   S    
C122  H88   S    
C51   O3    S    
C68   H24   S    
C8    C104  A    
C99   O19   S    
C68   H28   S    
C89   O9    S    
N12   Ni3   S    
C20   H8    S    
C124  H83   S    
C44   C50   A    
N12   N20   A    
N3    N31   A    
N17   Ni5   S    
C47   N7    A    
C36   C68   S    
C57   C61   S    
C59   C63   S    
C62   C68   S    
C11   C76   S    
C63   O7    S    
C19   C20   S    
C86   H42   S    
C2    H2    S    
C95   N19   A    
C114  H64   S    
C49   C53   A    
C51   C55   A    
C6    C102  A    
C13   C97   A    
C69   C70   A    
C77   H29   S    
N6    Ni6   S    
C24   O24   S    
C42   H14   S    
C15   C91   A    
N14   N22   A    
C93   O13   S    
C12   C75   S    
C73   C77   A    
C8    C40   S    
N21   Ni1   S    
C91   O11   S    
C75   C79   A    
C41   C51   A    
C121  H75   S    
C42   C52   A    
C123  C124  S    
C62   H18   S    
N5    N25   A    
N16   Ni7   S    
C102  H46   S    
C3    N3    A    
C106  N30   A    
N8    N28   A    
C113  C114  S    
O9    H89   S    
C81   H37   S    
N24   Ni4   S    
C17   C18   S    
C119  C120  S    
C97   O17   S    
C69   C82   S    
C9    C85   A    
C66   H22   S    
C79   H31   S    
C31   C32   S    
C11   C87   A    
C80   H32   S    
C113  H67   S    
C6    C38   S    
C67   H27   S    
C118  H68   S    
C61   H17   S    
C122  H87   S    
C16   C27   S    
C7    C103  A    
O17   H97   S    
C61   O5    S    
N32   Ni3   S    
C14   C98   A    
C12   C88   A    
C30   H10   S    
C16   C100  A    
O7    H59   S    
C120  H79   S    
C46   N6    A    
C116  H74   S    
C29   C30   S    
C61   C67   S    
C83   C84   S    
C66   H26   S    
C35   C67   S    
C121  H77   S    
O23   H103  S    
C19   C28   S    
C107  H51   S    
C26   C30   S    
C74   C78   A    
C117  H71   S    
C105  H49   S    
C13   C26   S    
C103  N27   A    
C9    C74   S    
C105  C109  A    
C10   C86   A    
N10   Ni1   S    
C7    C39   S    
C64   O8    S    
C18   C22   S    
C107  C111  A    
N22   Ni2   S    
C24   C28   S    
C23   O23   S    
C45   N5    A    
C124  H84   S    
O12   H92   S    
C115  H62   S    
N25   Ni6   S    
C87   N11   A    
C88   N12   A    
C45   C113  S    
C71   C72   A    
C37   C41   A    
C118  H70   S    
C22   O22   S    
C19   H7    S    
C40   C44   A    
N14   Ni5   S    
O20   H100  S    
N3    Ni3   S    
C58   C62   S    
C90   N14   A    
C62   O6    S    
O16   H96   S    
O10   H90   S    
O5    H57   S    
C50   C54   A    
C88   H44   S    
N31   Ni4   S    
C78   H30   S    
C106  C110  A    
C10   C73   S    
N15   N23   A    
C5    C37   S    
N29   Ni2   S    
N13   N21   A    
N8    Ni8   S    
C21   C25   S    
N16   N24   A    
C1    C109  A    
C64   H20   S    
C3    C111  A    
C29   H9    S    
O18   H98   S    
C69   C73   A    
C63   H19   S    
C108  N32   A    
C2    N2    A    
C56   C111  S    
C17   H5    S    
N9    N17   A    
O13   H93   S    
N10   N18   A    
C104  H48   S    
C82   H34   S    
C123  H85   S    
C83   H39   S    
C84   H36   S    
O2    H54   S    
C76   C80   A    
O3    H55   S    
O8    H60   S    
C53   C57   A    
C5    C45   A    
C33   C37   A    
C108  C112  A    
N23   Ni3   S    
C7    C47   A    
C67   H23   S    
C8    C48   A    
O21   H101  S    
N1    Ni1   S    
O4    H56   S    
C28   C32   S    
C120  C121  S    
N7    N27   A    
C49   O1    S    
C16   C92   A    
C89   N13   A    
N27   Ni8   S    
C2    C110  A    
N4    Ni4   S    
N18   Ni6   S    
C4    H4    S    
C119  H81   S    
C20   C27   S    
C21   C30   S    
C95   O15   S    
C35   C57   A    
C23   C32   S    
C48   C122  S    
C24   C31   S    
C98   N22   A    
C3    H3    S    
C15   C28   S    
C124  H82   S    
C100  O20   S    
C117  C118  S    
C102  N26   A    
N28   Ni7   S    
C106  H50   S    
C14   C25   S    
N7    Ni7   S    
C72   C83   S    
N5    Ni5   S    
C56   C60   A    
C22   C26   S    
C113  H66   S    
C12   C96   A    
C94   N18   A    
C21   O21   S    
C53   C110  S    
C55   C112  S    
C32   H12   S    
C35   C39   A    
C72   C76   A    
C107  N31   A    
C81   C82   S    
C33   C65   S    
O1    H53   S    
C105  N29   A    
C17   C26   S    
C38   C42   A    
C36   C58   A    
C116  H73   S    
C70   C81   S    
C48   N8    A    
C92   O12   S    
C20   C24   S    
C121  H76   S    
C91   N15   A    
C52   O4    S    
C85   N9    A    
C23   C27   S    
O11   H91   S    
C50   O2    S    
C4    C112  A    
C117  H72   S    
C96   N20   A    
C34   C66   S    
C60   C64   S    
C101  H45   S    
C36   C40   A    
C47   C119  S    
C43   C49   A    
C39   C43   A    
O19   H99   S    
C54   C109  S    
C1    N1    A    
O15   H95   S    
C85   H41   S    
C90   O10   S    
C118  H69   S    
C82   H38   S    
C83   H35   S    
C84   H40   S    
C81   H33   S    
O22   H102  S    
C87   H43   S    
N2    N30   A    
C9    C93   A    
C71   C84   S    
C54   C58   A    
C11   C95   A    
C44   H16   S    
C6    C46   A    
C13   C89   A    
N9    Ni2   S    
C34   C38   A    
C15   C99   A    
N1    N29   A    
N26   Ni5   S    
N6    N26   A    
C120  H78   S    
N19   Ni7   S    
C31   H11   S    
C71   C75   A    
C103  H47   S    
C94   O14   S    
C114  C115  S    
N11   Ni4   S    
C79   C80   A    
N15   Ni8   S    
C114  H65   S    
N4    N32   A    
C116  C117  S    
C96   O16   S    
N13   Ni6   S    
C65   H21   S    
C52   C56   A    
