data_mof_unit_66402.cif
_audit_creation_date              2012-12-10T17:06:39-0500
_audit_creation_method            fapswitch 2.2
_symmetry_space_group_name_H-M    P1
_symmetry_Int_Tables_number       1
_space_group_crystal_system       triclinic
_cell_length_a                    15.863646
_cell_length_b                    11.047952
_cell_length_c                    9.888178
_cell_angle_alpha                 111.313992
_cell_angle_beta                  98.357819
_cell_angle_gamma                 90.816592
_cell_volume                      1593.09356505

loop_
_atom_site_label
_atom_site_type_symbol
_atom_type_description
_atom_site_fract_x
_atom_site_fract_y
_atom_site_fract_z
_atom_type_partial_charge
C1    C     C_R   0.493822 0.254175 0.440604 0.851698
C2    C     C_R   0.506028 0.745833 0.559410 0.851341
C3    C     C_2   0.500900 0.069647 0.516397 -0.126754
C4    C     C_2   0.497815 0.930418 0.483743 -0.114035
C5    C     C_2   0.500603 0.519501 0.083446 0.626198
C6    C     C_2   0.487227 0.499580 0.921387 0.624483
C7    C     C_R   0.339998 0.500040 0.500931 0.810517
C8    C     C_R   0.660001 0.499971 0.499076 0.810377
C9    C     C_3   0.974124 0.401531 0.538076 -0.286246
C10   C     C_3   0.025877 0.598565 0.462034 -0.287624
C11   C     C_3   0.018971 0.388024 0.405521 0.732519
C12   C     C_3   0.981028 0.612071 0.594590 0.733578
C13   C     C_1   0.250471 0.500650 0.502992 -0.093554
C14   C     C_1   0.749529 0.499392 0.497052 -0.098667
C15   C     C_3   0.039580 0.516845 0.636843 -0.276823
C16   C     C_3   0.960420 0.483251 0.363267 -0.279226
C17   C     C_3   0.083225 0.501503 0.502737 -0.039425
C18   C     C_3   0.916776 0.498592 0.497373 -0.038962
C19   C     C_1   0.174953 0.501098 0.503464 0.082338
C20   C     C_1   0.825049 0.498974 0.496621 0.082759
C21   C     C_2   0.490314 0.114636 0.407330 -0.300486
C22   C     C_2   0.509151 0.885391 0.592746 -0.303749
Cu1   Cu    Cu3+1 0.514700 0.521810 0.644910 1.094512
Cu2   Cu    Cu3+1 0.485300 0.478190 0.355090 1.094722
H1    H     H_    0.951976 0.319774 0.567241 0.199290
H2    H     H_    0.048022 0.680324 0.432870 0.199207
H3    H     H_    0.927191 0.467789 0.250820 0.200455
H4    H     H_    0.072807 0.532311 0.749292 0.200509
H5    H     H_    0.486218 0.864353 0.369235 0.220421
H6    H     H_    0.512084 0.135747 0.630920 0.206952
H7    H     H_    0.520728 0.951785 0.707067 0.175260
H8    H     H_    0.479104 0.048231 0.293011 0.176449
N1    N     N_2   0.463210 0.445420 0.137360 -0.106000
N2    N     N_2   0.536790 0.554580 0.862640 -0.110281
O1    O     O_R   0.507840 0.332340 0.577400 -0.557432
O2    O     O_R   0.492160 0.667660 0.422600 -0.534303
O3    O     O_R   0.483020 0.295500 0.332650 -0.550266
O4    O     O_R   0.516980 0.704500 0.667350 -0.562028
O5    O     O_R   0.391490 0.518400 0.622350 -0.522023
O6    O     O_R   0.608510 0.481600 0.377650 -0.545477
O7    O     O_R   0.366660 0.481570 0.377600 -0.557621
O8    O     O_R   0.633340 0.518430 0.622400 -0.545855
F1    F     F_    0.040270 0.271581 0.307347 -0.612077
F2    F     F_    0.959725 0.728511 0.692764 -0.611244
F3    F     F_    0.416667 0.427082 0.833005 -0.634516
F4    F     F_    0.550138 0.625132 0.180174 -0.646258
Br1   Br    Br    0.642341 0.645442 0.966694 -0.306691
Br2   Br    Br    0.402655 0.285309 0.015430 -0.325964

loop_
_geom_bond_atom_site_label_1
_geom_bond_atom_site_label_2
_ccdc_geom_bond_type
C2    C22   S    
C3    H6    S    
Cu1   Cu2   S    
C1    C21   S    
C6    F3    S    
Cu1   O4    S    
C4    C22   D    
C5    F4    S    
C2    O4    A    
Cu1   O1    S    
C4    H5    S    
C12   C15   S    
C1    O3    A    
Cu1   N2    S    
C6    N2    D    
C10   H2    S    
C16   H3    S    
Cu2   O3    S    
C9    C15   S    
C9    H1    S    
C12   F2    S    
C10   C16   S    
C11   F1    S    
Cu2   O7    S    
C9    C11   S    
C15   H4    S    
Cu2   O2    S    
Cu1   O8    S    
C10   C12   S    
Cu1   O5    S    
C17   C19   S    
C8    O8    A    
C18   C20   S    
C7    O7    A    
C5    C6    S    
C21   H8    S    
C3    C21   D    
C22   H7    S    
C13   C19   T    
C10   C17   S    
C12   C18   S    
C3    C4    S    
C14   C20   T    
C9    C18   S    
C7    C13   S    
C1    O1    A    
C16   C18   S    
C11   C16   S    
C2    O2    A    
C15   C17   S    
N1    Br2   S    
C7    O5    A    
C11   C17   S    
C8    C14   S    
N2    Br1   S    
C8    O6    A    
Cu2   O6    S    
Cu2   N1    S    
C5    N1    D    
