data_mof_unit_60938.cif
_audit_creation_date              2013-03-05T16:22:43-0500
_audit_creation_method            fapswitch 2.2
_symmetry_space_group_name_H-M    P1
_symmetry_Int_Tables_number       1
_space_group_crystal_system       triclinic
_cell_length_a                    30.616264
_cell_length_b                    21.757815
_cell_length_c                    21.742724
_cell_angle_alpha                 90.228944
_cell_angle_beta                  134.810551
_cell_angle_gamma                 89.845129
_cell_volume                      10275.293061

loop_
_atom_site_label
_atom_site_type_symbol
_atom_site_description
_atom_site_fract_x
_atom_site_fract_y
_atom_site_fract_z
_atom_type_partial_charge
O1    O     O_R   0.090190 0.500000 0.142390 -0.570451
O2    O     O_R   0.590190 0.000000 0.142390 -0.566631
O3    O     O_R   0.090130 0.500000 0.037950 -0.586816
O4    O     O_R   0.590130 0.000000 0.037950 -0.588066
C1    C     C_R   0.118613 0.500193 0.118244 0.802280
C2    C     C_R   0.618629 0.000137 0.118290 0.803859
O5    O     O_R   0.000030 0.590170 0.052220 -0.539977
O6    O     O_R   0.000030 0.409830 0.052220 -0.541648
O7    O     O_R   0.500030 0.090170 0.052220 -0.538708
O8    O     O_R   0.500030 0.909830 0.052220 -0.542041
O9    O     O_R   0.999970 0.590160 0.947780 -0.594209
O10   O     O_R   0.999970 0.409840 0.947780 -0.593960
O11   O     O_R   0.499970 0.090160 0.947780 -0.597754
O12   O     O_R   0.499970 0.909840 0.947780 -0.592297
C3    C     C_R   0.000302 0.618660 0.000313 0.821151
C4    C     C_R   0.000062 0.381167 0.999851 0.819016
C5    C     C_R   0.500048 0.118834 0.000023 0.817672
C6    C     C_R   0.500307 0.881276 0.000104 0.817181
Cu1   Cu    Cu3+1 0.000030 0.500000 0.061840 1.141516
Cu2   Cu    Cu3+1 0.500030 0.000000 0.061840 1.150018
Cu3   Cu    Cu3+1 0.999960 0.500000 0.938160 1.016046
Cu4   Cu    Cu3+1 0.499960 0.000000 0.938160 1.016913
O13   O     O_R   0.909850 0.500000 0.962050 -0.546513
O14   O     O_R   0.409850 0.000000 0.962050 -0.542302
O15   O     O_R   0.909790 0.500000 0.857610 -0.585447
O16   O     O_R   0.409790 0.000000 0.857610 -0.583356
C7    C     C_R   0.881296 0.500454 0.881454 0.804644
C8    C     C_R   0.381361 0.999717 0.881506 0.797279
C9    C     C_R   0.970633 0.719592 0.013879 0.041002
C10   C     C_R   0.995854 0.280292 0.048161 0.047876
C11   C     C_R   0.493555 0.220149 0.046037 0.047696
C12   C     C_R   0.476908 0.780599 0.023680 0.042758
C13   C     C_R   0.001766 0.685001 0.001154 -0.143817
C14   C     C_R   0.000121 0.314478 0.998799 -0.161029
C15   C     C_R   0.500193 0.185523 0.999278 -0.156375
C16   C     C_R   0.501218 0.814799 0.999958 -0.154205
C17   C     C_R   0.033674 0.717157 0.986395 -0.204641
C18   C     C_R   0.004380 0.281386 0.946958 -0.197202
C19   C     C_R   0.506866 0.218162 0.950051 -0.197637
C20   C     C_R   0.526082 0.782039 0.974130 -0.204164
H1    H     H_    0.058646 0.692152 0.975941 0.194524
H2    H     H_    0.007827 0.305447 0.907011 0.204516
H3    H     H_    0.512237 0.193762 0.912203 0.203460
H4    H     H_    0.545712 0.806519 0.954999 0.199625
C21   C     C_R   0.033851 0.782031 0.985796 0.365063
C22   C     C_R   0.004443 0.216527 0.946657 0.356300
C23   C     C_R   0.506930 0.282990 0.949686 0.356811
C24   C     C_R   0.526352 0.717142 0.973926 0.359731
C25   C     C_R   0.000519 0.815227 0.997969 -0.116726
C26   C     C_R   0.999991 0.184247 0.998292 -0.098431
C27   C     C_R   0.499989 0.315747 0.998556 -0.095897
C28   C     C_R   0.500324 0.684558 0.997960 -0.108987
C29   C     C_R   0.968999 0.781657 0.010606 -0.050037
C30   C     C_R   0.995635 0.218195 0.047673 -0.060225
C31   C     C_R   0.493255 0.282266 0.045379 -0.064622
C32   C     C_R   0.475574 0.718522 0.021351 -0.048121
C33   C     C_3   0.928382 0.787403 0.025327 -0.489644
C34   C     C_3   0.990802 0.212641 0.110972 -0.530168
C35   C     C_3   0.485543 0.288458 0.105551 -0.516295
C36   C     C_3   0.445045 0.713175 0.052212 -0.522443
C37   C     C_3   0.929599 0.716346 0.028022 0.609133
C38   C     C_3   0.991029 0.283685 0.111819 0.646967
C39   C     C_3   0.485655 0.217404 0.106365 0.632706
C40   C     C_3   0.445835 0.784223 0.053951 0.627652
H5    H     H_    0.882793 0.807289 0.968219 0.224300
H6    H     H_    0.946334 0.191752 0.080945 0.206472
H7    H     H_    0.440590 0.309614 0.073201 0.216893
H8    H     H_    0.398318 0.692648 0.002105 0.221567
H9    H     H_    0.952222 0.810186 0.088165 0.209854
H10   H     H_    0.032362 0.191008 0.172655 0.218108
H11   H     H_    0.526275 0.310213 0.168088 0.219803
H12   H     H_    0.475634 0.691304 0.117134 0.201759
C41   C     C_R   0.217703 0.450897 0.239271 0.082886
C42   C     C_R   0.717824 0.950753 0.239212 0.084512
C43   C     C_R   0.184935 0.499931 0.182363 -0.133234
C44   C     C_R   0.684981 0.999935 0.182571 -0.129606
C45   C     C_R   0.216537 0.545036 0.180357 -0.218150
C46   C     C_R   0.716582 0.045051 0.180558 -0.211124
H13   H     H_    0.191187 0.581154 0.132157 0.187997
H14   H     H_    0.691233 0.081184 0.132385 0.189845
C47   C     C_R   0.281037 0.545836 0.243683 0.363533
C48   C     C_R   0.781094 0.045761 0.243753 0.363050
C49   C     C_R   0.314144 0.499649 0.308279 -0.175636
C50   C     C_R   0.814208 0.999530 0.308299 -0.175374
C51   C     C_R   0.281227 0.450682 0.300972 0.098861
C52   C     C_R   0.781283 0.950339 0.300557 0.098659
C53   C     C_3   0.285019 0.424021 0.367767 -0.464228
C54   C     C_3   0.785482 0.921754 0.366915 -0.450099
C55   C     C_3   0.215150 0.423660 0.299449 -0.379398
C56   C     C_3   0.715535 0.922335 0.299169 -0.403881
H15   H     H_    0.305076 0.457044 0.421064 0.189685
H16   H     H_    0.305626 0.377266 0.388197 0.222032
H17   H     H_    0.806669 0.952971 0.422400 0.188692
H18   H     H_    0.805269 0.874675 0.384678 0.218506
H19   H     H_    0.195164 0.455465 0.314451 0.225100
H20   H     H_    0.195212 0.376616 0.279151 0.239595
H21   H     H_    0.696331 0.953805 0.315682 0.226347
H22   H     H_    0.694930 0.875577 0.277566 0.216703
C57   C     C_R   0.782062 0.450801 0.805500 0.065352
C58   C     C_R   0.282458 0.053125 0.794854 0.057552
C59   C     C_R   0.814833 0.500415 0.814357 -0.054465
C60   C     C_R   0.315027 0.999458 0.814492 -0.051976
C61   C     C_R   0.782883 0.546547 0.750884 -0.140012
C62   C     C_R   0.283165 0.947916 0.760503 -0.144376
H23   H     H_    0.807637 0.583684 0.753443 0.166699
H24   H     H_    0.307953 0.907026 0.770952 0.165713
C63   C     C_R   0.718418 0.546679 0.686514 -0.094500
C64   C     C_R   0.218701 0.947992 0.695452 -0.083730
H25   H     H_    0.694292 0.583944 0.640144 0.177047
H26   H     H_    0.194702 0.906927 0.656716 0.184610
C65   C     C_R   0.685723 0.499491 0.683713 -0.044796
C66   C     C_R   0.185937 0.000264 0.682855 -0.047190
C67   C     C_R   0.718496 0.450056 0.740670 0.127773
C68   C     C_R   0.218920 0.053606 0.729869 0.124081
C69   C     C_3   0.714126 0.421608 0.798574 -0.441922
C70   C     C_3   0.214576 0.094779 0.780508 -0.420225
C71   C     C_3   0.784062 0.422579 0.869868 -0.369848
C72   C     C_3   0.284520 0.094074 0.852041 -0.382312
H27   H     H_    0.694675 0.374387 0.777285 0.217225
H28   H     H_    0.692383 0.452580 0.811499 0.243263
H29   H     H_    0.192723 0.071963 0.798914 0.249845
H30   H     H_    0.195279 0.140565 0.749615 0.212723
H31   H     H_    0.804824 0.375909 0.889535 0.235721
H32   H     H_    0.803006 0.454205 0.924245 0.250550
H33   H     H_    0.303393 0.070722 0.912089 0.256690
H34   H     H_    0.305446 0.139444 0.862255 0.226620
O17   O     O_R   0.947810 0.000000 0.857560 -0.589692
O18   O     O_R   0.447810 0.500000 0.857560 -0.590488
O19   O     O_R   0.052190 1.000000 0.962010 -0.560148
O20   O     O_R   0.552190 0.500000 0.962010 -0.559058
C73   C     C_R   0.000370 0.000394 0.881345 0.876828
C74   C     C_R   0.500452 0.500421 0.881542 0.884537
O21   O     O_R   0.947800 0.909830 0.947720 -0.590840
O22   O     O_R   0.947800 0.090170 0.947720 -0.578637
O23   O     O_R   0.447800 0.409830 0.947720 -0.581744
O24   O     O_R   0.447800 0.590170 0.947720 -0.587274
O25   O     O_R   0.052180 0.909820 0.052170 -0.543862
O26   O     O_R   0.052180 0.090180 0.052170 -0.564459
O27   O     O_R   0.552180 0.409820 0.052170 -0.560177
O28   O     O_R   0.552180 0.590180 0.052170 -0.553099
C75   C     C_R   0.000033 0.881429 0.999372 0.849205
C76   C     C_R   0.999985 0.118401 0.000292 0.862226
C77   C     C_R   0.499976 0.381606 0.000418 0.862267
C78   C     C_R   0.500020 0.618505 0.999725 0.852685
Cu5   Cu    Cu3+1 0.938190 0.000000 0.938110 1.005909
Cu6   Cu    Cu3+1 0.438190 0.500000 0.938110 1.006015
Cu7   Cu    Cu3+1 0.061790 0.000000 0.061790 1.078008
Cu8   Cu    Cu3+1 0.561790 0.500000 0.061790 1.073913
O29   O     O_R   0.947790 0.000000 0.037880 -0.589323
O30   O     O_R   0.447790 0.500000 0.037880 -0.589122
O31   O     O_R   0.052170 1.000000 0.142340 -0.586649
O32   O     O_R   0.552170 0.500000 0.142340 -0.586317
C79   C     C_R   0.999796 0.999112 0.118717 0.797992
C80   C     C_R   0.499760 0.499070 0.118646 0.796457
O33   O     O_R   0.499940 0.552220 0.409760 -0.569012
O34   O     O_R   0.499940 0.447780 0.409760 -0.568153
O35   O     O_R   0.999940 0.052220 0.409760 -0.560383
O36   O     O_R   0.999940 0.947780 0.409760 -0.577147
C81   C     C_R   0.500492 0.499788 0.381822 0.871139
C82   C     C_R   0.000282 0.999818 0.381645 0.872209
O37   O     O_R   0.409830 0.552190 0.409810 -0.534942
O38   O     O_R   0.409830 0.447810 0.409810 -0.592301
O39   O     O_R   0.909830 0.052190 0.409810 -0.531981
O40   O     O_R   0.909830 0.947810 0.409810 -0.596418
C83   C     C_R   0.381078 0.500055 0.379601 0.810732
C84   C     C_R   0.881096 0.000032 0.379636 0.810970
Cu9   Cu    Cu3+1 0.500000 0.561790 0.499990 1.106759
Cu10  Cu    Cu3+1 0.500000 0.438210 0.499990 1.037208
Cu11  Cu    Cu3+1 0.000000 0.061790 0.499990 1.074264
Cu12  Cu    Cu3+1 0.000000 0.938210 0.499990 1.058787
O41   O     O_R   0.500050 0.552150 0.590200 -0.540231
O42   O     O_R   0.500050 0.447850 0.590200 -0.594001
O43   O     O_R   0.000050 0.052150 0.590200 -0.585782
O44   O     O_R   0.000050 0.947850 0.590200 -0.557439
O45   O     O_R   0.590170 0.552180 0.590150 -0.558186
O46   O     O_R   0.590170 0.447820 0.590150 -0.577192
O47   O     O_R   0.090170 0.052180 0.590150 -0.587123
O48   O     O_R   0.090170 0.947820 0.590150 -0.559827
C85   C     C_R   0.502189 0.500041 0.620799 0.836862
C86   C     C_R   0.000987 0.000156 0.619552 0.850339
C87   C     C_R   0.618885 0.499982 0.619364 0.871933
C88   C     C_R   0.118966 0.000018 0.618993 0.891886
C89   C     C_R   0.949284 0.017511 0.730107 0.175357
C90   C     C_R   0.457248 0.469564 0.738024 0.172252
C91   C     C_R   0.002130 0.004133 0.816236 -0.148628
C92   C     C_R   0.503003 0.498580 0.817372 -0.150876
C93   C     C_R   0.058205 0.997292 0.840063 -0.177845
C94   C     C_R   0.555449 0.520235 0.838252 -0.178499
H35   H     H_    0.100522 0.989994 0.907337 0.222859
H36   H     H_    0.593608 0.539148 0.902111 0.228204
C95   C     C_R   0.557643 0.521252 0.775678 0.298903
C96   C     C_R   0.059630 0.995114 0.776822 0.308180
C97   C     C_R   0.505693 0.499292 0.690785 -0.195097
C98   C     C_R   0.003516 0.001224 0.688423 -0.186121
C99   C     C_R   0.459097 0.469034 0.676642 0.096202
C100  C     C_R   0.950189 0.016766 0.667612 0.082278
C101  C     C_3   0.390779 0.474020 0.603984 -0.502144
C102  C     C_3   0.887415 0.989122 0.601609 -0.506249
C103  C     C_3   0.886490 0.989831 0.670528 -0.394182
C104  C     C_3   0.388936 0.475622 0.672031 -0.394224
H37   H     H_    0.370368 0.431285 0.564483 0.213533
H38   H     H_    0.375524 0.517600 0.567056 0.204515
H39   H     H_    0.887856 0.941971 0.582109 0.207394
H40   H     H_    0.853515 0.021235 0.547274 0.214253
H41   H     H_    0.886432 0.943107 0.691037 0.207126
H42   H     H_    0.851981 0.022227 0.655745 0.219219
H43   H     H_    0.366447 0.434567 0.670075 0.219542
H44   H     H_    0.373575 0.520603 0.675795 0.211770
C105  C     C_R   0.945793 0.003847 0.165541 0.138318
C106  C     C_R   0.446460 0.507973 0.166139 0.138765
C107  C     C_R   0.999621 0.994303 0.185343 -0.155113
C108  C     C_R   0.499307 0.494158 0.184924 -0.149640
C109  C     C_R   0.053598 0.978322 0.270860 -0.235295
C110  C     C_R   0.551749 0.473665 0.268783 -0.247933
H45   H     H_    0.095241 0.967412 0.287005 0.210770
H46   H     H_    0.592203 0.459211 0.283571 0.208600
C111  C     C_R   0.553817 0.475425 0.335512 0.323802
C112  C     C_R   0.055482 0.980439 0.337369 0.325903
C113  C     C_R   0.502084 0.498289 0.316864 -0.178866
C114  C     C_R   0.001929 0.998504 0.316810 -0.176981
C115  C     C_R   0.447839 0.509914 0.230872 0.018465
C116  C     C_R   0.946915 0.005643 0.230059 0.020595
C117  C     C_3   0.405517 0.563880 0.191501 -0.369987
C118  C     C_3   0.900648 0.056272 0.186866 -0.379292
C119  C     C_3   0.899607 0.054463 0.115975 -0.425340
C120  C     C_3   0.404207 0.561890 0.120344 -0.430810
H47   H     H_    0.427959 0.605814 0.232744 0.239098
H48   H     H_    0.360477 0.551849 0.167750 0.236782
H49   H     H_    0.919883 0.099687 0.225103 0.241811
H50   H     H_    0.856618 0.040889 0.164093 0.232125
H51   H     H_    0.918561 0.096688 0.113271 0.197015
H52   H     H_    0.854928 0.038403 0.052514 0.214602
H53   H     H_    0.426229 0.602477 0.120495 0.195892
H54   H     H_    0.358412 0.549155 0.055908 0.215401
N1    N     N_R   0.612686 0.543637 0.800726 0.113707
O49   O     O_R   0.610566 0.571241 0.745785 -0.338277
O50   O     O_R   0.665264 0.540971 0.881495 -0.316337
N2    N     N_R   0.117561 0.984946 0.803681 0.111190
O51   O     O_R   0.120549 0.951890 0.756796 -0.357835
O52   O     O_R   0.168666 0.002335 0.880437 -0.325460
Cl1   Cl    Cl    0.073805 0.819662 0.965996 -0.559992
Cl2   Cl    Cl    0.009863 0.177374 0.881202 -0.599893
Cl3   Cl    Cl    0.515247 0.321507 0.887338 -0.606121
Cl4   Cl    Cl    0.557724 0.678499 0.940991 -0.583282
N3    N     N_R   0.609566 0.457555 0.421672 0.132285
O53   O     O_R   0.628576 0.487541 0.488760 -0.397528
O54   O     O_R   0.645592 0.416423 0.432891 -0.315307
N4    N     N_R   0.112602 0.968014 0.425031 0.124001
O55   O     O_R   0.129302 0.000962 0.488748 -0.394014
O56   O     O_R   0.151882 0.929510 0.440246 -0.326487
Cl5   Cl    Cl    0.857012 0.681098 0.938753 -0.553143
Cl6   Cl    Cl    0.919900 0.316935 0.066506 -0.570376
Cl7   Cl    Cl    0.413432 0.184377 0.056728 -0.574194
Cl8   Cl    Cl    0.371013 0.818597 0.975059 -0.536862
N5    N     N_R   0.960695 0.691133 0.113094 0.142753
O57   O     O_R   0.015550 0.709925 0.182790 -0.342062
O58   O     O_R   0.934094 0.649151 0.119843 -0.255086
N6    N     N_R   0.046005 0.310422 0.195159 0.133958
O59   O     O_R   0.100780 0.292851 0.232629 -0.384287
O60   O     O_R   0.040721 0.352646 0.232124 -0.273034
N7    N     N_R   0.539229 0.190921 0.190826 0.141043
O61   O     O_R   0.594763 0.207908 0.231164 -0.342546
O62   O     O_R   0.531931 0.149650 0.226104 -0.262601
N8    N     N_R   0.485527 0.810343 0.141396 0.139924
O63   O     O_R   0.542613 0.792789 0.203233 -0.362136
O64   O     O_R   0.464296 0.851769 0.158080 -0.254986
Cl9   Cl    Cl    0.317397 0.606209 0.240077 -0.585870
Cl10  Cl    Cl    0.817485 0.105866 0.239778 -0.588370

loop_
_geom_bond_atom_site_label_1
_geom_bond_atom_site_label_2
_geom_bond_distance
_ccdc_geom_bond_type
C34   C38   1.545774 S    
C98   C100  1.393438 A    
N5    O58   1.301044 A    
C6    C16   1.446617 S    
C1    C43   1.441034 S    
N7    O61   1.302159 A    
C53   H15   1.108564 S    
C69   C71   1.519748 S    
C41   C43   1.389517 A    
Cu11  Cu12  2.688833 S    
O12   C6    1.292175 A    
O40   Cu12  1.969736 S    
O9    Cu3   1.971949 S    
O37   C83   1.295180 A    
C103  H41   1.112250 S    
C24   Cl4   1.761395 S    
C118  C119  1.519411 S    
O28   Cu8   1.973230 S    
C66   C68   1.397687 A    
C117  C120  1.519617 S    
O40   C84   1.297071 A    
C82   C114  1.445858 S    
O19   C73   1.292738 A    
C49   C83   1.457754 S    
C35   H11   1.111774 S    
C26   C30   1.382418 A    
C120  H53   1.111088 S    
C42   C44   1.389998 A    
Cu12  O48   1.969677 S    
C94   C95   1.408938 A    
O1    C1    1.294960 A    
C12   C16   1.385960 A    
C19   C23   1.410588 A    
Cu1   Cu3   2.687630 S    
C71   H32   1.112144 S    
C44   C46   1.402371 A    
C18   H2    1.082943 S    
C3    C13   1.443912 S    
C31   C35   1.489748 S    
C89   C91   1.393005 A    
C85   C97   1.448233 S    
C15   C19   1.416613 A    
C90   C92   1.388142 A    
C93   H35   1.082999 S    
C117  H47   1.112227 S    
C91   C93   1.408391 A    
C57   C71   1.491765 S    
C36   H12   1.111615 S    
C95   N1    1.443048 S    
O47   C88   1.295990 A    
N2    O52   1.301537 A    
C9    C13   1.384830 A    
C65   C87   1.452411 S    
C52   C54   1.493425 S    
O37   Cu9   1.969657 S    
C94   H36   1.083353 S    
C27   C31   1.382839 A    
Cu11  O47   1.969756 S    
C33   C37   1.546738 S    
O29   C79   1.296257 A    
C107  C109  1.407159 A    
C39   N7    1.467121 S    
C48   C50   1.417563 A    
C80   C108  1.455232 S    
C4    C14   1.451121 S    
Cu6   O30   1.973178 S    
C28   C32   1.384220 A    
O27   C77   1.289320 A    
C34   H6    1.111060 S    
C23   C27   1.411931 A    
Cu2   O14   1.971500 S    
O8    Cu2   1.972191 S    
N8    O63   1.302505 A    
C90   C104  1.490128 S    
C25   C75   1.440862 S    
N1    O49   1.299299 A    
C101  H37   1.110393 S    
C102  C103  1.518576 S    
C72   H33   1.112187 S    
O13   C7    1.294576 A    
O14   C8    1.294056 A    
C38   N6    1.467240 S    
C56   H21   1.112140 S    
Cu6   Cu8   2.684739 S    
O45   C87   1.295944 A    
O35   Cu11  1.970751 S    
C10   C30   1.351103 A    
O5    C3    1.294959 A    
O30   C80   1.295215 A    
O6    C4    1.296655 A    
C106  C115  1.378523 A    
C17   H1    1.083464 S    
C53   H16   1.111469 S    
O31   C79   1.294038 A    
O36   C82   1.292418 A    
C105  C116  1.379211 A    
N1    O50   1.301673 A    
O41   C85   1.294833 A    
O2    C2    1.294538 A    
C58   C72   1.491540 S    
O9    C3    1.291228 A    
O18   C74   1.298106 A    
C114  C116  1.393452 A    
Cu5   Cu7   2.684739 S    
N4    O56   1.301355 A    
C36   C40   1.546003 S    
C63   H25   1.083105 S    
C40   Cl8   1.792122 S    
C109  H45   1.083175 S    
C19   H3    1.082967 S    
O46   C87   1.294972 A    
C9    C37   1.490983 S    
O27   Cu8   1.973152 S    
O1    Cu1   1.967905 S    
C119  H52   1.111506 S    
O19   Cu7   1.973394 S    
C70   H29   1.111313 S    
C10   C14   1.388074 A    
C51   C53   1.492598 S    
O2    Cu2   1.967905 S    
O6    Cu1   1.972191 S    
O10   C4    1.293121 A    
C16   C20   1.413983 A    
O39   C84   1.295426 A    
C58   C68   1.380743 A    
C12   C40   1.492054 S    
C61   H23   1.083467 S    
Cu3   O15   1.968138 S    
O26   C76   1.289398 A    
C74   C92   1.451707 S    
Cu9   Cu10  2.688833 S    
N7    O62   1.301035 A    
C48   Cl10  1.761702 S    
C29   C33   1.491430 S    
C117  H48   1.110775 S    
O36   Cu12  1.972405 S    
C66   C88   1.455751 S    
O43   C86   1.291377 A    
C97   C99   1.395806 A    
O33   C81   1.295985 A    
O10   Cu3   1.973611 S    
C7    C59   1.443826 S    
C103  H42   1.111540 S    
C13   C17   1.412147 A    
C64   C66   1.408490 A    
C69   H27   1.111513 S    
C67   C69   1.493384 S    
C68   C70   1.493430 S    
C9    C29   1.351496 A    
C96   C98   1.417709 A    
C55   H19   1.112146 S    
C101  C104  1.520104 S    
O20   C74   1.289948 A    
C95   C97   1.422690 A    
C57   C67   1.381305 A    
C105  C107  1.393969 A    
C118  H50   1.111156 S    
O22   C76   1.289207 A    
O38   C83   1.297715 A    
O4    Cu4   1.971309 S    
C63   C65   1.406755 A    
C46   C48   1.401440 A    
O7    Cu2   1.973851 S    
C96   N2    1.440370 S    
C21   C25   1.417171 A    
N8    O64   1.301196 A    
C45   C47   1.401140 A    
O26   Cu7   1.973230 S    
C37   Cl5   1.792095 S    
O23   Cu6   1.973017 S    
C33   H5    1.111446 S    
C58   C60   1.392009 A    
C89   C100  1.378512 A    
C45   H13   1.083996 S    
C101  H38   1.112200 S    
C65   C67   1.396662 A    
C119  H51   1.111595 S    
C111  N3    1.438463 S    
C60   C62   1.403037 A    
C43   C45   1.402181 A    
O12   Cu4   1.973611 S    
C41   C51   1.380089 A    
C93   C96   1.406727 A    
O48   C88   1.296451 A    
C104  H44   1.112130 S    
C70   H30   1.111510 S    
O17   Cu5   1.970062 S    
C28   C78   1.438058 S    
O38   Cu10  1.969736 S    
C73   C91   1.456730 S    
C106  C108  1.393507 A    
C100  C102  1.492205 S    
C57   C59   1.393147 A    
C102  H39   1.112187 S    
O32   C80   1.294398 A    
C69   H28   1.111746 S    
O35   C82   1.295039 A    
C81   C113  1.447339 S    
N3    O54   1.301604 A    
C102  H40   1.111514 S    
O15   C7    1.291247 A    
O24   C78   1.290879 A    
C11   C15   1.388088 A    
O3    Cu3   1.971309 S    
O4    C2    1.290080 A    
O21   Cu5   1.973017 S    
Cu2   Cu4   2.687630 S    
C17   C21   1.411702 A    
N5    O57   1.302156 A    
C21   Cl1   1.761390 S    
N6    O60   1.301025 A    
C62   C64   1.400373 A    
C86   C98   1.444009 S    
N4    O55   1.300110 A    
O42   C85   1.292039 A    
Cu9   O45   1.969756 S    
C30   C34   1.489675 S    
Cu10  O42   1.970688 S    
O7    C5    1.297505 A    
C20   C24   1.412033 A    
O22   Cu5   1.972936 S    
O25   C75   1.290222 A    
C54   H17   1.109181 S    
C116  C118  1.492222 S    
Cu11  O43   1.972355 S    
C104  H43   1.111567 S    
N2    O51   1.300038 A    
C49   C51   1.398122 A    
C14   C18   1.416349 A    
C35   C39   1.546110 S    
O25   Cu7   1.973152 S    
O34   C81   1.292218 A    
C34   H10   1.111632 S    
O28   C78   1.289909 A    
C54   C56   1.519774 S    
O3    C1    1.289331 A    
C110  C111  1.407320 A    
C47   C49   1.417408 A    
Cu9   O41   1.972355 S    
C109  C112  1.406595 A    
C40   N8    1.467320 S    
C2    C44   1.441610 S    
C62   H24   1.083521 S    
Cu12  O44   1.970688 S    
C27   C77   1.433356 S    
O24   Cu6   1.972936 S    
C42   C52   1.378841 A    
C90   C99   1.375086 A    
C5    C15   1.451207 S    
C22   C26   1.412375 A    
O44   C86   1.293016 A    
O16   C8    1.290362 A    
C120  H54   1.111597 S    
C59   C61   1.404233 A    
O11   C5    1.292303 A    
C112  C114  1.416826 A    
C115  C117  1.492250 S    
C11   C31   1.351614 A    
C42   C56   1.490681 S    
C55   H20   1.111375 S    
C10   C38   1.493451 S    
N6    O59   1.302123 A    
C106  C120  1.492200 S    
C110  H46   1.083365 S    
C41   C55   1.489946 S    
C105  C119  1.492281 S    
Cu8   O32   1.970062 S    
C118  H49   1.112176 S    
C23   Cl3   1.761157 S    
C12   C32   1.351053 A    
O18   Cu6   1.970062 S    
C39   Cl7   1.791427 S    
O33   Cu9   1.970751 S    
O8    C6    1.295366 A    
O5    Cu1   1.973851 S    
C25   C29   1.385427 A    
Cu7   O31   1.970062 S    
C38   Cl6   1.791493 S    
O23   C77   1.289252 A    
C53   C55   1.517780 S    
C64   H26   1.082956 S    
O11   Cu4   1.971949 S    
C46   H14   1.083949 S    
C113  C115  1.393789 A    
C35   H7    1.111515 S    
C71   H31   1.111253 S    
C111  C113  1.418701 A    
O39   Cu11  1.969657 S    
O17   C73   1.297696 A    
C18   C22   1.411188 A    
C50   C84   1.456877 S    
C108  C110  1.406222 A    
C11   C39   1.493499 S    
C112  N4    1.437898 S    
C8    C60   1.441041 S    
Cu1   O13   1.971500 S    
C24   C28   1.415544 A    
C32   C36   1.490840 S    
O20   Cu8   1.973394 S    
C36   H8    1.111641 S    
C37   N5    1.466908 S    
O34   Cu10  1.972405 S    
Cu4   O16   1.968138 S    
C89   C103  1.492160 S    
C20   H4    1.083403 S    
C47   Cl9   1.761451 S    
C54   H18   1.111503 S    
C22   Cl2   1.761001 S    
C50   C52   1.398276 A    
C61   C63   1.400233 A    
O21   C75   1.291985 A    
C72   H34   1.111484 S    
Cu10  O46   1.969677 S    
C33   H9    1.111783 S    
N3    O53   1.299973 A    
C92   C94   1.407583 A    
C56   H22   1.111579 S    
Cu5   O29   1.973178 S    
C26   C76   1.433503 S    
C79   C107  1.456605 S    
C99   C101  1.491643 S    
C70   C72   1.519979 S    
