data_mof_unit_19390.cif
_audit_creation_date              2013-03-05T16:03:53-0500
_audit_creation_method            fapswitch 2.2
_symmetry_space_group_name_H-M    P1
_symmetry_Int_Tables_number       1
_space_group_crystal_system       triclinic
_cell_length_a                    11.104799
_cell_length_b                    10.793383
_cell_length_c                    9.571701
_cell_angle_alpha                 88.682816
_cell_angle_beta                  103.529419
_cell_angle_gamma                 90.741263
_cell_volume                      1115.08359308

loop_
_atom_site_label
_atom_site_type_symbol
_atom_site_description
_atom_site_fract_x
_atom_site_fract_y
_atom_site_fract_z
_atom_type_partial_charge
O1    O     O_R   0.499990 0.319660 0.618740 -0.527203
O2    O     O_R   0.500010 0.680340 0.381260 -0.527285
O3    O     O_R   0.499990 0.319630 0.381170 -0.583690
O4    O     O_R   0.500010 0.680370 0.618830 -0.583633
C1    C     C_R   0.499493 0.262535 0.501241 0.938883
C2    C     C_R   0.500528 0.737464 0.498767 0.939859
O5    O     O_R   0.320690 0.500020 0.575130 -0.573029
O6    O     O_R   0.679310 0.499980 0.424870 -0.573105
O7    O     O_R   0.320680 0.499990 0.337560 -0.581652
O8    O     O_R   0.679320 0.500010 0.662440 -0.581653
C3    C     C_R   0.262186 0.504602 0.439499 0.909960
C4    C     C_R   0.737813 0.495395 0.560498 0.909008
Cu1   Cu    Cu3+1 0.500000 0.500020 0.640660 1.060052
Cu2   Cu    Cu3+1 0.500000 0.499980 0.359340 1.059948
C5    C     C_R   0.446002 0.405710 0.063301 -0.130071
C6    C     C_R   0.553997 0.594291 0.936701 -0.130002
C7    C     C_R   0.445602 0.404799 0.915256 0.424827
C8    C     C_R   0.554384 0.595205 0.084742 0.424720
H1    H     H_    0.877710 0.524944 0.384044 0.195888
H2    H     H_    0.122300 0.475316 0.615993 0.195840
H3    H     H_    0.401626 0.330805 0.109665 0.214690
H4    H     H_    0.598365 0.669203 0.890338 0.214628
C9    C     C_2   0.125372 0.514317 0.401203 0.037338
C10   C     C_2   0.874628 0.485701 0.598783 0.036908
C11   C     C_2   0.067516 0.496263 0.509251 -0.156988
C12   C     C_2   0.932489 0.503893 0.490760 -0.156929
C13   C     C_R   0.406285 0.065463 0.401684 0.246981
C14   C     C_R   0.593759 0.934536 0.598302 0.247185
C15   C     C_R   0.409991 0.936298 0.398021 0.261928
C16   C     C_R   0.590023 0.063697 0.601999 0.261673
C17   C     C_R   0.502883 0.871525 0.496557 -0.327785
C18   C     C_R   0.497139 0.128473 0.503459 -0.327755
N1    N     N_R   0.500030 0.500030 0.852080 -0.254314
N2    N     N_R   0.499970 0.499970 0.147920 -0.254351
C19   C     C_3   0.950035 0.452217 0.750703 -0.394279
C20   C     C_3   0.879439 0.427497 0.867887 -0.679196
H5    H     H_    0.837367 0.514080 0.894433 0.254425
H6    H     H_    0.807878 0.354743 0.835387 0.308613
H7    H     H_    0.944915 0.392896 0.966593 0.243064
H8    H     H_    0.003047 0.366660 0.744298 0.264110
H9    H     H_    0.017397 0.528319 0.788057 0.213904
C21   C     C_3   0.049962 0.547671 0.249242 -0.393772
C22   C     C_3   0.120541 0.572198 0.131997 -0.679175
H10   H     H_    0.192118 0.644969 0.164325 0.308744
H11   H     H_    0.162590 0.485552 0.105586 0.254389
H12   H     H_    0.055049 0.606701 0.033256 0.242893
H13   H     H_    0.982567 0.471569 0.212003 0.213724
H14   H     H_    0.996984 0.633275 0.255531 0.264121
N3    N     N_R   0.388240 0.301459 0.834329 0.151625
O9    O     O_R   0.426280 0.190242 0.876296 -0.266817
O10   O     O_R   0.279713 0.314367 0.748116 -0.351123
N4    N     N_R   0.611686 0.698570 0.165660 0.151526
O11   O     O_R   0.573471 0.809758 0.123803 -0.267122
O12   O     O_R   0.720261 0.685749 0.251799 -0.351103
N5    N     N_R   0.307235 0.131885 0.306859 0.153575
O13   O     O_R   0.278294 0.109926 0.169937 -0.247006
O14   O     O_R   0.243016 0.211956 0.357934 -0.343128
N6    N     N_R   0.692764 0.868113 0.693203 0.153776
O15   O     O_R   0.721780 0.890254 0.830083 -0.246702
O16   O     O_R   0.756950 0.787948 0.642217 -0.343097
N7    N     N_R   0.313025 0.870320 0.302860 0.147514
O17   O     O_R   0.214244 0.836310 0.345214 -0.343129
O18   O     O_R   0.320657 0.849811 0.171857 -0.268220
N8    N     N_R   0.686876 0.129669 0.697331 0.146729
O19   O     O_R   0.786748 0.161675 0.656143 -0.340912
O20   O     O_R   0.678624 0.150802 0.827978 -0.268823

loop_
_geom_bond_atom_site_label_1
_geom_bond_atom_site_label_2
_geom_bond_distance
_ccdc_geom_bond_type
Cu2   N2    2.023573 S    
O5    C3    1.308875 A    
O7    Cu2   1.953089 S    
Cu1   N1    2.023574 S    
C16   N8    1.430841 S    
C6    N1    1.358412 A    
C13   C15   1.396749 A    
C22   H11   1.110824 S    
C4    C10   1.481680 S    
C5    N2    1.358395 A    
C19   C20   1.528451 S    
O5    Cu1   1.942663 S    
C22   H10   1.106531 S    
C1    C18   1.446641 S    
N8    O19   1.301221 A    
N5    O13   1.300885 A    
C14   C16   1.396745 A    
C2    C17   1.446630 S    
N6    O15   1.300907 A    
C8    N4    1.428371 S    
C15   C17   1.405536 A    
N5    O14   1.301147 A    
C21   H14   1.112034 S    
Cu1   Cu2   2.692721 S    
C20   H6    1.106497 S    
C16   C18   1.405522 A    
O7    C3    1.294628 A    
O2    C2    1.293824 A    
C9    C21   1.536335 S    
O8    C4    1.294650 A    
O3    Cu2   1.952989 S    
O1    C1    1.293809 A    
C8    N2    1.383376 A    
C3    C9    1.481689 S    
C20   H5    1.110822 S    
C11   C12   1.471321 S    
N4    O12   1.298700 A    
C19   H8    1.112037 S    
C14   N6    1.439109 S    
C21   H13   1.111123 S    
C9    C11   1.348604 D    
N7    O17   1.301226 A    
O2    Cu2   1.962753 S    
C22   H12   1.109099 S    
C15   N7    1.430851 S    
C10   C19   1.536309 S    
O1    Cu1   1.962752 S    
C21   C22   1.528491 S    
C13   N5    1.439092 S    
N6    O16   1.301150 A    
C19   H9    1.111103 S    
C5    H3    1.081172 S    
N4    O11   1.300905 A    
C6    C8    1.416270 A    
N3    O9    1.300893 A    
H2    C11   1.080374 S    
N3    O10   1.298673 A    
C7    N3    1.428408 S    
O4    Cu1   1.952989 S    
N7    O18   1.300560 A    
H1    C12   1.080373 S    
C6    H4    1.081180 S    
O6    Cu2   1.942662 S    
C7    N1    1.383411 A    
C13   C18   1.407931 A    
C5    C7    1.416271 A    
O4    C2    1.292632 A    
C20   H7    1.109124 S    
C14   C17   1.407921 A    
O6    C4    1.308849 A    
C10   C12   1.348607 D    
O3    C1    1.292658 A    
O8    Cu1   1.953087 S    
N8    O20   1.300573 A    
