data_mof_unit_19883.cif
_audit_creation_date              2012-12-10T17:55:49-0500
_audit_creation_method            fapswitch 2.2
_symmetry_space_group_name_H-M    P1
_symmetry_Int_Tables_number       1
_space_group_crystal_system       triclinic
_cell_length_a                    11.073806
_cell_length_b                    10.794448
_cell_length_c                    9.526899
_cell_angle_alpha                 90.189262
_cell_angle_beta                  103.79346
_cell_angle_gamma                 90.075194
_cell_volume                      1105.95379556

loop_
_atom_site_label
_atom_site_type_symbol
_atom_type_description
_atom_site_fract_x
_atom_site_fract_y
_atom_site_fract_z
_atom_type_partial_charge
C1    C     C_R   0.495983 0.262371 0.498616 0.846166
C2    C     C_R   0.504017 0.737629 0.501383 0.846184
C3    C     C_R   0.262157 0.501434 0.439936 0.835287
C4    C     C_R   0.737843 0.498565 0.560064 0.835299
C5    C     C_R   0.414914 0.431628 0.050592 0.012193
C6    C     C_R   0.585086 0.568372 0.949408 0.012199
C7    C     C_R   0.414993 0.431587 0.901884 0.019183
C8    C     C_R   0.585007 0.568413 0.098116 0.019180
C9    C     C_2   0.125799 0.507970 0.402049 -0.174993
C10   C     C_2   0.874201 0.492030 0.597951 -0.174993
C11   C     C_2   0.066312 0.487254 0.507563 -0.150342
C12   C     C_2   0.933688 0.512740 0.492434 -0.150346
C13   C     C_R   0.572398 0.067350 0.425534 -0.201843
C14   C     C_R   0.427604 0.932650 0.574468 -0.201851
C15   C     C_R   0.582408 0.938959 0.429517 0.001739
C16   C     C_R   0.417598 0.061041 0.570488 0.001752
C17   C     C_R   0.507286 0.871597 0.503246 -0.118240
C18   C     C_R   0.492714 0.128402 0.496754 -0.118252
Cu1   Cu    Cu3+1 0.500000 0.500020 0.640660 1.014436
Cu2   Cu    Cu3+1 0.500000 0.499980 0.359340 1.014433
H1    H     H_    0.880641 0.546878 0.389325 0.215997
H2    H     H_    0.119357 0.453111 0.610670 0.215998
H3    H     H_    0.346830 0.376715 0.087513 0.131784
H4    H     H_    0.653170 0.623285 0.912487 0.131788
H5    H     H_    0.346940 0.376532 0.827045 0.149883
H6    H     H_    0.653059 0.623468 0.172955 0.149883
H7    H     H_    0.631296 0.120909 0.372163 0.190674
H8    H     H_    0.368708 0.879093 0.627844 0.190651
N1    N     N_R   0.500030 0.500030 0.852080 -0.170141
N2    N     N_R   0.499970 0.499970 0.147920 -0.170141
O1    O     O_R   0.499990 0.319660 0.618740 -0.560762
O2    O     O_R   0.500010 0.680340 0.381260 -0.560763
O3    O     O_R   0.499990 0.319630 0.381170 -0.586608
O4    O     O_R   0.500010 0.680370 0.618830 -0.586609
O5    O     O_R   0.320690 0.500020 0.575130 -0.573357
O6    O     O_R   0.679310 0.499980 0.424870 -0.573357
O7    O     O_R   0.320680 0.499990 0.337560 -0.566199
O8    O     O_R   0.679320 0.500010 0.662440 -0.566195
C19   C     C_2   0.939887 0.459304 0.748510 0.835272
O9    O     O_2   0.896778 0.379421 0.813308 -0.569899
O10   O     O_R   0.048176 0.522513 0.817785 -0.746355
H9    H     H_    0.084472 0.490770 0.919070 0.347741
C20   C     C_2   0.060115 0.540705 0.251493 0.835268
O11   O     O_2   0.103223 0.620597 0.186706 -0.569905
O12   O     O_R   0.951828 0.477498 0.182208 -0.746350
H10   H     H_    0.915532 0.509251 0.080928 0.347741
C21   C     C_2   0.676561 0.880172 0.362700 0.841929
O13   O     O_2   0.732112 0.787389 0.415986 -0.620844
O14   O     O_R   0.705034 0.933999 0.241153 -0.744154
H11   H     H_    0.770982 0.886214 0.205980 0.341453
C22   C     C_2   0.323467 0.119831 0.637335 0.841943
O15   O     O_2   0.267892 0.212602 0.584044 -0.620841
O16   O     O_R   0.295060 0.066038 0.758936 -0.744151
H12   H     H_    0.229136 0.113833 0.794142 0.341434

loop_
_geom_bond_atom_site_label_1
_geom_bond_atom_site_label_2
_ccdc_geom_bond_type
C20   O11   D    
C4    O6    A    
C6    H4    S    
C7    N1    A    
Cu1   O8    S    
C15   C21   S    
C19   O10   S    
C8    H6    S    
O10   H9    S    
C11   H2    S    
C21   O13   D    
C5    H3    S    
C16   C22   S    
C3    O5    A    
C11   C12   S    
Cu1   O1    S    
C8    N2    A    
C2    O4    A    
C1    O3    A    
C21   O14   S    
Cu2   N2    S    
O12   H10   S    
C2    C17   S    
Cu2   O7    S    
C9    C11   D    
C14   C17   A    
C1    C18   S    
C10   C12   D    
C13   C18   A    
C3    C9    S    
Cu2   O3    S    
C16   C18   A    
C4    O8    A    
Cu1   O5    S    
C5    N2    A    
C5    C7    A    
C13   C15   A    
C14   C16   A    
C9    C20   S    
C4    C10   S    
C22   O15   D    
Cu1   N1    S    
C1    O1    A    
C6    N1    A    
C3    O7    A    
C2    O2    A    
O14   H11   S    
Cu2   O2    S    
C19   O9    D    
C15   C17   A    
C13   H7    S    
Cu2   O6    S    
C6    C8    A    
C14   H8    S    
O16   H12   S    
C12   H1    S    
C20   O12   S    
Cu1   Cu2   S    
C10   C19   S    
C22   O16   S    
Cu1   O4    S    
C7    H5    S    
