data_mof_unit_59861.cif
_audit_creation_date              2013-03-05T16:46:55-0500
_audit_creation_method            fapswitch 2.2
_symmetry_space_group_name_H-M    P1
_symmetry_Int_Tables_number       1
_space_group_crystal_system       triclinic
_cell_length_a                    18.200183
_cell_length_b                    18.245705
_cell_length_c                    18.375458
_cell_angle_alpha                 120.002051
_cell_angle_beta                  90.013532
_cell_angle_gamma                 119.732386
_cell_volume                      4331.52319952

loop_
_atom_site_label
_atom_site_type_symbol
_atom_site_description
_atom_site_fract_x
_atom_site_fract_y
_atom_site_fract_z
_atom_type_partial_charge
Zn1   Zn    Zn3+2 0.456040 0.586770 0.543190 0.993837
Zn2   Zn    Zn3+2 0.456820 0.413240 0.543960 0.971754
Zn3   Zn    Zn3+2 0.631110 0.586750 0.543190 0.995182
Zn4   Zn    Zn3+2 0.456040 0.413240 0.369660 0.961538
O1    O     O_3   0.500000 0.500000 0.500000 -0.484563
O2    O     O_R   0.383400 0.268380 0.323710 -0.651574
O3    O     O_R   0.555060 0.731630 0.615290 -0.641938
O4    O     O_R   0.383950 0.439280 0.616600 -0.640975
O5    O     O_R   0.677590 0.560710 0.444390 -0.640827
O6    O     O_R   0.556370 0.439260 0.616600 -0.652710
O7    O     O_R   0.382640 0.439290 0.322940 -0.648268
O8    O     O_R   0.678360 0.560700 0.616060 -0.642082
O9    O     O_R   0.382640 0.560750 0.444390 -0.631460
O10   O     O_R   0.383400 0.560740 0.616060 -0.652332
O11   O     O_R   0.555060 0.439270 0.322940 -0.651500
O12   O     O_R   0.383950 0.268380 0.445700 -0.634523
O13   O     O_R   0.677590 0.731610 0.615290 -0.628079
C1    C     C_R   0.361020 0.220006 0.361037 0.791372
C2    C     C_R   0.640660 0.780772 0.642274 0.867941
C3    C     C_R   0.358607 0.499961 0.640080 0.792174
C4    C     C_R   0.640545 0.499140 0.359293 0.753820
C5    C     C_R   0.641725 0.499628 0.639650 0.811572
C6    C     C_R   0.358768 0.500834 0.359321 0.772127
C7    C     C_3   0.300009 0.443376 0.203622 -0.384893
H1    H     H_    0.274916 0.362377 0.177021 0.192760
H2    H     H_    0.369173 0.481876 0.200846 0.170646
C8    C     C_3   0.239095 0.441914 0.144093 -0.382231
H3    H     H_    0.278655 0.478440 0.111686 0.161529
H4    H     H_    0.184406 0.360369 0.090440 0.206342
H5    H     H_    0.176320 0.364195 0.275174 0.170916
H6    H     H_    0.086226 0.367885 0.191940 0.179737
C9    C     C_3   0.203804 0.445771 0.301716 -0.404705
C10   C     C_3   0.337192 0.613255 0.335089 -0.345612
C11   C     C_3   0.301349 0.501048 0.301425 0.161155
H7    H     H_    0.337453 0.656388 0.404521 0.192385
H8    H     H_    0.407543 0.654380 0.335895 0.196942
C12   C     C_3   0.199072 0.500775 0.199943 0.186502
C13   C     C_3   0.144176 0.448132 0.244055 -0.381014
C14   C     C_3   0.278038 0.613091 0.274546 -0.406709
H9    H     H_    0.319359 0.652134 0.244538 0.165062
H10   H     H_    0.252099 0.658269 0.315842 0.187671
H11   H     H_    0.202350 0.483212 0.370828 0.191696
H12   H     H_    0.116758 0.490703 0.286474 0.177728
C15   C     C_3   0.665249 0.939374 0.661639 0.046254
H13   H     H_    0.601780 0.923975 0.675997 0.177486
C16   C     C_3   0.734319 0.060723 0.711214 0.361608
H14   H     H_    0.692012 0.078863 0.859763 0.239413
C17   C     C_3   0.695472 0.942165 0.800002 -0.006056
C18   C     C_3   0.797569 0.939894 0.708715 -0.497051
C19   C     C_3   0.697477 0.897328 0.701274 -0.130414
H15   H     H_    0.818028 0.902552 0.728692 0.242877
H16   H     H_    0.807108 0.918966 0.643264 0.228757
C20   C     C_3   0.799977 0.102882 0.801562 -0.184895
C21   C     C_3   0.742176 0.060524 0.851071 -0.422407
C22   C     C_3   0.859438 0.058624 0.776856 0.139164
H17   H     H_    0.903850 0.089749 0.744071 0.154514
H18   H     H_    0.735679 0.929445 0.832206 0.201344
H19   H     H_    0.781996 0.099634 0.920168 0.207210
C23   C     C_3   0.642720 0.398713 0.204892 -0.390272
H20   H     H_    0.585745 0.394377 0.175985 0.182376
H21   H     H_    0.614090 0.329004 0.205210 0.170707
C24   C     C_3   0.702399 0.398312 0.145764 -0.384949
H22   H     H_    0.702997 0.328662 0.117719 0.170086
H23   H     H_    0.673284 0.393119 0.088999 0.191288
H24   H     H_    0.680402 0.592072 0.271750 0.167631
H25   H     H_    0.769642 0.592527 0.183956 0.156722
C25   C     C_3   0.736142 0.593163 0.298383 -0.378494
C26   C     C_3   0.776956 0.501287 0.337849 -0.403577
C27   C     C_3   0.697733 0.497964 0.301358 0.190519
H26   H     H_    0.818406 0.573092 0.405992 0.192186
H27   H     H_    0.751412 0.434482 0.342004 0.155589
C28   C     C_3   0.799347 0.497625 0.200060 0.204381
C29   C     C_3   0.796199 0.593113 0.238950 -0.399823
C30   C     C_3   0.836432 0.500255 0.277997 -0.402057
H28   H     H_    0.838425 0.431705 0.251499 0.156620
H29   H     H_    0.906228 0.570190 0.318817 0.185966
H30   H     H_    0.776043 0.665522 0.366781 0.190165
H31   H     H_    0.865041 0.665264 0.278942 0.182353
H32   H     H_    0.436227 0.232230 0.689441 0.168774
C31   C     C_R   0.457102 0.190203 0.563770 -0.174435
H33   H     H_    0.527478 0.224497 0.590503 0.151749
C32   C     C_R   0.418756 0.142414 0.473533 -0.093824
H34   H     H_    0.459979 0.140347 0.431025 0.118708
C33   C     C_R   0.327823 0.098811 0.438563 0.087659
C34   C     C_R   0.275184 0.101594 0.494354 -0.226334
H35   H     H_    0.204949 0.067453 0.466763 0.175303
C35   C     C_R   0.313389 0.149738 0.585468 0.375200
C36   C     C_R   0.405000 0.194345 0.619618 -0.202648
C37   C     C_R   0.231024 0.944014 0.287851 -0.251589
H36   H     H_    0.214355 0.901144 0.317059 0.178670
C38   C     C_R   0.198364 0.892388 0.195734 -0.046815
C39   C     C_R   0.224738 0.949241 0.158110 0.004868
C40   C     C_R   0.277189 0.055976 0.213954 -0.269591
H37   H     H_    0.294902 0.098647 0.184471 0.181221
C41   C     C_R   0.308248 0.107634 0.306165 -0.056585
C42   C     C_R   0.288024 0.050780 0.343359 0.017102
C43   C     C_R   0.258234 0.876123 0.014866 0.224369
C44   C     C_R   0.234555 0.829924 0.922828 -0.235784
H38   H     H_    0.277561 0.812648 0.887559 0.174825
C45   C     C_R   0.155797 0.805182 0.875978 0.337642
C46   C     C_R   0.100746 0.828378 0.922316 -0.186166
H39   H     H_    0.039665 0.809960 0.887523 0.201795
C47   C     C_R   0.124801 0.877120 0.014265 -0.202990
H40   H     H_    0.081685 0.894928 0.048946 0.168977
C48   C     C_R   0.203116 0.901218 0.061170 0.071413
H41   H     H_    0.972943 0.727804 0.551743 0.143853
C49   C     C_R   0.896034 0.588768 0.546053 -0.123958
H42   H     H_    0.902875 0.542458 0.483997 0.128899
C50   C     C_R   0.847503 0.543709 0.587484 -0.153158
H43   H     H_    0.817386 0.462492 0.556939 0.132504
C51   C     C_R   0.838961 0.603063 0.668552 0.044307
C52   C     C_R   0.879905 0.709914 0.708580 0.371022
C53   C     C_R   0.927618 0.753396 0.664874 -0.125936
H44   H     H_    0.958954 0.834325 0.693248 0.180259
C54   C     C_R   0.935654 0.693247 0.584378 -0.136586
C55   C     C_R   0.841032 0.551385 0.767613 -0.204072
H45   H     H_    0.912101 0.587830 0.777039 0.195968
C56   C     C_R   0.800304 0.502996 0.809531 -0.053000
C57   C     C_R   0.707788 0.455820 0.797032 -0.002195
C58   C     C_R   0.657638 0.454957 0.739956 -0.258636
H46   H     H_    0.586703 0.419361 0.731007 0.174055
C59   C     C_R   0.698056 0.501703 0.696804 -0.012584
C60   C     C_R   0.791198 0.552118 0.711845 0.046896
C61   C     C_R   0.603579 0.302879 0.798983 -0.087386
H47   H     H_    0.595949 0.252426 0.730261 0.160416
C62   C     C_R   0.555150 0.260064 0.842157 -0.055088
H48   H     H_    0.510777 0.177056 0.806987 0.168172
C63   C     C_R   0.563266 0.324406 0.930392 -0.125355
H49   H     H_    0.525231 0.291168 0.963551 0.130529
C64   C     C_R   0.620533 0.431684 0.975885 -0.153993
H50   H     H_    0.626623 0.481407 0.044170 0.125047
C65   C     C_R   0.669600 0.474784 0.933142 -0.124087
H51   H     H_    0.713138 0.557946 0.968627 0.125110
C66   C     C_R   0.661028 0.410482 0.844297 0.126682
H52   H     H_    0.333317 0.794797 0.598870 0.132958
C67   C     C_R   0.377136 0.784643 0.699820 -0.096360
H53   H     H_    0.438244 0.861808 0.735898 0.173142
C68   C     C_R   0.357703 0.723550 0.731129 -0.119744
H54   H     H_    0.403675 0.753170 0.791130 0.118344
C69   C     C_R   0.279913 0.622821 0.683812 0.107939
C70   C     C_R   0.219534 0.584639 0.606277 -0.103514
H55   H     H_    0.159546 0.506538 0.569486 0.123920
C71   C     C_R   0.237345 0.646961 0.575792 0.294854
C72   C     C_R   0.317655 0.746335 0.622088 -0.109219
C73   C     C_R   0.210371 0.554996 0.769350 -0.240881
H56   H     H_    0.182899 0.599991 0.785236 0.190257
C74   C     C_R   0.193137 0.496534 0.803340 -0.065500
C75   C     C_R   0.228658 0.437258 0.781130 -0.014541
C76   C     C_R   0.282100 0.440089 0.727631 -0.217216
H57   H     H_    0.309518 0.395025 0.711786 0.193549
C77   C     C_R   0.300675 0.499865 0.694948 -0.068016
C78   C     C_R   0.263294 0.557179 0.715163 -0.004937
C79   C     C_R   0.272269 0.407908 0.887957 -0.127233
H58   H     H_    0.331780 0.486427 0.926425 0.120258
C80   C     C_R   0.256188 0.343752 0.915281 -0.138204
H59   H     H_    0.303288 0.372496 0.974302 0.124656
C81   C     C_R   0.179657 0.242206 0.866024 -0.013038
H60   H     H_    0.167502 0.192578 0.887108 0.162000
C82   C     C_R   0.119388 0.204445 0.789009 0.000460
H61   H     H_    0.060960 0.125400 0.749943 0.159837
C83   C     C_R   0.135126 0.268296 0.761526 -0.047337
H62   H     H_    0.088124 0.238264 0.701683 0.153212
C84   C     C_R   0.211522 0.370458 0.811090 0.131462
Zn5   Zn    Zn3+2 0.041710 0.413240 0.959030 1.020427
Zn6   Zn    Zn3+2 0.866640 0.413270 0.959030 1.033932
Zn7   Zn    Zn3+2 0.040930 0.586780 0.958260 0.979818
Zn8   Zn    Zn3+2 0.041710 0.586770 0.132560 0.946037
O14   O     O_3   0.997750 0.500010 0.002220 -0.495170
O15   O     O_R   0.942690 0.560750 0.179280 -0.648865
O16   O     O_R   0.114340 0.439270 0.886160 -0.640544
O17   O     O_R   0.820160 0.268410 0.886930 -0.605865
O18   O     O_R   0.113800 0.731630 0.056520 -0.640095
O19   O     O_R   0.819390 0.439310 0.886160 -0.608416
O20   O     O_R   0.115110 0.560720 0.179280 -0.652768
O21   O     O_R   0.941380 0.560750 0.885620 -0.650019
O22   O     O_R   0.115110 0.439270 0.057830 -0.633394
O23   O     O_R   0.942690 0.268390 0.886930 -0.599212
O24   O     O_R   0.114340 0.731630 0.178520 -0.649659
O25   O     O_R   0.820160 0.439310 0.057830 -0.646047
O26   O     O_R   0.113800 0.560730 0.885620 -0.645321
C85   C     C_R   0.857074 0.498746 0.142738 0.735689
C86   C     C_R   0.138225 0.499213 0.861213 0.807567
C87   C     C_R   0.857156 0.219228 0.861749 0.922121
C88   C     C_R   0.139195 0.780029 0.141149 0.788908
C89   C     C_R   0.856117 0.501421 0.863563 0.821307
C90   C     C_R   0.140389 0.500405 0.142721 0.750132
N1    N     N_R   0.640264 0.879939 0.563886 0.241327
O27   O     O_R   0.560677 0.839085 0.516355 -0.382918
O28   O     O_R   0.693666 0.861117 0.523309 -0.385232
N2    N     N_R   0.785623 0.085179 0.654294 0.213651
O29   O     O_R   0.741926 0.053098 0.577055 -0.273722
O30   O     O_R   0.868805 0.164599 0.690038 -0.446831
N3    N     N_R   0.684296 0.108974 0.730371 0.211685
O31   O     O_R   0.616431 0.080976 0.758610 -0.461463
O32   O     O_R   0.706968 0.180519 0.717726 -0.335855
N4    N     N_2   0.606210 0.893619 0.807615 -0.297477
H63   H     H_    0.567829 0.814308 0.767300 0.242955
C91   C     C_3   0.605307 0.928223 0.897891 -0.796452
H64   H     H_    0.535672 0.886994 0.897735 0.232192
H65   H     H_    0.633643 0.011775 0.940350 0.251777
H66   H     H_    0.643805 0.912419 0.927818 0.246041
N5    N     N_R   0.919655 0.085303 0.853164 0.233784
O33   O     O_R   0.929170 0.147316 0.935469 -0.408667
O34   O     O_R   0.971980 0.053948 0.838306 -0.395787
N6    N     N_R   0.259616 0.153478 0.642887 0.195255
O35   O     O_R   0.295451 0.200694 0.727651 -0.419541
O36   O     O_R   0.174130 0.108782 0.610778 -0.428971
N7    N     N_2   0.337842 0.897935 0.059728 -0.312809
H67   H     H_    0.363899 0.952724 0.127592 0.230695
C92   C     C_3   0.336248 0.808050 0.034423 -0.777120
H68   H     H_    0.401504 0.833106 0.071501 0.233338
H69   H     H_    0.325669 0.760988 0.962132 0.241600
H70   H     H_    0.282142 0.759945 0.050743 0.236392
N8    N     N_R   0.132280 0.757180 0.781748 0.202576
O37   O     O_R   0.192526 0.761315 0.742919 -0.426706
O38   O     O_R   0.050635 0.709436 0.733992 -0.439419
N9    N     N_R   0.875214 0.775184 0.792887 0.178701
O39   O     O_R   0.808920 0.737573 0.819869 -0.410823
O40   O     O_R   0.934969 0.874591 0.841107 -0.361679
N10   N     N_2   0.175879 0.609428 0.497918 -0.348981
H71   H     H_    0.201852 0.651916 0.471753 0.213384
C93   C     C_3   0.088054 0.584749 0.502836 -0.728134
H72   H     H_    0.045137 0.554287 0.438347 0.210703
H73   H     H_    0.093608 0.655205 0.556226 0.290147
H74   H     H_    0.055131 0.524643 0.515934 0.249900

loop_
_geom_bond_atom_site_label_1
_geom_bond_atom_site_label_2
_geom_bond_distance
_ccdc_geom_bond_type
Zn6   O17   1.932996 S    
C22   H17   1.107186 S    
Zn7   O18   1.937474 S    
C40   H37   1.084672 S    
C17   N4    1.462904 S    
C55   C60   1.377768 A    
C80   C81   1.398083 A    
Zn5   O16   1.944223 S    
C41   C42   1.417424 A    
C25   H30   1.113186 S    
C7    C8    1.538605 S    
C35   C36   1.406741 A    
C63   H49   1.082403 S    
N10   C93   1.446632 S    
C43   C44   1.403640 A    
C17   H18   1.115857 S    
Zn8   O15   1.941633 S    
N6    O35   1.301489 A    
C15   H13   1.111422 S    
C17   C21   1.555302 S    
C45   N8    1.435140 S    
Zn7   O21   1.949693 S    
O4    C3    1.285936 A    
N5    O34   1.301186 A    
C79   C84   1.403226 A    
Zn1   O1    1.943350 S    
O17   C87   1.287243 A    
C45   C46   1.403100 A    
C12   C13   1.550800 S    
C7    H2    1.113298 S    
C28   C85   1.488120 S    
C20   C87   1.507580 S    
C34   H35   1.083108 S    
C31   H33   1.082023 S    
N8    O38   1.299202 A    
C8    H4    1.113573 S    
Zn6   O19   1.949154 S    
C71   C72   1.405621 A    
O8    C5    1.272942 A    
C10   H8    1.112916 S    
C55   H45   1.084806 S    
O9    C6    1.283346 A    
C33   C42   1.479754 S    
C3    C77   1.458985 S    
C56   C57   1.411873 A    
C35   N6    1.438884 S    
C32   C33   1.402527 A    
C24   H23   1.108549 S    
Zn3   O8    1.949298 S    
C50   C51   1.403502 A    
C73   C74   1.400282 A    
C71   N10   1.423890 S    
C81   H60   1.082205 S    
C74   C75   1.416492 A    
C15   C16   1.591840 S    
N7    H67   1.030590 S    
C18   H15   1.113262 S    
N2    O30   1.301877 A    
C52   N9    1.442686 S    
C82   C83   1.397071 A    
C7    H1    1.113375 S    
C5    C59   1.441105 S    
C91   H64   1.106478 S    
C25   C29   1.545333 S    
C9    C13   1.547166 S    
C37   C38   1.398378 A    
Zn2   O12   1.937576 S    
C69   C78   1.479405 S    
N3    O31   1.302066 A    
C28   C29   1.550255 S    
C43   C48   1.416443 A    
C6    C11   1.493859 S    
C17   C19   1.583414 S    
C77   C78   1.418346 A    
C23   H20   1.113566 S    
C40   C41   1.397464 A    
C38   C88   1.456643 S    
O16   C86   1.274834 A    
Zn7   O14   1.954922 S    
C1    C41   1.456618 S    
C49   C50   1.393424 A    
C76   C77   1.397832 A    
C16   N2    1.489585 S    
N10   H71   1.031979 S    
C83   C84   1.402911 A    
C56   C89   1.440645 S    
C58   C59   1.397008 A    
C73   H56   1.084786 S    
C80   H59   1.082072 S    
C20   C22   1.590504 S    
O2    C1    1.290086 A    
C23   H21   1.113252 S    
C57   C66   1.477634 S    
N5    O33   1.300669 A    
C34   C35   1.407514 A    
C51   C60   1.480171 S    
C46   H39   1.082488 S    
O10   C3    1.273375 A    
Zn5   O14   1.943350 S    
C33   C34   1.402888 A    
C28   C30   1.551626 S    
C30   H28   1.112986 S    
C37   H36   1.084638 S    
Zn8   O14   1.957941 S    
N8    O37   1.299686 A    
C26   C27   1.550628 S    
C93   H74   1.109921 S    
N3    O32   1.302835 A    
N9    O39   1.300692 A    
C20   C21   1.558444 S    
C22   N5    1.480461 S    
C32   H34   1.083201 S    
C7    C11   1.555950 S    
C4    C27   1.488942 S    
C25   C27   1.548984 S    
C9    C11   1.548684 S    
Zn1   O9    1.952905 S    
C64   C65   1.397938 A    
N2    O29   1.302468 A    
C24   H22   1.113299 S    
Zn3   O5    1.942718 S    
C65   H51   1.083104 S    
O21   C89   1.280187 A    
O18   C88   1.277986 A    
C82   H61   1.081291 S    
O11   C4    1.282228 A    
C29   H31   1.113070 S    
C18   H16   1.108597 S    
O19   C89   1.273915 A    
C91   H66   1.111446 S    
C10   C11   1.551831 S    
C24   C28   1.553075 S    
C47   C48   1.402369 A    
O12   C1    1.278513 A    
C10   C14   1.545859 S    
C69   C70   1.403595 A    
Zn4   O7    1.945479 S    
C93   H73   1.111336 S    
O15   C85   1.284547 A    
H32   C36   1.081669 S    
C23   C27   1.553857 S    
Zn8   O20   1.945475 S    
C74   C86   1.459139 S    
C67   C68   1.396055 A    
H52   C72   1.082785 S    
C44   H38   1.082892 S    
Zn6   O14   1.955946 S    
O3    C2    1.283121 A    
H14   C21   1.104851 S    
C62   H48   1.082300 S    
Zn6   O25   1.942718 S    
C13   H12   1.113135 S    
Zn4   O2    1.936043 S    
C79   C80   1.398583 A    
C30   H29   1.113146 S    
C49   H42   1.081955 S    
O13   C2    1.286708 A    
Zn2   O6    1.949795 S    
C38   C39   1.416992 A    
C58   H46   1.084899 S    
C16   N3    1.487660 S    
C61   C62   1.397746 A    
C53   H44   1.082642 S    
C21   H19   1.107723 S    
C15   C19   1.570966 S    
C14   H9    1.112973 S    
C23   C24   1.536486 S    
C62   C63   1.397550 A    
O26   C86   1.284597 A    
C51   C52   1.421904 A    
Zn1   O3    1.939377 S    
C75   C84   1.476467 S    
N4    C91   1.453825 S    
Zn2   O4    1.938549 S    
N4    H63   1.027539 S    
Zn3   O1    1.955947 S    
C63   C64   1.398591 A    
C91   H65   1.108692 S    
C57   C58   1.379157 A    
H6    C13   1.113003 S    
C12   C90   1.493855 S    
O22   C90   1.280521 A    
C31   C36   1.397162 A    
C68   C69   1.399496 A    
N9    O40   1.301297 A    
C92   H70   1.111790 S    
C49   C54   1.394127 A    
Zn5   O22   1.952804 S    
C92   H69   1.110926 S    
H24   C25   1.113118 S    
C46   C47   1.395730 A    
C61   C66   1.403451 A    
H41   C54   1.082423 S    
O6    C5    1.281325 A    
C37   C42   1.385373 A    
C70   C71   1.408312 A    
C64   H50   1.082382 S    
C59   C60   1.412462 A    
N1    O27   1.301515 A    
C67   C72   1.396800 A    
N7    C92   1.448070 S    
C18   C22   1.547828 S    
C70   H55   1.082921 S    
O20   C90   1.279486 A    
H5    C9    1.113048 S    
H25   C29   1.112995 S    
C2    C19   1.509879 S    
O5    C4    1.285768 A    
C53   C54   1.396277 A    
C83   H62   1.083171 S    
Zn4   O11   1.941636 S    
C26   H27   1.112959 S    
C65   C66   1.403180 A    
Zn4   O1    1.957941 S    
C16   C20   1.608139 S    
O7    C6    1.276687 A    
C39   C40   1.383438 A    
C10   H7    1.113247 S    
C31   C32   1.395269 A    
C55   C56   1.397674 A    
Zn3   O13   1.932997 S    
C52   C53   1.408080 A    
C75   C76   1.384388 A    
C92   H68   1.110542 S    
C43   N7    1.427089 S    
C93   H72   1.110651 S    
C44   C45   1.403032 A    
N1    O28   1.301503 A    
C73   C78   1.386661 A    
C68   H54   1.078391 S    
C15   N1    1.473682 S    
Zn2   O1    1.954775 S    
C39   C48   1.480686 S    
C12   C14   1.553255 S    
Zn8   O24   1.935997 S    
Zn7   O26   1.938593 S    
C14   H10   1.113020 S    
C81   C82   1.398279 A    
C18   C19   1.559092 S    
C50   H43   1.083415 S    
C47   H40   1.083303 S    
C26   H26   1.109978 S    
C9    H11   1.109280 S    
C67   H53   1.082463 S    
O23   C87   1.281257 A    
Zn1   O10   1.944325 S    
O25   C85   1.283143 A    
C79   H58   1.083045 S    
C76   H57   1.085117 S    
N6    O36   1.301428 A    
C26   C30   1.543299 S    
O24   C88   1.290882 A    
Zn5   O23   1.939276 S    
C8    C12   1.552832 S    
C61   H47   1.082560 S    
C8    H3    1.112778 S    
