data_mof_unit_14018.cif
_audit_creation_date              2013-03-05T16:45:22-0500
_audit_creation_method            fapswitch 2.2
_symmetry_space_group_name_H-M    P1
_symmetry_Int_Tables_number       1
_space_group_crystal_system       triclinic
_cell_length_a                    8.872103
_cell_length_b                    10.648531
_cell_length_c                    10.015337
_cell_angle_alpha                 89.520294
_cell_angle_beta                  90.126176
_cell_angle_gamma                 92.209162
_cell_volume                      945.459541426

loop_
_atom_site_label
_atom_site_type_symbol
_atom_site_description
_atom_site_fract_x
_atom_site_fract_y
_atom_site_fract_z
_atom_type_partial_charge
O1    O     O_R   0.500020 0.316790 0.614690 -0.604047
O2    O     O_R   0.500000 0.316760 0.385350 -0.551693
C1    C     C_R   0.513000 0.261045 0.500483 0.910816
O3    O     O_R   0.285350 0.500020 0.614650 -0.578460
O4    O     O_R   0.285340 0.499980 0.385310 -0.571799
C2    C     C_R   0.219302 0.500108 0.499830 0.950346
Zn1   Zn    Zn3+2 0.500010 0.500020 0.653130 0.993814
Zn2   Zn    Zn3+2 0.499990 0.499980 0.346870 1.033899
O5    O     O_R   0.500000 0.683240 0.614650 -0.645526
O6    O     O_R   0.499980 0.683210 0.385310 -0.625393
O7    O     O_R   0.714660 0.500020 0.614690 -0.621649
O8    O     O_R   0.714650 0.499980 0.385350 -0.591044
C3    C     C_R   0.504671 0.739822 0.499332 0.872532
C4    C     C_R   0.780749 0.500770 0.500081 0.898886
C5    C     C_1   0.065586 0.500801 0.499596 -0.089608
C6    C     C_1   0.934411 0.500990 0.499976 -0.108474
C7    C     C_R   0.534165 0.062858 0.621999 0.101016
C8    C     C_R   0.549591 0.130953 0.502926 -0.223003
C9    C     C_R   0.599585 0.067935 0.388135 0.319649
C10   C     C_R   0.587375 0.937044 0.386439 -0.232109
H1    H     H_    0.616517 0.887422 0.296650 0.189214
C11   C     C_R   0.531307 0.872173 0.499454 -0.145646
C12   C     C_R   0.520012 0.935479 0.618657 0.064858
C13   C     C_3   0.403512 0.927564 0.725606 -0.471258
C14   C     C_3   0.427368 0.068982 0.736606 0.106784
H2    H     H_    0.290092 0.898755 0.686381 0.185271
H3    H     H_    0.439350 0.874022 0.814846 0.231131
H4    H     H_    0.325148 0.122474 0.714205 0.133610
C15   C     C_R   0.423587 0.408494 0.070765 0.144493
N1    N     N_R   0.499010 0.499140 0.142800 -0.112850
C16   C     C_R   0.585876 0.584353 0.072874 -0.074563
H5    H     H_    0.651998 0.653714 0.128150 0.154135
C17   C     C_R   0.590186 0.583783 0.929967 0.166387
N2    N     N_R   0.499010 0.499180 0.857150 -0.099999
C18   C     C_R   0.424442 0.407482 0.931318 0.113187
C19   C     C_3   0.267178 0.347948 0.926333 0.002545
C20   C     C_3   0.263953 0.357559 0.079376 0.402605
H6    H     H_    0.268371 0.249241 0.893131 0.171624
Br1   Br    Br    0.686442 0.151799 0.234362 -0.355229
Br2   Br    Br    0.118270 0.474465 0.147499 -0.427079
Br3   Br    Br    0.247976 0.195328 0.169152 -0.389611
Br4   Br    Br    0.540447 0.113665 0.896508 -0.443049
C21   C     C_3   0.694728 0.681894 0.864789 -0.424846
C22   C     C_3   0.860369 0.673788 0.910854 -0.343732
C23   C     C_3   0.915998 0.790131 0.987748 -0.748973
H7    H     H_    0.908494 0.875528 0.923857 0.274865
H8    H     H_    0.848116 0.802087 0.079435 0.257145
H9    H     H_    0.035688 0.779722 0.017269 0.275281
H10   H     H_    0.876221 0.588920 0.973796 0.291189
H11   H     H_    0.933694 0.665647 0.821674 0.250659
H12   H     H_    0.695662 0.672855 0.756564 0.249211
H13   H     H_    0.651842 0.776158 0.886278 0.211522
Br5   Br    Br    0.106679 0.433731 0.835367 -0.477037

loop_
_geom_bond_atom_site_label_1
_geom_bond_atom_site_label_2
_geom_bond_distance
_ccdc_geom_bond_type
C14   Br4   1.940754 S    
C22   H10   1.110740 S    
O4    Zn2   1.943751 S    
C21   C22   1.544694 S    
C16   C17   1.431927 A    
C15   N1    1.363712 A    
C15   C18   1.396785 A    
C9    C10   1.394078 A    
C13   H3    1.108688 S    
N1    C16   1.358527 A    
Zn2   O8    1.942256 S    
C7    C14   1.493435 S    
C10   H1    1.083620 S    
C19   H6    1.105519 S    
O2    C1    1.299292 A    
Zn2   N1    2.043922 S    
C7    C8    1.394748 A    
C23   H7    1.111563 S    
C13   C14   1.517474 S    
C14   H4    1.110881 S    
Zn1   O7    1.943752 S    
C21   H12   1.089061 S    
C7    C12   1.358051 A    
C9    Br1   1.921543 S    
O3    Zn1   1.942256 S    
O3    C2    1.289508 A    
C19   C20   1.537453 S    
Zn1   N2    2.043311 S    
O8    C4    1.288865 A    
C3    C11   1.420010 S    
C17   N2    1.396443 A    
C20   Br2   1.956516 S    
C23   H8    1.110161 S    
C20   Br3   1.941263 S    
O4    C2    1.289124 A    
N2    C18   1.372271 A    
O7    C4    1.289909 A    
C4    C6    1.363211 S    
C21   H13   1.109996 S    
C10   C11   1.403105 A    
C12   C13   1.489766 S    
C15   C20   1.499343 S    
C5    C6    1.163894 T    
C17   C21   1.514728 S    
C22   C23   1.529266 S    
C1    C8    1.434945 S    
Zn2   O6    1.991913 S    
C8    C9    1.416648 A    
C23   H9    1.111065 S    
C22   H11   1.112069 S    
Zn1   O5    1.985557 S    
O5    C3    1.298182 A    
C11   C12   1.381661 A    
C19   Br5   1.942354 S    
C2    C5    1.364091 S    
O1    Zn1   1.991913 S    
O6    C3    1.295619 A    
O2    Zn2   1.985559 S    
C16   H5    1.080816 S    
C13   H2    1.112429 S    
O1    C1    1.300451 A    
C18   C19   1.511022 S    
