data_mof_unit_35198.cif
_audit_creation_date              2012-12-10T19:00:48-0500
_audit_creation_method            fapswitch 2.2
_symmetry_space_group_name_H-M    P1
_symmetry_Int_Tables_number       1
_space_group_crystal_system       triclinic
_cell_length_a                    15.009138
_cell_length_b                    10.839028
_cell_length_c                    9.560694
_cell_angle_alpha                 90.320085
_cell_angle_beta                  90.09606
_cell_angle_gamma                 90.154243
_cell_volume                      1555.34427546

loop_
_atom_site_label
_atom_site_type_symbol
_atom_type_description
_atom_site_fract_x
_atom_site_fract_y
_atom_site_fract_z
_atom_type_partial_charge
C1    C     C_R   0.499594 0.262656 0.499493 0.814711
C2    C     C_R   0.908158 0.612243 0.550899 0.047309
C3    C     C_R   0.950271 0.305264 0.384302 -0.235705
C4    C     C_R   0.043335 0.302571 0.377438 -0.019188
C5    C     C_R   0.092886 0.402432 0.435023 0.031067
C6    C     C_R   0.047389 0.505428 0.493264 0.060385
C7    C     C_R   0.095748 0.606181 0.549718 0.119324
C8    C     C_R   0.051079 0.709857 0.600537 -0.197393
C9    C     C_R   0.958590 0.713928 0.599031 -0.139993
C10   C     C_R   0.186396 0.401819 0.439782 -0.210021
C11   C     C_R   0.232943 0.500828 0.498757 -0.055003
C12   C     C_R   0.329095 0.499537 0.499820 0.812961
C13   C     C_R   0.188352 0.602519 0.553337 -0.212612
C14   C     C_R   0.521311 0.063788 0.617121 -0.030088
C15   C     C_R   0.500748 0.129669 0.496938 -0.107573
C16   C     C_R   0.479673 0.065712 0.373407 -0.212376
C17   C     C_R   0.470706 0.937512 0.373887 -0.020985
C18   C     C_R   0.491234 0.871359 0.497913 -0.106069
C19   C     C_R   0.518350 0.936544 0.617119 0.004541
C20   C     C_3   0.479652 0.932287 0.761343 -0.547761
C21   C     C_3   0.481433 0.073147 0.761612 0.941049
C22   C     C_R   0.576989 0.521081 0.073888 0.223978
C23   C     C_R   0.494857 0.737419 0.499868 0.879928
C24   C     C_R   0.426264 0.466613 0.073830 -0.053227
C25   C     C_R   0.426236 0.466753 0.925339 -0.047141
C26   C     C_R   0.576876 0.520021 0.926524 0.262203
C27   C     C_3   0.635160 0.630605 0.918069 -0.524273
C28   C     C_3   0.633723 0.635059 0.077169 -0.282731
C29   C     C_R   0.670972 0.502625 0.500052 0.847214
C30   C     C_R   0.813816 0.612765 0.552614 -0.027199
C31   C     C_R   0.767592 0.508740 0.499514 -0.113479
C32   C     C_R   0.813088 0.407960 0.443996 -0.243833
C33   C     C_R   0.905617 0.406608 0.441689 0.077697
C34   C     C_R   0.953647 0.507998 0.495635 0.049797
Cu1   Cu    Cu3+1 0.500000 0.499980 0.640670 0.979282
Cu2   Cu    Cu3+1 0.500000 0.500020 0.359330 0.997860
H1    H     H_    0.411686 0.891132 0.762028 0.181184
H2    H     H_    0.526534 0.891084 0.837413 0.194378
H3    H     H_    0.366106 0.440605 0.128218 0.156981
H4    H     H_    0.366039 0.440866 0.870363 0.155636
H5    H     H_    0.700718 0.606334 0.871937 0.245057
H6    H     H_    0.601504 0.709920 0.868244 0.208810
H7    H     H_    0.775769 0.329837 0.402845 0.153337
H8    H     H_    0.597906 0.716833 0.119693 0.189559
H9    H     H_    0.912074 0.228866 0.341171 0.184934
H10   H     H_    0.224398 0.323939 0.402037 0.170411
H11   H     H_    0.226060 0.679271 0.596802 0.136519
H12   H     H_    0.087848 0.788684 0.640713 0.158686
H13   H     H_    0.927863 0.798016 0.635511 0.195005
H14   H     H_    0.462691 0.116044 0.279355 0.188100
N1    N     N_R   0.500570 0.500930 0.147930 -0.201469
N2    N     N_R   0.500570 0.500890 0.852020 -0.187659
O1    O     O_R   0.500000 0.319640 0.618810 -0.547469
O2    O     O_R   0.500010 0.319680 0.381230 -0.593722
O3    O     O_R   0.370250 0.499950 0.618800 -0.595378
O4    O     O_R   0.370260 0.499990 0.381220 -0.572641
O5    O     O_R   0.499990 0.680320 0.618770 -0.582453
O6    O     O_R   0.500000 0.680360 0.381190 -0.563434
O7    O     O_R   0.629740 0.500010 0.618780 -0.592410
O8    O     O_R   0.629750 0.500050 0.381200 -0.571091
C35   C     C_2   0.763166 0.721891 0.604120 0.811653
O9    O     O_2   0.704299 0.766280 0.531786 -0.581200
O10   O     O_R   0.782379 0.773354 0.735159 -0.786912
H15   H     H_    0.743059 0.846551 0.758121 0.326881
C36   C     C_2   0.430837 0.879032 0.248136 0.851770
O11   O     O_2   0.368538 0.806852 0.260103 -0.592952
O12   O     O_R   0.462790 0.909268 0.115650 -0.770185
H16   H     H_    0.431333 0.860798 0.039193 0.316808
O13   O     O_3   0.395161 0.126281 0.754704 -0.604277
C37   C     C_3   0.353690 0.126643 0.887154 -0.210720
H17   H     H_    0.388299 0.190194 0.961065 0.196003
H18   H     H_    0.349232 0.032480 0.931738 0.164742
H19   H     H_    0.284637 0.161100 0.874589 0.178020
O14   O     O_3   0.535322 0.127279 0.869788 -0.578861
C38   C     C_3   0.627879 0.124495 0.843147 -0.289329
H20   H     H_    0.645459 0.188479 0.756997 0.166622
H21   H     H_    0.651470 0.029587 0.819888 0.147973
H22   H     H_    0.663409 0.156943 0.938342 0.209013
C39   C     C_2   0.724229 0.615106 0.141118 0.948475
O15   O     O_2   0.754824 0.692396 0.221552 -0.562348
O16   O     O_R   0.773398 0.509544 0.107679 -0.768058
H23   H     H_    0.833589 0.508149 0.155901 0.336739
C40   C     C_2   0.084857 0.194529 0.307295 0.839780
O17   O     O_2   0.146791 0.208571 0.225952 -0.615865
O18   O     O_R   0.049756 0.076594 0.329324 -0.752465
H24   H     H_    0.082573 0.010423 0.274780 0.345163

loop_
_geom_bond_atom_site_label_1
_geom_bond_atom_site_label_2
_ccdc_geom_bond_type
C23   O6    A    
Cu1   O1    S    
C19   C20   S    
C1    O2    A    
O16   H23   S    
C7    C8    A    
O18   H24   S    
C26   C27   S    
C14   C21   S    
C16   H14   S    
Cu2   O6    S    
C25   H4    S    
C5    C6    A    
C3    C33   A    
C15   C16   A    
C24   H3    S    
Cu1   O7    S    
C18   C19   A    
C35   O10   S    
C28   C39   S    
C1    O1    A    
C29   O7    A    
C16   C17   A    
C36   O12   S    
C10   H10   S    
C37   H17   S    
C1    C15   S    
C2    C34   A    
C24   N1    A    
C22   C28   S    
O13   C37   S    
C33   C34   A    
O14   C38   S    
Cu1   O3    S    
C18   C23   S    
C9    H13   S    
C24   C25   A    
C39   O16   S    
C8    C9    A    
C21   O14   S    
C3    H9    S    
O12   H16   S    
C21   O13   S    
Cu1   Cu2   S    
C38   H20   S    
C8    H12   S    
Cu2   O4    S    
C26   N2    A    
C20   H2    S    
C27   H5    S    
C40   O17   D    
C29   O8    A    
C37   H19   S    
C17   C18   A    
C38   H21   S    
C12   O4    A    
Cu2   N1    S    
C40   O18   S    
C39   O15   D    
C3    C4    A    
Cu1   N2    S    
C13   H11   S    
C23   O5    A    
C14   C19   A    
C31   C32   A    
C4    C5    A    
Cu2   O8    S    
C11   C12   S    
C6    C7    A    
C17   C36   S    
C2    C30   A    
Cu1   O5    S    
C32   C33   A    
C25   N2    A    
C5    C10   A    
C29   C31   S    
C20   H1    S    
C11   C13   A    
C27   H6    S    
C30   C31   A    
C4    C40   S    
C32   H7    S    
C28   H8    S    
C35   O9    D    
C38   H22   S    
C12   O3    A    
Cu2   O2    S    
C10   C11   A    
O10   H15   S    
C6    C34   A    
C7    C13   A    
C20   C21   S    
C36   O11   D    
C22   C26   A    
C30   C35   S    
C27   C28   S    
C14   C15   A    
C37   H18   S    
C2    C9    A    
C22   N1    A    
