data_mof_unit_18226.cif
_audit_creation_date              2012-12-10T18:54:26-0500
_audit_creation_method            fapswitch 2.2
_symmetry_space_group_name_H-M    P1
_symmetry_Int_Tables_number       1
_space_group_crystal_system       triclinic
_cell_length_a                    10.730666
_cell_length_b                    10.027905
_cell_length_c                    23.453521
_cell_angle_alpha                 89.666018
_cell_angle_beta                  98.314571
_cell_angle_gamma                 89.738364
_cell_volume                      2497.13523015

loop_
_atom_site_label
_atom_site_type_symbol
_atom_type_description
_atom_site_fract_x
_atom_site_fract_y
_atom_site_fract_z
_atom_type_partial_charge
C1    C     C_R   0.260478 0.500336 0.500455 0.955377
C2    C     C_R   0.521143 0.384728 0.703856 -0.198001
C3    C     C_R   0.446676 0.403443 0.235060 -0.125213
C4    C     C_R   0.517655 0.381415 0.762509 -0.117199
C5    C     C_R   0.490178 0.514554 0.208115 0.109318
C6    C     C_R   0.488176 0.496787 0.790854 0.098077
C7    C     C_R   0.064698 0.380068 0.501475 -0.132529
C8    C     C_R   0.936067 0.622599 0.501571 -0.064090
C9    C     C_R   0.936660 0.379941 0.499135 -0.130031
C10   C     C_R   0.063479 0.622843 0.500462 -0.064712
C11   C     C_R   0.872613 0.500778 0.500477 -0.046176
C12   C     C_R   0.739684 0.499961 0.500054 0.965678
C13   C     C_R   0.127824 0.501223 0.500800 -0.051315
C14   C     C_R   0.586078 0.071739 0.539274 0.274468
C15   C     C_R   0.415473 0.927750 0.459968 0.294312
C16   C     C_R   0.414003 0.073540 0.460753 0.279861
C17   C     C_R   0.584736 0.925882 0.539995 0.298630
C18   C     C_R   0.505792 0.500717 0.389958 0.995859
C19   C     C_R   0.492941 0.499873 0.609908 0.992024
C20   C     C_R   0.599961 0.469967 0.887155 0.602955
C21   C     C_R   0.378287 0.531400 0.111709 0.614701
C22   C     C_R   0.378217 0.511124 0.872972 0.605569
C23   C     C_R   0.543526 0.623423 0.240503 0.391604
C24   C     C_R   0.599548 0.487383 0.126680 0.602548
C25   C     C_R   0.377965 0.522748 0.932115 -0.024492
C26   C     C_R   0.602348 0.486137 0.067425 -0.023871
C27   C     C_R   0.491737 0.505471 0.969689 -0.025040
C28   C     C_R   0.490406 0.511099 0.029610 -0.025314
C29   C     C_R   0.605925 0.480586 0.947479 -0.040796
C30   C     C_R   0.377111 0.540524 0.051679 -0.037577
C31   C     C_R   0.267346 0.557375 0.953861 -0.191966
C32   C     C_R   0.715287 0.463445 0.045696 -0.205641
C33   C     C_R   0.267418 0.574484 0.012839 -0.051343
C34   C     C_R   0.455070 0.615642 0.759604 0.396852
C35   C     C_R   0.719768 0.465491 0.986549 -0.010666
C36   C     C_2   0.154962 0.639862 0.030374 0.540291
C37   C     C_2   0.846958 0.457969 0.969255 0.501733
C38   C     C_R   0.567675 0.610712 0.301051 0.335218
C39   C     C_R   0.434641 0.610709 0.698987 0.335314
C40   C     C_R   0.510886 0.503706 0.327795 -0.254026
C41   C     C_R   0.482035 0.499294 0.671560 -0.263755
C42   C     C_R   0.452722 0.400228 0.294276 -0.204499
H1    H     H_    0.181815 0.579231 0.924557 0.216499
H2    H     H_    0.111279 0.717727 0.500100 0.207809
H3    H     H_    0.062316 0.617459 0.007900 0.072361
H4    H     H_    0.915821 0.387917 0.990821 0.041402
H5    H     H_    0.716907 0.849938 0.158441 0.389604
H6    H     H_    0.326464 0.877807 0.842704 0.383366
H7    H     H_    0.856465 0.812539 0.326173 0.400759
H8    H     H_    0.164854 0.842191 0.676990 0.400157
H9    H     H_    0.797816 0.337141 0.622913 0.373478
H10   H     H_    0.240133 0.658765 0.362270 0.372708
H11   H     H_    0.201891 0.341923 0.376243 0.372946
H12   H     H_    0.802217 0.448965 0.075045 0.196131
H13   H     H_    0.767030 0.654265 0.636851 0.374786
H14   H     H_    0.412901 0.315664 0.313836 0.252728
H15   H     H_    0.552733 0.296407 0.683688 0.249243
H16   H     H_    0.406056 0.320261 0.209718 0.201138
H17   H     H_    0.542785 0.290257 0.786515 0.208795
H18   H     H_    0.113626 0.285543 0.503668 0.224495
H19   H     H_    0.887476 0.717403 0.502230 0.208060
H20   H     H_    0.888359 0.285608 0.496028 0.224943
N1    N     N_R   0.488778 0.491618 0.851834 -0.342028
N2    N     N_R   0.489097 0.511275 0.147294 -0.342316
N3    N     N_R   0.500000 0.857200 0.500000 -0.221707
N4    N     N_R   0.500000 0.142800 0.500000 -0.231637
O1    O     O_R   0.316770 0.614620 0.500000 -0.557511
O2    O     O_2   0.270412 0.539117 0.134737 -0.486601
O3    O     O_2   0.268817 0.519336 0.836519 -0.476316
O4    O     O_2   0.706043 0.463789 0.163700 -0.487947
O5    O     O_2   0.165470 0.726976 0.066889 -0.453771
O6    O     O_2   0.879303 0.536844 0.934419 -0.495888
O7    O     O_2   0.469276 0.797419 0.154048 -0.277470
O8    O     O_2   0.570897 0.891851 0.244423 -0.188440
O9    O     O_3   0.710576 0.765752 0.180124 -0.470690
O10   O     O_2   0.557753 0.769504 0.847443 -0.292108
O11   O     O_2   0.478357 0.883805 0.757141 -0.195397
O12   O     O_R   0.683230 0.385380 0.500000 -0.583836
O13   O     O_3   0.316009 0.794613 0.819975 -0.466371
O14   O     O_2   0.634212 0.821125 0.369997 -0.239993
O15   O     O_2   0.761549 0.617596 0.386341 -0.370881
O16   O     O_3   0.792207 0.764293 0.299541 -0.433934
O17   O     O_2   0.385752 0.831953 0.632573 -0.241582
O18   O     O_2   0.242854 0.642973 0.613473 -0.364426
O19   O     O_3   0.224928 0.785627 0.702709 -0.436143
O20   O     O_2   0.717181 0.100625 0.647673 -0.198771
O21   O     O_2   0.832235 0.124405 0.565641 -0.289112
O22   O     O_3   0.715194 0.319990 0.599330 -0.545624
O23   O     O_R   0.683230 0.614620 0.500000 -0.558341
O24   O     O_2   0.182880 0.899253 0.393334 -0.208219
O25   O     O_2   0.370485 0.867221 0.347270 -0.207482
O26   O     O_3   0.283538 0.679029 0.401474 -0.550133
O27   O     O_2   0.288028 0.106882 0.351851 -0.206964
O28   O     O_2   0.167892 0.126414 0.432542 -0.286098
O29   O     O_3   0.283619 0.324455 0.400771 -0.553420
O30   O     O_2   0.821018 0.892277 0.602038 -0.216978
O31   O     O_2   0.640041 0.865229 0.653084 -0.194022
O32   O     O_3   0.717320 0.673860 0.598710 -0.553048
O33   O     O_R   0.316770 0.385380 0.500000 -0.584824
O34   O     O_R   0.499970 0.614690 0.416160 -0.523172
O35   O     O_R   0.500030 0.385310 0.583840 -0.575749
O36   O     O_R   0.500030 0.614690 0.583840 -0.518919
O37   O     O_R   0.499970 0.385310 0.416160 -0.568480
O38   O     O_2   0.702662 0.436194 0.863437 -0.477200
S1    S     S_3+6 0.570908 0.775218 0.204455 0.120577
S2    S     S_3+6 0.455152 0.770585 0.796482 0.113508
S3    S     S_3+6 0.689582 0.705991 0.341323 0.100838
S4    S     S_3+6 0.321701 0.720482 0.659736 0.100946
S5    S     S_3+6 0.710985 0.155879 0.587776 0.108649
S6    S     S_3+6 0.313573 0.842176 0.401252 0.140545
S7    S     S_3+6 0.290064 0.159738 0.411703 0.106364
S8    S     S_3+6 0.690108 0.837970 0.597658 0.141776
Zn1   Zn    Zn3+2 0.500000 0.653120 0.500000 1.163529
Zn2   Zn    Zn3+2 0.500000 0.346880 0.500000 1.103274

loop_
_geom_bond_atom_site_label_1
_geom_bond_atom_site_label_2
_ccdc_geom_bond_type
C25   C31   A    
C14   S5    S    
O15   S3    D    
C3    C42   A    
C26   C32   A    
C27   C29   A    
C14   C17   A    
C1    O33   A    
O33   Zn2   S    
C2    H15   S    
C24   O4    S    
C39   C41   A    
O30   S8    D    
O14   S3    D    
C31   H1    S    
H6    O13   S    
O11   S2    D    
C35   C37   S    
C24   C26   A    
C19   O36   A    
H11   O29   S    
C2    C41   A    
C15   C16   A    
C15   N3    A    
O28   S7    D    
C33   C36   S    
O17   S4    D    
C4    H17   S    
C38   S3    S    
C18   C40   S    
C21   N2    A    
H8    O19   S    
C42   H14   S    
C22   N1    A    
C22   C25   A    
C12   O12   A    
C31   C33   A    
O19   S4    S    
C22   O3    S    
C36   O5    D    
C8    H19   S    
C40   C42   A    
C24   N2    A    
O35   Zn2   S    
C15   S6    S    
O12   Zn2   S    
C18   O34   A    
C32   H12   S    
C20   C29   A    
C39   S4    S    
O23   Zn1   S    
O32   S8    S    
C10   H2    S    
C34   C39   A    
C34   S2    S    
C32   C35   A    
C12   O23   A    
O37   Zn2   S    
C4    C6    A    
O31   S8    D    
C6    C34   A    
O13   S2    S    
H7    O16   S    
C2    C4    A    
C6    N1    S    
O7    S1    D    
C5    C23   A    
C7    C13   A    
O20   S5    D    
C14   N4    A    
C36   H3    S    
O16   S3    S    
C9    C11   A    
O27   S7    D    
O21   S5    D    
O22   S5    S    
C17   N3    A    
O9    S1    S    
C21   O2    S    
H10   O26   S    
C16   N4    A    
O24   S6    D    
C17   S8    S    
C7    H18   S    
O25   S6    D    
C7    C9    A    
O10   S2    D    
N4    Zn2   S    
C30   C33   A    
N3    Zn1   S    
O34   Zn1   S    
C3    C5    A    
C10   C13   A    
H9    O22   S    
C11   C12   S    
C20   O38   S    
C25   C27   A    
C23   C38   A    
C21   C30   A    
C29   C35   A    
C26   C28   A    
C9    H20   S    
C20   N1    A    
C28   C30   A    
O1    Zn1   S    
H5    O9    S    
O36   Zn1   S    
O29   S7    S    
O8    S1    D    
C38   C40   A    
C19   O35   A    
O26   S6    S    
C8    C11   A    
H13   O32   S    
C1    O1    A    
C18   O37   A    
C3    H16   S    
O18   S4    D    
C1    C13   S    
C5    N2    S    
C8    C10   A    
C37   O6    D    
C27   C28   A    
C37   H4    S    
C19   C41   S    
C16   S7    S    
C23   S1    S    
