data_mof_unit_17143.cif
_audit_creation_date              2012-12-11T15:57:43-0500
_audit_creation_method            fapswitch 2.2
_symmetry_space_group_name_H-M    P1
_symmetry_Int_Tables_number       1
_space_group_crystal_system       triclinic
_cell_length_a                    10.79499
_cell_length_b                    10.691188
_cell_length_c                    16.908904
_cell_angle_alpha                 99.25289
_cell_angle_beta                  99.349459
_cell_angle_gamma                 61.182343
_cell_volume                      1679.39354273

loop_
_atom_site_label
_atom_site_type_symbol
_atom_type_description
_atom_site_fract_x
_atom_site_fract_y
_atom_site_fract_z
_atom_type_partial_charge
C1    C     C_R   0.354265 0.777911 0.403079 0.545190
C2    C     C_2   0.846005 0.318935 0.164999 0.126174
C3    C     C_2   0.916187 0.203507 0.208394 -0.130560
C4    C     C_2   0.888395 0.204570 0.290485 -0.049729
C5    C     C_2   0.331086 0.860268 0.337295 -0.077171
C6    C     C_2   0.335245 0.824704 0.158508 0.122614
C7    C     C_2   0.422485 0.857215 0.214107 -0.141798
C8    C     C_2   0.442298 0.828490 0.297614 -0.134598
C9    C     C_2   0.384823 0.370491 0.677676 -0.116004
C10   C     C_2   0.348432 0.363142 0.842218 -0.124024
C11   C     C_2   0.478623 0.302175 0.814762 -0.030112
C12   C     C_R   0.405866 0.374790 0.355798 0.570244
C13   C     C_2   0.490958 0.337773 0.736873 -0.174829
C14   C     C_1   0.848228 0.327237 0.704494 -0.054556
C15   C     C_1   0.895704 0.292562 0.771249 -0.046641
C16   C     C_1   0.338817 0.810953 0.708895 -0.034275
C17   C     C_1   0.313078 0.838208 0.777199 -0.034542
C18   C     C_R   0.896950 0.306371 0.088202 0.558075
C19   C     C_R   0.320830 0.301795 0.119080 0.528657
C20   C     C_R   0.292870 0.890814 0.083586 0.560821
C21   C     C_R   0.944896 0.272706 0.853795 0.567855
C22   C     C_R   0.310632 0.297453 0.897341 0.532384
C23   C     C_R   0.782242 0.373771 0.407524 0.539936
C24   C     C_R   0.278668 0.884425 0.856939 0.541236
C25   C     C_R   0.357987 0.770195 0.626839 0.541868
C26   C     C_R   0.409866 0.379183 0.598058 0.573492
C27   C     C_R   0.778335 0.377973 0.628598 0.536976
C28   C     C_1   0.373521 0.361366 0.271682 -0.043051
C29   C     C_1   0.347979 0.341981 0.200943 -0.062883
C30   C     C_2   0.873753 0.319283 0.342427 -0.092415
Cr1   Cr    Cr6+3 0.608020 0.610770 0.522990 1.015940
Cr2   Cr    Cr6+3 0.289390 0.599570 0.488050 1.008074
Cr3   Cr    Cr6+3 0.602610 0.289690 0.489020 1.017368
Cr4   Cr    Cr6+3 0.053780 0.052210 0.965970 0.993020
Cr5   Cr    Cr6+3 0.060060 0.372530 0.992430 1.001357
Cr6   Cr    Cr6+3 0.372600 0.061970 0.991430 1.008603
H1    H     H_    0.998388 0.103091 0.183003 0.119247
H2    H     H_    0.594572 0.318466 0.724320 0.135463
H3    H     H_    0.261491 0.457486 0.816690 0.095470
H4    H     H_    0.280943 0.385311 0.686338 0.111624
H5    H     H_    0.905676 0.393482 0.326360 0.137626
H6    H     H_    0.482533 0.905307 0.198246 0.130165
H7    H     H_    0.551147 0.765297 0.322624 0.154464
H8    H     H_    0.222913 0.928477 0.313765 0.104069
O1    O     O_R   0.749250 0.499990 0.439200 -0.515464
O2    O     O_R   0.299400 0.468710 0.556310 -0.488862
O3    O     O_R   0.489240 0.256450 0.560730 -0.495410
O4    O     O_R   0.723350 0.306730 0.584410 -0.522847
O5    O     O_3   0.500010 0.500010 0.500020 -0.293478
O6    O     O_R   0.170650 0.915100 0.051290 -0.529153
O7    O     O_R   0.941960 0.184500 0.049060 -0.519440
O8    O     O_R   0.922640 0.402670 0.071640 -0.509048
O9    O     O_R   0.196880 0.368740 0.083740 -0.506397
O10   O     O_R   0.411120 0.181190 0.091480 -0.522672
O11   O     O_R   0.364220 0.944920 0.062310 -0.510615
O12   O     O_R   0.477870 0.725740 0.440280 -0.496012
O13   O     O_R   0.158740 0.906940 0.874970 -0.520618
O14   O     O_R   0.930920 0.176940 0.885610 -0.483170
O15   O     O_R   0.910730 0.394510 0.895320 -0.505254
O16   O     O_R   0.185840 0.361180 0.920280 -0.518529
O17   O     O_R   0.399210 0.173040 0.915160 -0.499806
O18   O     O_R   0.353170 0.937370 0.898860 -0.490977
O19   O     O_3   0.162150 0.162240 0.983280 -0.261147
O20   O     O_R   0.260770 0.742210 0.412610 -0.521288
O21   O     O_R   0.297990 0.466320 0.394220 -0.482959
O22   O     O_R   0.487720 0.253870 0.385870 -0.492044
O23   O     O_R   0.721940 0.304340 0.422320 -0.503857
O24   O     O_R   0.750770 0.502570 0.614050 -0.499524
O25   O     O_R   0.479280 0.728140 0.602370 -0.490706
O26   O     O_R   0.262290 0.744790 0.587460 -0.528107
C31   C     C_R   0.873390 0.081846 0.310146 0.042778
C32   C     C_R   0.798410 0.023359 0.254586 -0.093037
C33   C     C_R   0.786904 0.906063 0.271945 -0.105605
C34   C     C_R   0.849778 0.846088 0.344762 -0.100958
C35   C     C_R   0.925414 0.902545 0.400096 -0.078242
C36   C     C_R   0.938618 0.018863 0.382657 -0.056034
H9    H     H_    0.748120 0.068947 0.198018 0.106605
H10   H     H_    0.729493 0.861417 0.228828 0.104229
H11   H     H_    0.840403 0.755486 0.358135 0.113825
H12   H     H_    0.974828 0.855437 0.456302 0.122341
H13   H     H_    0.999599 0.059834 0.425617 0.104011
N1    N     N_2   0.731131 0.449931 0.193450 -0.537252
H14   H     H_    0.712165 0.537598 0.165784 0.257306
C37   C     C_3   0.602731 0.439996 0.194880 -0.311643
H15   H     H_    0.519765 0.543939 0.219571 0.180178
H16   H     H_    0.621002 0.358046 0.234155 0.163032
H17   H     H_    0.565396 0.410726 0.133053 0.124004
N2    N     N_2   0.254655 0.762797 0.179773 -0.526550
H18   H     H_    0.158150 0.839455 0.198894 0.249347
C38   C     C_3   0.235791 0.656610 0.121797 -0.284601
H19   H     H_    0.192345 0.603791 0.151820 0.162798
H20   H     H_    0.337583 0.576063 0.098436 0.131982
H21   H     H_    0.156823 0.706448 0.070685 0.157856
C39   C     C_R   0.608050 0.184550 0.853497 0.073856
C40   C     C_R   0.690665 0.057098 0.806971 -0.084445
C41   C     C_R   0.801796 0.940169 0.843995 -0.095993
C42   C     C_R   0.829954 0.948207 0.927722 -0.066162
C43   C     C_R   0.749721 0.074649 0.974367 -0.058043
C44   C     C_R   0.643440 0.194448 0.937411 -0.027710
H22   H     H_    0.666399 0.046380 0.742309 0.119222
H23   H     H_    0.864013 0.842132 0.807870 0.114394
H24   H     H_    0.913807 0.856492 0.956470 0.091161
H25   H     H_    0.769919 0.079883 0.039328 0.095985
H26   H     H_    0.582647 0.291811 0.974546 0.087929

loop_
_geom_bond_atom_site_label_1
_geom_bond_atom_site_label_2
_ccdc_geom_bond_type
C27   O4    A    
C23   O1    A    
C2    C18   S    
C33   C34   A    
C40   C41   A    
C8    H7    S    
C42   C43   A    
C18   O8    A    
C7    C8    S    
C10   C22   S    
Cr4   O7    S    
C12   C28   S    
C1    C5    S    
C28   C29   T    
C1    O12   A    
C37   H16   S    
C21   O15   A    
C22   O16   A    
C31   C36   A    
Cr5   O9    S    
Cr3   O5    S    
C43   H25   S    
C6    N2    S    
Cr5   O15   S    
C7    H6    S    
C23   O23   A    
C9    C13   D    
C20   O6    A    
C27   O24   A    
C24   O13   A    
C9    C26   S    
Cr4   O13   S    
C33   H10   S    
C37   H17   S    
C30   H5    S    
Cr1   O12   S    
Cr6   O19   S    
C35   H12   S    
C14   C27   S    
C42   H24   S    
C19   O9    A    
C44   H26   S    
C41   H23   S    
Cr1   O5    S    
C20   O11   A    
Cr6   O18   S    
C18   O7    A    
Cr1   O24   S    
Cr4   O6    S    
C17   C24   S    
C34   C35   A    
C23   C30   S    
C37   H15   S    
Cr2   O20   S    
C26   O2    A    
C40   H22   S    
C16   C17   T    
Cr2   O26   S    
C12   O22   A    
C9    H4    S    
Cr5   O16   S    
C35   C36   A    
C32   H9    S    
C38   H20   S    
C15   C21   S    
C41   C42   A    
C13   H2    S    
C26   O3    A    
C19   O10   A    
C5    H8    S    
N2    C38   S    
C43   C44   A    
N1    C37   S    
C34   H11   S    
Cr3   O3    S    
C2    N1    S    
C25   O25   A    
C3    C4    S    
C19   C29   S    
C1    O20   A    
Cr3   O23   S    
C38   H21   S    
C16   C25   S    
C24   O18   A    
Cr2   O2    S    
C11   C39   S    
C32   C33   A    
C36   H13   S    
C5    C8    D    
C6    C7    D    
C6    C20   S    
C12   O21   A    
C2    C3    D    
C21   O14   A    
Cr6   O11   S    
C22   O17   A    
C11   C13   S    
C38   H19   S    
C39   C44   A    
Cr4   O19   S    
C39   C40   A    
Cr2   O5    S    
Cr6   O10   S    
C10   C11   D    
Cr3   O22   S    
Cr1   O25   S    
C31   C32   A    
N2    H18   S    
C3    H1    S    
N1    H14   S    
Cr1   O1    S    
Cr5   O8    S    
Cr4   O14   S    
Cr3   O4    S    
C14   C15   T    
C10   H3    S    
Cr5   O19   S    
C25   O26   A    
C4    C31   S    
C4    C30   D    
Cr6   O17   S    
Cr2   O21   S    
