data_mof_unit_27365.cif
_audit_creation_date              2013-03-05T15:59:17-0500
_audit_creation_method            fapswitch 2.2
_symmetry_space_group_name_H-M    P1
_symmetry_Int_Tables_number       1
_space_group_crystal_system       triclinic
_cell_length_a                    15.101996
_cell_length_b                    13.92904
_cell_length_c                    23.545455
_cell_angle_alpha                 90.082785
_cell_angle_beta                  85.117161
_cell_angle_gamma                 90.020366
_cell_volume                      4934.95464289

loop_
_atom_site_label
_atom_site_type_symbol
_atom_site_description
_atom_site_fract_x
_atom_site_fract_y
_atom_site_fract_z
_atom_type_partial_charge
O1    O     O_R   0.370260 0.582280 0.500010 -0.587166
O2    O     O_R   0.629740 0.417720 0.499990 -0.587160
O3    O     O_R   0.629740 0.582280 0.499990 -0.587423
O4    O     O_R   0.370260 0.417720 0.500010 -0.587426
C1    C     C_R   0.328873 0.499988 0.499970 0.799430
C2    C     C_R   0.671128 0.500012 0.500024 0.799432
O5    O     O_R   0.499980 0.582290 0.417880 -0.586163
O6    O     O_R   0.500020 0.417710 0.582120 -0.586155
O7    O     O_R   0.500020 0.582290 0.582120 -0.586748
O8    O     O_R   0.499980 0.417710 0.417880 -0.586745
C3    C     C_R   0.500481 0.499925 0.391095 0.785370
C4    C     C_R   0.499519 0.500075 0.608905 0.785375
Cu1   Cu    Cu3+1 0.500000 0.597420 0.500000 0.934332
Cu2   Cu    Cu3+1 0.500000 0.402580 0.500000 0.934339
C5    C     C_R   0.574663 0.476816 0.875404 0.553530
C6    C     C_R   0.425338 0.523200 0.124595 0.553553
N1    N     N_R   0.498845 0.501592 0.851645 -0.472621
N2    N     N_R   0.501153 0.498419 0.148354 -0.472616
C7    C     C_R   0.423170 0.526504 0.884018 0.559098
C8    C     C_R   0.576830 0.473512 0.115982 0.559095
C9    C     C_R   0.421107 0.528234 0.944412 -0.056905
C10   C     C_R   0.578899 0.471797 0.055587 -0.056909
C11   C     C_R   0.499498 0.500965 0.969912 -0.117112
C12   C     C_R   0.500507 0.499065 0.030086 -0.117118
C13   C     C_R   0.577487 0.477047 0.935120 -0.136662
C14   C     C_R   0.422517 0.522982 0.064878 -0.136640
C15   C     C_R   0.343927 0.555258 0.979957 0.048286
C16   C     C_R   0.656084 0.444793 0.020041 0.048295
C17   C     C_R   0.343681 0.546373 0.039581 0.447710
C18   C     C_R   0.656327 0.453672 0.960417 0.447725
O9    O     O_2   0.646715 0.451331 0.840833 -0.495553
O10   O     O_2   0.353282 0.548674 0.159165 -0.495578
O11   O     O_2   0.350198 0.547025 0.857152 -0.554291
O12   O     O_2   0.649798 0.452980 0.142848 -0.554307
C19   C     C_R   0.502922 0.412135 0.239110 -0.115023
C20   C     C_R   0.499875 0.413904 0.760961 -0.103585
H1    H     H_    0.503931 0.344528 0.216302 0.134387
H2    H     H_    0.500722 0.346581 0.783845 0.139338
C21   C     C_R   0.502729 0.412376 0.298328 -0.217966
C22   C     C_R   0.499999 0.413421 0.701730 -0.219599
H3    H     H_    0.503794 0.344272 0.320389 0.162332
H4    H     H_    0.501046 0.345072 0.679701 0.163254
C23   C     C_R   0.501063 0.499653 0.328502 -0.035264
C24   C     C_R   0.498936 0.500349 0.671498 -0.035271
C25   C     C_R   0.499941 0.586582 0.298275 -0.219603
C26   C     C_R   0.497326 0.587627 0.701668 -0.217947
H5    H     H_    0.498848 0.654930 0.320306 0.163263
H6    H     H_    0.496308 0.655730 0.679604 0.162344
C27   C     C_R   0.500064 0.586102 0.239044 -0.103601
C28   C     C_R   0.497133 0.587871 0.760885 -0.115069
H7    H     H_    0.499171 0.653427 0.216163 0.139364
H8    H     H_    0.496170 0.655478 0.783690 0.134358
C29   C     C_R   0.501423 0.498919 0.209308 0.356273
C30   C     C_R   0.498574 0.501088 0.790692 0.356309
C31   C     C_R   0.814132 0.586671 0.501010 -0.222587
C32   C     C_R   0.185880 0.413330 0.498915 -0.222578
C33   C     C_R   0.767953 0.500032 0.500975 -0.079569
C34   C     C_R   0.232054 0.499968 0.498982 -0.079562
C35   C     C_R   0.813917 0.413414 0.502169 -0.221358
C36   C     C_R   0.186095 0.586587 0.497760 -0.221368
C37   C     C_R   0.906628 0.411568 0.502735 0.071987
C38   C     C_R   0.093392 0.588432 0.497135 0.071981
C39   C     C_R   0.953522 0.500019 0.500600 -0.028517
C40   C     C_R   0.046498 0.499983 0.499263 -0.028522
C41   C     C_R   0.906860 0.588544 0.501471 0.072132
C42   C     C_R   0.093160 0.411461 0.498398 0.072164
C43   C     C_R   0.952821 0.323142 0.504862 0.166427
C44   C     C_R   0.047208 0.676855 0.494958 0.166410
C45   C     C_R   0.046732 0.322968 0.497576 0.167035
C46   C     C_R   0.953296 0.677042 0.502243 0.167022
H9    H     H_    0.776911 0.652654 0.499340 0.172148
H10   H     H_    0.223092 0.347344 0.500613 0.172142
H11   H     H_    0.776540 0.347364 0.501368 0.172416
H12   H     H_    0.223461 0.652639 0.498593 0.172404
C47   C     C_R   0.438107 0.794578 0.535402 0.281592
C48   C     C_R   0.561892 0.205422 0.464598 0.281610
C49   C     C_R   0.561886 0.794460 0.464590 0.282955
C50   C     C_R   0.438113 0.205540 0.535409 0.282954
N3    N     N_R   0.500000 0.743810 0.500000 -0.182081
N4    N     N_R   0.500000 0.256190 0.500000 -0.182080
C51   C     C_R   0.563981 0.897037 0.465437 -0.001396
C52   C     C_R   0.436017 0.102963 0.534561 -0.001392
C53   C     C_R   0.436006 0.897148 0.534551 -0.001296
C54   C     C_R   0.563993 0.102852 0.465448 -0.001299
C55   C     C_R   0.499998 0.948408 0.499998 0.032962
C56   C     C_R   0.500001 0.051591 0.500001 0.032961
C57   C     C_R   0.628724 0.950017 0.431985 -0.194133
C58   C     C_R   0.371273 0.049983 0.568013 -0.194141
C59   C     C_R   0.371257 0.950231 0.567998 -0.194223
C60   C     C_R   0.628741 0.049768 0.432000 -0.194212
H13   H     H_    0.681055 0.915821 0.405078 0.150621
H14   H     H_    0.318941 0.084179 0.594919 0.150623
H15   H     H_    0.318899 0.916113 0.594877 0.150819
H16   H     H_    0.681098 0.083886 0.405120 0.150817
C61   C     C_3   0.261471 0.595826 0.956058 -0.725586
H17   H     H_    0.228145 0.539314 0.932303 0.244649
H18   H     H_    0.211482 0.623489 0.989274 0.239709
H19   H     H_    0.279748 0.658150 0.928137 0.249648
C62   C     C_3   0.738556 0.404262 0.043939 -0.725556
H20   H     H_    0.720305 0.341920 0.071852 0.249656
H21   H     H_    0.788564 0.376637 0.010724 0.239712
H22   H     H_    0.771851 0.460786 0.067703 0.244643
C63   C     C_3   0.097467 0.229730 0.485915 -0.879680
H23   H     H_    0.055677 0.171381 0.470563 0.244574
H24   H     H_    0.150212 0.239740 0.450596 0.231228
H25   H     H_    0.127738 0.205996 0.524895 0.228227
C64   C     C_3   0.902564 0.770305 0.513835 -0.879580
H26   H     H_    0.944383 0.828775 0.529028 0.244571
H27   H     H_    0.872139 0.793844 0.474867 0.228156
H28   H     H_    0.849934 0.760395 0.549239 0.231226
C65   C     C_3   0.370736 0.745033 0.576971 -0.791183
H29   H     H_    0.375566 0.667722 0.580561 0.274267
H30   H     H_    0.377813 0.772098 0.620751 0.191835
H31   H     H_    0.302568 0.760211 0.565041 0.191996
C66   C     C_3   0.629262 0.254966 0.423028 -0.791198
H32   H     H_    0.624434 0.332278 0.419439 0.274266
H33   H     H_    0.697431 0.239785 0.434955 0.191975
H34   H     H_    0.622180 0.227904 0.379247 0.191827
C67   C     C_3   0.629238 0.744798 0.422988 -0.792196
H35   H     H_    0.624642 0.667434 0.419496 0.274165
H36   H     H_    0.621951 0.771498 0.379201 0.191682
H37   H     H_    0.697421 0.760329 0.434797 0.191182
C68   C     C_3   0.370758 0.255202 0.577009 -0.792206
H38   H     H_    0.375358 0.332566 0.580504 0.274161
H39   H     H_    0.302576 0.239676 0.565196 0.191213
H40   H     H_    0.378039 0.228499 0.620796 0.191672
O13   O     O_3   0.265766 0.563840 0.073415 -0.538500
C69   C     C_3   0.216711 0.477406 0.078996 0.091755
H41   H     H_    0.255171 0.420424 0.099211 0.149949
H42   H     H_    0.198513 0.451313 0.036780 0.126423
C70   C     C_3   0.131402 0.495181 0.116642 -0.728252
H43   H     H_    0.090901 0.550790 0.097151 0.238133
H44   H     H_    0.092245 0.427739 0.121359 0.189867
H45   H     H_    0.147279 0.519916 0.159483 0.271459
O14   O     O_3   0.734245 0.436221 0.926583 -0.538489
C71   C     C_3   0.783273 0.522671 0.920991 0.091712
H46   H     H_    0.801404 0.548833 0.963207 0.126407
H47   H     H_    0.744823 0.579603 0.900728 0.150027
C72   C     C_3   0.868632 0.504890 0.883399 -0.728359
H48   H     H_    0.852826 0.480075 0.840561 0.271454
H49   H     H_    0.907761 0.572347 0.878666 0.189893
H50   H     H_    0.909127 0.449341 0.902945 0.238125
C73   C     C_3   0.901844 0.230498 0.517947 -0.877485
H51   H     H_    0.849036 0.242230 0.553040 0.232372
H52   H     H_    0.871633 0.204795 0.479321 0.227826
H53   H     H_    0.943464 0.172985 0.534284 0.244698
C74   C     C_3   0.098185 0.769479 0.481804 -0.877381
H54   H     H_    0.151120 0.757641 0.446800 0.232351
H55   H     H_    0.056593 0.826873 0.465294 0.244657
H56   H     H_    0.128227 0.795390 0.520449 0.227872

loop_
_geom_bond_atom_site_label_1
_geom_bond_atom_site_label_2
_geom_bond_distance
_ccdc_geom_bond_type
C73   H53   1.107796 S    
C39   C41   1.419691 A    
C57   H13   1.080274 S    
C19   C29   1.399758 A    
C66   H33   1.110390 S    
C15   C61   1.518987 S    
C61   H17   1.110015 S    
C70   H45   1.110768 S    
C43   C73   1.520821 S    
C69   H41   1.114616 S    
C48   C54   1.429269 A    
Cu1   N3    2.039072 S    
C61   H19   1.110233 S    
O14   C71   1.413785 S    
C21   H3    1.082956 S    
C49   C67   1.517071 S    
C55   C56   1.437239 A    
O5    C3    1.308099 A    
C28   C30   1.399738 A    
C1    C34   1.464319 S    
O1    C1    1.305425 A    
C74   H55   1.107966 S    
C12   C14   1.415804 A    
C46   C64   1.520907 S    
C72   H50   1.110748 S    
C27   C29   1.400152 A    
C68   H39   1.110323 S    
C42   C45   1.418791 A    
C15   C17   1.409185 A    
C34   C36   1.393682 A    
C66   H32   1.083269 S    
C48   C66   1.517008 S    
C36   C38   1.401573 A    
C37   C39   1.419675 A    
O7    Cu1   1.945332 S    
C38   C40   1.419653 A    
O5    Cu1   1.944727 S    
N2    C29   1.435554 S    
C65   H30   1.110753 S    
C74   H54   1.110449 S    
C32   H10   1.080049 S    
C28   H8    1.082851 S    
C11   C12   1.418496 A    
C32   C42   1.401580 A    
C3    C23   1.473051 S    
Cu2   N4    2.039072 S    
C65   H31   1.110394 S    
C35   H11   1.080181 S    
N2    C8    1.363344 A    
O3    Cu1   1.970702 S    
C8    O12   1.347484 S    
O3    C2    1.305528 A    
C25   H5    1.082975 S    
C9    C15   1.426176 A    
C10   C16   1.426185 A    
Cu1   Cu2   2.713933 S    
O4    Cu2   1.970705 S    
C64   H27   1.110488 S    
C2    C33   1.464327 S    
O2    C2    1.305428 A    
C54   C60   1.410966 A    
C71   C72   1.520473 S    
C31   C41   1.401585 A    
C24   C26   1.406317 A    
C60   H16   1.080285 S    
C67   H36   1.110780 S    
C9    C11   1.424175 A    
C6    C14   1.410322 A    
C53   C59   1.410966 A    
C72   H48   1.110735 S    
C26   H6    1.082942 S    
C35   C37   1.401579 A    
C58   H14   1.080274 S    
C68   H38   1.083272 S    
C74   H56   1.110520 S    
C37   C43   1.418776 A    
C71   H47   1.114570 S    
O8    Cu2   1.945332 S    
C71   H46   1.114000 S    
C68   H40   1.110778 S    
C21   C23   1.406331 A    
C27   H7    1.082842 S    
C52   C56   1.404583 A    
C43   C45   1.414016 A    
C40   C42   1.419676 A    
C19   C21   1.394066 A    
C50   C52   1.429277 A    
C22   H4    1.082963 S    
C62   H20   1.110228 S    
C20   C22   1.394477 A    
O6    C4    1.308099 A    
C66   H34   1.110751 S    
C25   C27   1.394474 A    
C49   N3    1.391026 A    
C63   H24   1.110407 S    
C5    O9    1.349540 S    
C50   C68   1.517071 S    
C23   C25   1.406247 A    
C51   C57   1.411040 A    
C44   C74   1.520848 S    
C14   C17   1.414213 A    
C16   C62   1.518989 S    
C44   C46   1.414016 A    
C62   H21   1.108532 S    
C8    C10   1.419879 A    
C18   O14   1.385083 S    
C17   O13   1.385089 S    
C7    O11   1.347485 S    
C64   H28   1.110468 S    
C10   C12   1.424176 A    
C33   C35   1.393660 A    
O1    Cu1   1.970556 S    
C64   H26   1.107867 S    
O13   C69   1.413795 S    
C69   C70   1.520516 S    
C67   H37   1.110319 S    
C13   C18   1.414205 A    
C73   H52   1.110422 S    
O6    Cu2   1.944727 S    
C65   H29   1.083270 S    
C19   H1    1.082863 S    
C45   C63   1.520845 S    
C48   N4    1.390928 A    
C54   C56   1.404632 A    
O4    C1    1.305528 A    
C70   H44   1.110503 S    
C69   H42   1.114026 S    
C67   H35   1.083271 S    
C61   H18   1.108534 S    
C5    N1    1.361223 A    
C6    O10   1.349533 S    
C26   C28   1.394064 A    
C47   C65   1.517008 S    
C38   C44   1.418779 A    
C31   C33   1.393630 A    
C73   H51   1.110403 S    
C16   C18   1.409188 A    
C4    C24   1.473050 S    
C20   H2    1.082827 S    
C72   H49   1.110491 S    
C47   C53   1.429270 A    
C52   C58   1.411039 A    
C36   H12   1.080172 S    
N1    C7    1.363344 A    
C32   C34   1.393616 A    
C63   H25   1.110414 S    
C50   N4    1.391025 A    
C11   C13   1.415802 A    
C59   H15   1.080284 S    
C53   C55   1.404632 A    
O2    Cu2   1.970553 S    
O7    C4    1.307859 A    
C51   C55   1.404582 A    
C20   C30   1.400134 A    
O8    C3    1.307861 A    
C39   C40   1.401801 A    
C22   C24   1.406235 A    
C62   H22   1.110015 S    
C58   C59   1.389446 A    
C5    C13   1.410322 A    
C6    N2    1.361223 A    
C49   C51   1.429277 A    
C57   C60   1.389445 A    
C63   H23   1.107774 S    
C41   C46   1.418848 A    
C47   N3    1.390927 A    
N1    C30   1.435542 S    
C31   H9    1.080022 S    
C70   H43   1.110791 S    
C7    C9    1.419870 A    
