data_mof_unit_16329.cif
_audit_creation_date              2012-12-11T20:00:14-0500
_audit_creation_method            fapswitch 2.2
_symmetry_space_group_name_H-M    P1
_symmetry_Int_Tables_number       1
_space_group_crystal_system       triclinic
_cell_length_a                    8.345914
_cell_length_b                    16.204666
_cell_length_c                    27.13954
_cell_angle_alpha                 72.292108
_cell_angle_beta                  96.433563
_cell_angle_gamma                 96.294655
_cell_volume                      3463.41398456

loop_
_atom_site_label
_atom_site_type_symbol
_atom_type_description
_atom_site_fract_x
_atom_site_fract_y
_atom_site_fract_z
_atom_type_partial_charge
Ba1   Ba    Ba6+2 0.337820 0.939830 0.518500 1.692778
Ba2   Ba    Ba6+2 0.851970 0.060110 0.481480 1.671280
C1    C     C_3   0.081257 0.516674 0.635002 -0.401377
C2    C     C_3   0.063925 0.613815 0.618313 0.308691
C3    C     C_3   0.073971 0.007226 0.645887 0.286829
C4    C     C_3   0.038774 0.970133 0.702674 -0.333311
C5    C     C_3   0.608304 0.378023 0.374593 0.302257
C6    C     C_3   0.561231 0.467829 0.339014 0.195186
C7    C     C_3   0.071081 0.379500 0.394408 0.668705
C8    C     C_3   0.031938 0.475164 0.382743 -0.195759
C9    C     C_R   0.399652 0.270753 0.161509 0.582382
C10   C     C_R   0.506181 0.390012 0.193302 0.621978
C11   C     C_2   0.298083 0.281937 0.280285 -0.129987
C12   C     C_3   0.581188 0.576960 0.620312 0.694269
C13   C     C_3   0.287990 0.242622 0.338191 -0.016084
C14   C     C_1   0.467159 0.135573 0.336024 0.026935
C15   C     C_2   0.495271 0.175603 0.285969 -0.028163
C16   C     C_2   0.403160 0.253984 0.255379 0.222780
C17   C     C_R   0.511359 0.404790 0.101098 -0.147244
C18   C     C_R   0.439648 0.318877 0.110848 -0.020222
C19   C     C_R   0.408948 0.282552 0.069695 -0.053548
C20   C     C_R   0.543011 0.441475 0.142571 -0.042875
C21   C     C_2   0.348956 0.154272 0.358262 -0.263022
C22   C     C_2   0.822434 0.832304 0.635942 -0.308194
C23   C     C_3   0.530574 0.484441 0.655429 -0.020500
C24   C     C_R   0.578804 0.461083 0.958999 0.017315
C25   C     C_R   0.644603 0.592140 0.987513 0.036916
C26   C     C_R   0.632329 0.550677 0.947935 0.054189
C27   C     C_R   0.580493 0.421122 0.919432 -0.098178
C28   C     C_R   0.627399 0.468132 0.870401 -0.060410
C29   C     C_R   0.672893 0.557421 0.858243 -0.034524
C30   C     C_R   0.674359 0.599180 0.896800 -0.080640
C31   C     C_R   0.718917 0.689200 0.884323 -0.048054
C32   C     C_R   0.757566 0.736448 0.833205 0.655296
C33   C     C_R   0.717535 0.605562 0.808241 0.595943
C34   C     C_3   0.602283 0.882465 0.394334 0.437646
C35   C     C_2   0.906376 0.720475 0.720011 -0.113486
C36   C     C_3   0.911148 0.752180 0.662104 0.016780
C37   C     C_1   0.712303 0.855586 0.659821 -0.017863
C38   C     C_2   0.682801 0.812643 0.709764 0.340060
C39   C     C_2   0.788764 0.743227 0.742289 0.235356
C40   C     C_R   0.527721 0.414171 0.009162 0.034871
C41   C     C_R   0.550904 0.453843 0.049755 0.045005
C42   C     C_R   0.613615 0.541920 0.039414 -0.019179
C43   C     C_R   0.452662 0.328699 0.020159 -0.099204
C44   C     C_R   0.612352 0.528122 0.132477 0.432579
C45   C     C_3   0.573343 0.807278 0.370812 0.215970
C46   C     C_R   0.686869 0.682921 0.973478 -0.094965
C47   C     C_R   0.722626 0.730128 0.923115 -0.057560
C48   C     C_R   0.645851 0.576655 0.081633 -0.158898
C49   C     C_2   0.393516 0.247039 0.514764 -0.202918
C50   C     C_R   0.806932 0.755608 0.494025 -0.292651
C51   C     C_2   0.251657 0.307308 0.569222 -0.066865
C52   C     C_2   0.267078 0.242180 0.549856 0.042601
C53   C     C_2   0.514433 0.309888 0.507893 0.034449
C54   C     C_3   0.522552 0.374729 0.538619 -0.019305
C55   C     C_3   0.360429 0.389003 0.555145 -0.069822
C56   C     C_3   0.544649 0.093447 0.643738 0.382418
C57   C     C_2   0.640229 0.454044 0.524746 0.391874
C58   C     C_2   0.594377 0.534097 0.494809 -0.020856
C59   C     C_R   0.839928 0.616607 0.456590 -0.018666
C60   C     C_R   0.709197 0.612882 0.485649 -0.042106
C61   C     C_R   0.951553 0.688717 0.445810 -0.145034
C62   C     C_R   0.934499 0.758985 0.463904 0.080119
C63   C     C_R   0.689390 0.684773 0.503432 -0.038982
C64   C     C_3   0.479357 0.069765 0.697782 0.678614
C65   C     C_3   0.088567 0.980951 0.348177 0.317543
C66   C     C_3   0.018980 0.005356 0.291388 -0.248001
H1    H     H_    0.085606 0.641380 0.576538 0.056878
H2    H     H_    0.640657 0.823138 0.335510 0.052184
H3    H     H_    0.618459 0.747750 0.398950 -0.032498
H4    H     H_    0.445611 0.089033 0.613635 -0.073371
H5    H     H_    0.404397 0.006959 0.704146 -0.071533
H6    H     H_    0.222694 0.985947 0.350366 0.023048
H7    H     H_    0.045668 0.024737 0.367604 0.046586
H8    H     H_    0.190988 0.503053 0.620450 0.141748
H9    H     H_    0.034886 0.952442 0.274565 0.151712
H10   H     H_    0.887112 0.011734 0.289656 0.115133
H11   H     H_    0.937284 0.622107 0.623420 0.011711
H12   H     H_    0.976485 0.483168 0.618668 0.109706
H13   H     H_    0.961454 0.999558 0.621228 0.027032
H14   H     H_    0.167739 0.970382 0.638220 0.057160
H15   H     H_    0.931132 0.998085 0.709789 0.150863
H16   H     H_    0.016219 0.898588 0.712904 0.049121
H17   H     H_    0.142772 0.985262 0.728506 0.131812
H18   H     H_    0.085614 0.490089 0.677922 0.129893
H19   H     H_    0.496714 0.336680 0.387057 -0.009527
H20   H     H_    0.650426 0.498610 0.309769 0.098578
H21   H     H_    0.443717 0.459413 0.316740 0.089561
H22   H     H_    0.983782 0.338190 0.421026 0.108515
H23   H     H_    0.040492 0.492490 0.419622 0.109912
H24   H     H_    0.906843 0.482410 0.365015 0.114083
H25   H     H_    0.351809 0.217290 0.075727 0.120201
H26   H     H_    0.982846 0.669656 0.742458 0.110456
H27   H     H_    0.626832 0.433916 0.841721 0.112549
H28   H     H_    0.550536 0.352554 0.925568 0.072906
H29   H     H_    0.421941 0.296086 0.990797 0.070097
H30   H     H_    0.234997 0.339525 0.260188 0.108482
H31   H     H_    0.689314 0.720336 0.000296 0.074488
H32   H     H_    0.673505 0.569114 0.595986 -0.058950
H33   H     H_    0.753819 0.799421 0.914706 0.126057
H34   H     H_    0.702647 0.641287 0.076526 0.060604
H35   H     H_    0.298169 0.108154 0.392064 0.053670
H36   H     H_    0.829977 0.859489 0.594398 0.085885
H37   H     H_    0.157577 0.302374 0.594778 0.098793
H38   H     H_    0.047814 0.690914 0.421715 0.109941
H39   H     H_    0.391847 0.195956 0.496453 0.060708
H40   H     H_    0.791734 0.811543 0.506394 0.065415
H41   H     H_    0.446929 0.451799 0.631359 0.080156
H42   H     H_    0.731956 0.890944 0.406665 -0.120866
H43   H     H_    0.529896 0.867354 0.428357 0.057911
N1    N     N_R   0.437704 0.305284 0.202496 -0.432769
N2    N     N_R   0.754951 0.694593 0.795549 -0.409651
O1    O     O_2   0.431310 0.922990 0.623550 -0.487352
O2    O     O_3   0.033307 0.894429 0.370062 -0.634339
O3    O     O_3   0.445197 0.614280 0.588761 -0.617514
O4    O     O_2   0.758370 0.077020 0.376420 -0.471662
O5    O     O_3   0.526390 0.016840 0.436620 -0.494319
O6    O     O_3   0.063420 0.187310 0.425160 -0.459348
O7    O     O_3   0.557252 0.957679 0.356104 -0.635074
O8    O     O_3   0.173250 0.067890 0.537260 -0.490806
O9    O     O_3   0.672100 0.202370 0.454860 -0.502121
O10   O     O_2   0.845346 0.304344 0.506000 -0.438959
O11   O     O_3   0.711380 0.388591 0.417469 -0.614320
O12   O     O_3   0.663280 0.983100 0.563360 -0.466344
O13   O     O_3   0.016420 0.932050 0.462720 -0.497106
O14   O     O_2   0.959730 0.164640 0.549160 -0.435206
O15   O     O_3   0.129828 0.094939 0.636240 -0.609653
O16   O     O_2   0.948898 0.211600 0.326466 -0.512979
O17   O     O_3   0.054334 0.356086 0.348009 -0.642074
O18   O     O_2   0.331753 0.197788 0.169174 -0.606358
O19   O     O_2   0.722799 0.568045 0.775782 -0.606164
O20   O     O_2   0.535313 0.420703 0.229482 -0.573989
O21   O     O_2   0.795217 0.814526 0.822443 -0.578917
O22   O     O_3   0.126250 0.812630 0.574830 -0.482702
O23   O     O_2   0.247580 0.799279 0.672141 -0.454497
O24   O     O_3   0.666762 0.039644 0.645718 -0.674177
O25   O     O_3   0.176063 0.653615 0.648645 -0.572446
O26   O     O_2   0.229950 0.835370 0.450810 -0.432288
O27   O     O_3   0.517580 0.797570 0.545130 -0.457172
O28   O     O_2   0.358085 0.698397 0.493477 -0.474785
P1    P     P_3+3 0.610630 0.953360 0.619150 0.972367
P2    P     P_3+3 0.057260 0.861390 0.437850 1.013309
P3    P     P_3+3 0.506069 0.696529 0.533252 0.968886
P4    P     P_3+3 0.579040 0.046590 0.380840 0.975705
P5    P     P_3+3 0.684270 0.299203 0.472548 0.977287
P6    P     P_3+3 0.116572 0.757268 0.640348 0.980127
P7    P     P_3+3 0.137702 0.142332 0.569401 0.980166
P8    P     P_3+3 0.086283 0.246068 0.360027 0.947219
O29   O     O_3   0.407595 0.792801 0.357819 -0.699779
H44   H     H_    0.395839 0.742209 0.343954 0.305376
C67   C     C_3   0.624383 0.186368 0.629517 -0.260144
H45   H     H_    0.677114 0.201577 0.591772 0.088994
H46   H     H_    0.535646 0.233830 0.626934 0.079589
H47   H     H_    0.724223 0.193454 0.659040 0.152204
O30   O     O_3   0.381774 0.133569 0.699930 -0.722687
H48   H     H_    0.336470 0.112518 0.734269 0.322126
O31   O     O_3   0.607859 0.062819 0.736723 -0.706707
H49   H     H_    0.643059 0.003116 0.745576 0.306148
C68   C     C_3   0.100082 0.088820 0.257981 -0.447555
H50   H     H_    0.229525 0.080526 0.256868 0.168189
H51   H     H_    0.041558 0.104134 0.217788 0.173703
H52   H     H_    0.087799 0.143268 0.273370 0.149374
C69   C     C_3   0.675422 0.429012 0.674609 -0.431386
H53   H     H_    0.724051 0.416588 0.641458 0.145396
H54   H     H_    0.772100 0.462209 0.695056 0.169946
H55   H     H_    0.637435 0.364815 0.701585 0.150665
C70   C     C_3   0.693284 0.334340 0.343496 -0.345541
H56   H     H_    0.605028 0.312806 0.316361 0.093151
H57   H     H_    0.782581 0.380171 0.319646 0.151283
H58   H     H_    0.751568 0.276759 0.368897 0.163325
O32   O     O_3   0.545661 0.524252 0.368026 -0.760537
H59   H     H_    0.655209 0.552041 0.373933 0.322375
O33   O     O_3   0.225704 0.366971 0.419755 -0.790080
H60   H     H_    0.301217 0.404942 0.395586 0.299689
C71   C     C_3   0.138275 0.541323 0.344471 -0.430231
H61   H     H_    0.150290 0.519523 0.310127 0.172310
H62   H     H_    0.082878 0.604503 0.330944 0.129499
H63   H     H_    0.258925 0.552644 0.363588 0.179791
O34   O     O_3   0.651780 0.629770 0.650656 -0.759024
H64   H     H_    0.563797 0.656190 0.660837 0.327088
C72   C     C_3   0.609130 0.139837 0.259438 -0.311190
H65   H     H_    0.560097 0.074444 0.257233 0.123977
H66   H     H_    0.628750 0.182005 0.219757 0.117526
H67   H     H_    0.729919 0.135105 0.280785 0.147259
O35   O     O_3   0.647215 0.564816 0.172708 -0.680416
H68   H     H_    0.694163 0.625493 0.159239 0.295725
O36   O     O_3   0.552274 0.825161 0.733125 -0.690358
H69   H     H_    0.510629 0.881617 0.714364 0.303437
O37   O     O_3   0.795706 0.439534 0.547409 -0.741206
H70   H     H_    0.869356 0.492537 0.537477 0.293665
C73   C     C_3   0.440652 0.484018 0.701948 -0.351877
H71   H     H_    0.525599 0.485105 0.735989 0.192426
H72   H     H_    0.367927 0.540528 0.692801 0.171888
H73   H     H_    0.359000 0.423657 0.713431 0.102198
C74   C     C_3   0.428148 0.544740 0.466474 -0.363626
H74   H     H_    0.336959 0.544066 0.493290 0.131848
H75   H     H_    0.426064 0.606828 0.434572 0.158163
H76   H     H_    0.393182 0.491300 0.449147 0.166069

loop_
_geom_bond_atom_site_label_1
_geom_bond_atom_site_label_2
_ccdc_geom_bond_type
C25   C46   A    
O6    P8    S    
C53   C54   S    
C38   C39   S    
O37   H70   S    
C6    H21   S    
C17   C18   A    
C13   P8    S    
C5    O11   S    
O24   P1    S    
Ba2   O5    S    
C5    C6    S    
C7    O17   S    
O34   H64   S    
Ba2   P4    S    
C24   C40   A    
C35   C36   S    
C4    H17   S    
C11   C16   D    
O1    P1    D    
C5    C70   S    
O4    P4    D    
C69   H53   S    
C16   N1    S    
C47   H33   S    
C28   C29   A    
C12   O3    S    
C70   H57   S    
C32   O21   D    
C23   C69   S    
C31   C47   A    
C10   C20   A    
O13   P2    S    
C22   C37   D    
C54   C55   S    
C34   C45   S    
C58   C60   S    
Ba1   Ba2   S    
C11   H30   S    
C59   C61   A    
C65   O2    S    
O33   H60   S    
Ba1   P1    S    
O3    P3    S    
O26   P2    D    
C15   C72   S    
C56   C64   S    
C70   H58   S    
C5    H19   S    
C17   C41   A    
C14   C15   D    
C22   C36   S    
C45   O29   S    
C7    C8    S    
O25   P6    S    
Ba1   O26   S    
C23   H41   S    
O14   P7    D    
Ba2   O14   S    
C71   H62   S    
C8    H24   S    
C57   C58   D    
C1    H18   S    
C8    C71   S    
C34   H43   S    
C74   H76   S    
C1    H12   S    
C25   C42   A    
C2    H1    S    
Ba2   O4    S    
C56   C67   S    
C31   C32   A    
C19   C43   A    
Ba2   O9    S    
C66   H10   S    
O2    P2    S    
C9    C18   A    
C4    H16   S    
C65   C66   S    
C73   H73   S    
C26   C30   A    
C17   C20   A    
C6    O32   S    
Ba1   O13   S    
C2    H11   S    
C74   H75   S    
C50   C62   A    
O28   P3    D    
C37   C38   D    
C63   P3    S    
C51   C55   S    
O15   P7    S    
C53   P5    S    
C51   C52   D    
C64   H5    S    
O11   P5    S    
C37   P1    S    
O9    P5    S    
C14   P4    S    
C6    H20   S    
C40   C43   A    
C68   H51   S    
C67   H47   S    
C41   C42   A    
C68   H52   S    
C45   H2    S    
O16   P8    D    
C27   C28   A    
Ba1   P2    S    
C3    H13   S    
C29   C30   A    
O10   P5    D    
O12   P1    S    
O17   P8    S    
C15   C16   S    
O8    P7    S    
C7    O33   S    
C65   H6    S    
C44   O35   S    
C61   H38   S    
C1    H8    S    
C64   O31   S    
C45   H3    S    
Ba1   O27   S    
Ba2   O13   S    
C56   O24   S    
C21   H35   S    
C71   H61   S    
C20   C44   A    
C67   H46   S    
C8    H23   S    
C48   H34   S    
C14   C21   D    
O22   P6    S    
C10   O20   D    
C11   C13   S    
C34   H42   S    
O31   H49   S    
C29   C33   A    
C65   H7    S    
C40   C41   A    
C32   N2    Am   
C1    C2    S    
C10   N1    Am   
O32   H59   S    
C58   C74   S    
C52   P7    S    
Ba2   O8    S    
C42   C48   A    
C66   H9    S    
C46   H31   S    
C72   H66   S    
C70   H56   S    
C4    H15   S    
C60   C63   A    
C9    N1    Am   
O5    P4    S    
O27   P3    S    
C39   N2    S    
C74   H74   S    
C23   C73   S    
C9    O18   D    
C7    H22   S    
C27   H28   S    
Ba2   O6    S    
C12   H32   S    
C38   O36   S    
C62   P2    S    
C44   C48   A    
C24   C26   A    
C54   C57   S    
Ba1   O12   S    
C49   C52   S    
C30   C31   A    
C71   H63   S    
C69   H54   S    
C43   H29   S    
C73   H71   S    
C64   O30   S    
C3    H14   S    
C56   H4    S    
C3    C4    S    
C19   H25   S    
C46   C47   A    
C3    O15   S    
C13   C21   S    
C35   H26   S    
C33   N2    Am   
C28   H27   S    
C49   C53   D    
Ba1   O5    S    
C69   H55   S    
C12   C23   S    
C35   C39   D    
C59   C60   A    
C34   O7    S    
C68   H50   S    
Ba1   O8    S    
C36   P6    S    
O23   P6    D    
C2    O25   S    
C61   C62   A    
Ba2   O12   S    
C51   H37   S    
O7    P4    S    
O30   H48   S    
C18   C19   A    
C50   H40   S    
C24   C27   A    
C49   H39   S    
Ba1   O1    S    
Ba1   O22   S    
C25   C26   A    
O29   H44   S    
O36   H69   S    
C57   O37   S    
C67   H45   S    
C22   H36   S    
O35   H68   S    
C66   C68   S    
C33   O19   D    
C72   H67   S    
C12   O34   S    
C50   C63   A    
C72   H65   S    
C73   H72   S    
