data_mof_unit_44948.cif
_audit_creation_date              2012-12-10T17:48:50-0500
_audit_creation_method            fapswitch 2.2
_symmetry_space_group_name_H-M    P1
_symmetry_Int_Tables_number       1
_space_group_crystal_system       triclinic
_cell_length_a                    10.737036
_cell_length_b                    14.697355
_cell_length_c                    14.717841
_cell_angle_alpha                 65.019741
_cell_angle_beta                  103.465772
_cell_angle_gamma                 103.168029
_cell_volume                      2025.21824448

loop_
_atom_site_label
_atom_site_type_symbol
_atom_type_description
_atom_site_fract_x
_atom_site_fract_y
_atom_site_fract_z
_atom_type_partial_charge
C1    C     C_R   0.476466 0.119735 0.312232 0.780198
C2    C     C_3   0.877724 0.000380 0.499598 0.032645
C3    C     C_3   0.913498 0.890921 0.559088 0.171292
C4    C     C_3   0.967581 0.071178 0.550178 -0.350473
C5    C     C_R   0.457666 0.187313 0.204555 -0.070718
C6    C     C_R   0.520334 0.812993 0.795093 -0.107679
C7    C     C_R   0.411841 0.215874 0.026550 -0.174418
C8    C     C_R   0.427092 0.149395 0.128062 -0.167201
C9    C     C_R   0.469666 0.291695 0.178643 -0.245450
C10   C     C_R   0.450286 0.359959 0.077055 0.091853
C11   C     C_R   0.424975 0.320736 0.000525 0.150066
C12   C     C_R   0.259924 0.000579 0.499360 0.787309
C13   C     C_R   0.459984 0.466212 0.049690 0.072359
C14   C     C_R   0.460525 0.532903 0.946344 0.095797
C15   C     C_R   0.432676 0.490644 0.871997 -0.205495
C16   C     C_R   0.413866 0.386500 0.898890 -0.221521
C17   C     C_R   0.466441 0.507677 0.121914 -0.232018
C18   C     C_R   0.481867 0.611615 0.094982 -0.131273
C19   C     C_R   0.494264 0.678951 0.995397 0.070160
C20   C     C_R   0.485742 0.639645 0.920522 0.039127
C21   C     C_R   0.514457 0.785054 0.968616 0.393374
C22   C     C_R   0.525987 0.851082 0.868654 -0.212778
C23   C     C_R   0.520260 0.880295 0.687786 0.867951
C24   C     C_R   0.504826 0.708482 0.822164 -0.211788
C25   C     C_R   0.716527 0.286036 0.667560 -0.301884
C26   C     C_R   0.682783 0.203930 0.638447 0.080190
C27   C     C_R   0.518802 0.285089 0.508837 0.010569
C28   C     C_R   0.548998 0.371781 0.534189 -0.020575
C29   C     C_R   0.649697 0.369822 0.616211 0.153555
C30   C     C_R   0.483031 0.459089 0.482335 0.088666
C31   C     C_R   0.517873 0.542056 0.514972 0.099722
C32   C     C_R   0.618037 0.534988 0.598168 -0.228204
C33   C     C_R   0.682650 0.450972 0.647038 -0.184857
C34   C     C_R   0.740006 0.999152 0.501266 0.851838
C35   C     C_R   0.383960 0.466390 0.398767 -0.265014
C36   C     C_R   0.319736 0.550476 0.349364 -0.137445
C37   C     C_R   0.351045 0.631889 0.380353 0.073805
C38   C     C_R   0.451271 0.629158 0.463350 -0.065245
C39   C     C_R   0.284407 0.716745 0.329336 0.283302
C40   C     C_R   0.318209 0.797438 0.360675 0.036433
C41   C     C_R   0.480823 0.714852 0.490242 -0.015449
C42   C     C_3   0.048238 0.043361 0.386100 -0.023291
C43   C     C_3   0.901584 0.036967 0.387593 -0.063947
C44   C     C_3   0.057516 0.892134 0.559003 -0.384802
C45   C     C_3   0.109932 0.070735 0.549922 -0.427686
C46   C     C_3   0.121552 0.001113 0.497736 0.054893
Cu1   Cu    Cu3+1 0.465900 0.918260 0.475680 0.953158
Cu2   Cu    Cu3+1 0.534100 0.081740 0.524320 0.941388
H1    H     H_    0.951159 0.045980 0.629684 0.217442
H2    H     H_    0.110758 0.864844 0.637953 0.208676
H3    H     H_    0.392586 0.357368 0.839575 0.150824
H4    H     H_    0.509691 0.682611 0.764882 0.161231
H5    H     H_    0.537704 0.932166 0.848352 0.185770
H6    H     H_    0.485193 0.638436 0.153733 0.206731
H7    H     H_    0.390814 0.185395 0.968299 0.152583
H8    H     H_    0.416870 0.068752 0.146562 0.184811
H9    H     H_    0.498336 0.318463 0.239219 0.154767
H10   H     H_    0.091282 0.124483 0.350507 0.170961
H11   H     H_    0.420310 0.535852 0.791661 0.144596
H12   H     H_    0.455217 0.461544 0.199874 0.139942
H13   H     H_    0.759189 0.449361 0.710254 0.156543
H14   H     H_    0.557024 0.720395 0.550511 0.150434
H15   H     H_    0.268581 0.863104 0.321289 0.157836
H16   H     H_    0.244723 0.550826 0.285803 0.201724
H17   H     H_    0.793992 0.283795 0.730299 0.146917
H18   H     H_    0.733652 0.138937 0.678476 0.136458
H19   H     H_    0.441873 0.278772 0.449261 0.119406
H20   H     H_    0.649466 0.593385 0.627899 0.153887
H21   H     H_    0.353497 0.408096 0.368842 0.126672
H22   H     H_    0.843993 0.979121 0.357949 0.183582
H23   H     H_    0.065126 0.838016 0.526587 0.165564
H24   H     H_    0.854235 0.840508 0.520910 0.124669
H25   H     H_    0.161546 0.043847 0.629462 0.202355
H26   H     H_    0.155606 0.149956 0.509501 0.175398
H27   H     H_    0.945778 0.150286 0.510086 0.180536
N1    N     N_R   0.585360 0.204570 0.560800 -0.180726
N2    N     N_R   0.414550 0.795430 0.439160 -0.208165
O1    O     O_R   0.455060 0.022100 0.338110 -0.584978
O2    O     O_R   0.512640 0.160150 0.379180 -0.590098
O3    O     O_R   0.288900 0.930980 0.479450 -0.583669
O4    O     O_R   0.346480 0.069030 0.520520 -0.596911
O5    O     O_R   0.487360 0.839850 0.620820 -0.583545
O6    O     O_R   0.544940 0.977900 0.661890 -0.587268
O7    O     O_R   0.653520 0.930970 0.479480 -0.583822
O8    O     O_R   0.711100 0.069020 0.520550 -0.585212
C47   C     C_3   0.065540 0.992766 0.317762 -0.852451
H28   H     H_    0.037575 0.909261 0.351699 0.250619
H29   H     H_    0.004071 0.022874 0.242629 0.251144
H30   H     H_    0.167038 0.011040 0.303391 0.238161
Cl1   Cl    Cl    0.878033 0.835101 0.686676 -0.648105
Cl2   Cl    Cl    0.523268 0.839225 0.056926 -0.611352
C48   C     C_3   0.853014 0.138321 0.314799 -0.857503
H31   H     H_    0.747389 0.132644 0.311196 0.232934
H32   H     H_    0.904016 0.201564 0.338019 0.239432
H33   H     H_    0.870445 0.157347 0.236875 0.247126
Cl3   Cl    Cl    0.159266 0.726486 0.225408 -0.596363

loop_
_geom_bond_atom_site_label_1
_geom_bond_atom_site_label_2
_ccdc_geom_bond_type
C24   H4    S    
C23   O5    A    
Cu2   N1    S    
C19   C20   A    
C16   H3    S    
C7    H7    S    
C8    H8    S    
C7    C8    A    
C45   C46   S    
C7    C11   A    
C40   H15   S    
C23   O6    A    
C30   C35   A    
C3    Cl1   S    
C1    C5    S    
Cu1   O3    S    
Cu2   O2    S    
C36   C37   A    
C19   C21   A    
C41   N2    A    
C30   C31   A    
C47   H29   S    
C15   C16   A    
C6    C22   A    
C29   C33   A    
Cu2   O4    S    
C44   H23   S    
C45   H25   S    
C18   C19   A    
C42   C46   S    
Cu1   O5    S    
C20   C24   A    
C4    H27   S    
Cu1   Cu2   S    
C26   N1    A    
C42   C47   S    
C13   C14   A    
C9    C10   A    
C32   H20   S    
C2    C34   S    
C21   C22   A    
C1    O1    A    
C42   H10   S    
C34   O7    A    
C41   H14   S    
C44   C46   S    
C22   H5    S    
C4    C45   S    
C25   C29   A    
C3    C44   S    
C26   H18   S    
C14   C20   A    
C25   H17   S    
C38   C41   A    
C12   C46   S    
C39   C40   A    
C47   H28   S    
C25   C26   A    
C10   C13   A    
C48   H33   S    
C45   H26   S    
C34   O8    A    
C2    C4    S    
C5    C9    A    
C37   C38   A    
C11   C16   A    
C31   C32   A    
C14   C15   A    
C2    C43   S    
C6    C24   A    
C48   H32   S    
C17   C18   A    
Cu1   O7    S    
C43   H22   S    
C1    O2    A    
C42   C43   S    
Cu1   N2    S    
C27   N1    A    
C21   Cl2   S    
C44   H2    S    
C28   C29   A    
C40   N2    A    
C15   H11   S    
C47   H30   S    
C5    C8    A    
Cu2   O6    S    
C43   C48   S    
C31   C38   A    
C13   C17   A    
C4    H1    S    
C32   C33   A    
C28   C30   A    
C2    C3    S    
C37   C39   A    
C6    C23   S    
C12   O3    A    
C48   H31   S    
C12   O4    A    
C3    H24   S    
C9    H9    S    
C39   Cl3   S    
C27   H19   S    
C10   C11   A    
C18   H6    S    
C17   H12   S    
C35   H21   S    
C33   H13   S    
C27   C28   A    
Cu2   O8    S    
C35   C36   A    
Cu1   O1    S    
C36   H16   S    
