data_mof_unit_55547.cif
_audit_creation_date              2012-10-26T18:43:29-0400
_audit_creation_method            fapswitch 2.2
_symmetry_space_group_name_H-M    P1
_symmetry_Int_Tables_number       1
_space_group_crystal_system       triclinic
_cell_length_a                    10.745525
_cell_length_b                    10.810843
_cell_length_c                    9.53857
_cell_angle_alpha                 89.919735
_cell_angle_beta                  89.804341
_cell_angle_gamma                 90.283129
_cell_volume                      1108.05724883

loop_
_atom_site_label
_atom_site_type_symbol
_atom_type_description
_atom_site_fract_x
_atom_site_fract_y
_atom_site_fract_z
_atom_type_partial_charge
C1    C     C_R   0.502533 0.262302 0.500005 0.540890
C2    C     C_R   0.520811 0.936229 0.625236 0.014701
C3    C     C_3   0.437976 0.928837 0.751099 -0.266361
C4    C     C_R   0.260001 0.501742 0.500360 0.543835
C5    C     C_3   0.437985 0.069288 0.751342 -0.274880
C6    C     C_R   0.546756 0.598824 0.073302 0.159987
C7    C     C_R   0.441775 0.409000 0.074814 -0.021326
C8    C     C_R   0.441640 0.409081 0.925895 -0.020109
C9    C     C_R   0.546660 0.598859 0.925911 0.159601
C10   C     C_3   0.676211 0.648257 0.919257 -0.282855
C11   C     C_3   0.676529 0.647676 0.078319 -0.283256
C12   C     C_3   0.878645 0.495770 0.498943 0.054306
C13   C     C_R   0.502823 0.737699 0.499843 0.546439
C14   C     C_R   0.740291 0.498073 0.499825 0.536801
C15   C     C_3   0.070744 0.531046 0.648852 -0.238055
C16   C     C_3   0.928218 0.533926 0.646110 -0.247903
C17   C     C_3   0.072294 0.597836 0.396246 -0.238075
C18   C     C_3   0.075285 0.370727 0.456847 -0.211136
C19   C     C_3   0.122389 0.500512 0.500946 0.039351
C20   C     C_3   0.875443 0.300306 0.332950 -0.265398
C21   C     C_3   0.915053 0.164228 0.319766 -0.315398
C22   C     C_3   0.859538 0.104602 0.189015 -0.452011
C23   C     C_3   0.929339 0.591737 0.391261 -0.230763
C24   C     C_3   0.930806 0.363257 0.465430 -0.108944
C25   C     C_R   0.520747 0.063506 0.625364 0.021354
C26   C     C_R   0.515809 0.129308 0.499551 0.005188
C27   C     C_R   0.529265 0.064791 0.372540 -0.172906
C28   C     C_R   0.529776 0.935901 0.372430 -0.169434
C29   C     C_R   0.516209 0.870803 0.499333 0.003649
Cu1   Cu    Cu3+1 0.499990 0.499980 0.640670 0.918127
Cu2   Cu    Cu3+1 0.500010 0.500020 0.359330 0.908448
H1    H     H_    0.106885 0.622337 0.684719 0.121147
H2    H     H_    0.396466 0.334188 0.130792 0.110610
H3    H     H_    0.101595 0.460068 0.725838 0.125666
H4    H     H_    0.395960 0.334559 0.870486 0.108776
H5    H     H_    0.742795 0.581224 0.873631 0.143039
H6    H     H_    0.680342 0.742765 0.873403 0.119028
H7    H     H_    0.742595 0.579556 0.122436 0.140946
H8    H     H_    0.681504 0.741799 0.124748 0.114274
H9    H     H_    0.892266 0.469626 0.728199 0.118216
H10   H     H_    0.895738 0.628675 0.672991 0.117046
H11   H     H_    0.102740 0.692156 0.428447 0.108637
H12   H     H_    0.109935 0.581081 0.289107 0.130187
H13   H     H_    0.890513 0.684938 0.413832 0.108128
H14   H     H_    0.108891 0.351818 0.348471 0.125631
H15   H     H_    0.116045 0.298625 0.526128 0.091352
H16   H     H_    0.905690 0.302719 0.556010 0.121292
H17   H     H_    0.756391 0.108656 0.192467 0.152457
H18   H     H_    0.893472 0.152940 0.093309 0.146103
H19   H     H_    0.887950 0.006101 0.183486 0.137653
H20   H     H_    0.017920 0.156777 0.313388 0.156475
H21   H     H_    0.882704 0.111800 0.413530 0.158565
H22   H     H_    0.772467 0.299809 0.339111 0.184386
H23   H     H_    0.900277 0.566456 0.283604 0.116015
H24   H     H_    0.903783 0.352061 0.237185 0.145634
H25   H     H_    0.532745 0.113114 0.273060 0.123577
H26   H     H_    0.533957 0.888004 0.272892 0.128087
H27   H     H_    0.345409 0.887577 0.727328 0.133984
H28   H     H_    0.486136 0.888433 0.843259 0.130941
H29   H     H_    0.345397 0.109806 0.727890 0.125320
H30   H     H_    0.486365 0.109594 0.843563 0.127142
N1    N     N_R   0.500800 0.500930 0.147930 -0.229853
N2    N     N_R   0.500800 0.500890 0.852020 -0.229169
O1    O     O_R   0.500000 0.319640 0.618810 -0.503034
O2    O     O_R   0.500010 0.319680 0.381230 -0.520562
O3    O     O_R   0.317690 0.499960 0.618790 -0.508538
O4    O     O_R   0.317700 0.500000 0.381210 -0.506477
O5    O     O_R   0.499990 0.680320 0.618770 -0.497297
O6    O     O_R   0.500000 0.680360 0.381190 -0.503954
O7    O     O_R   0.682300 0.500000 0.618790 -0.508906
O8    O     O_R   0.682310 0.500040 0.381210 -0.516391

loop_
_geom_bond_atom_site_label_1
_geom_bond_atom_site_label_2
_ccdc_geom_bond_type
C9    N2    A    
C11   H7    S    
C22   H17   S    
C17   H12   S    
C7    N1    A    
C15   H1    S    
C3    H27   S    
Cu1   O1    S    
C4    O4    A    
C7    H2    S    
C14   O8    A    
C12   C24   S    
C6    C11   S    
C1    O2    A    
C12   C23   S    
Cu2   O6    S    
C22   H19   S    
C6    N1    A    
C6    C9    A    
Cu2   O8    S    
C2    C3    S    
C3    C5    S    
C5    H30   S    
C7    C8    A    
C17   C23   S    
C21   C22   S    
C11   H8    S    
C14   O7    A    
Cu2   N1    S    
C26   C27   A    
Cu1   O3    S    
C13   O6    A    
C16   H9    S    
C22   H18   S    
C5    C25   S    
C18   H15   S    
C13   C29   S    
C28   C29   A    
C17   C19   S    
C12   C14   S    
C15   C19   S    
C2    C25   A    
C10   H6    S    
C17   H11   S    
Cu1   Cu2   S    
C18   C24   S    
C1    C26   S    
C20   H24   S    
C10   C11   S    
Cu2   O4    S    
C8    N2    A    
C24   H16   S    
C15   C16   S    
C18   H14   S    
C20   C24   S    
C21   H20   S    
C2    C29   A    
C20   C21   S    
C4    O3    A    
C23   H23   S    
C18   C19   S    
C9    C10   S    
C1    O1    A    
C27   C28   A    
Cu2   O2    S    
C27   H25   S    
C10   H5    S    
C15   H3    S    
C5    H29   S    
Cu1   O7    S    
C25   C26   A    
Cu1   N2    S    
C4    C19   S    
C16   H10   S    
C8    H4    S    
C21   H21   S    
Cu1   O5    S    
C28   H26   S    
C12   C16   S    
C20   H22   S    
C23   H13   S    
C13   O5    A    
C3    H28   S    
