data_mof_unit_17739.cif
_audit_creation_date              2012-12-10T19:05:43-0500
_audit_creation_method            fapswitch 2.2
_symmetry_space_group_name_H-M    P1
_symmetry_Int_Tables_number       1
_space_group_crystal_system       triclinic
_cell_length_a                    10.513437
_cell_length_b                    13.059506
_cell_length_c                    13.628947
_cell_angle_alpha                 85.890802
_cell_angle_beta                  90.319763
_cell_angle_gamma                 91.965857
_cell_volume                      1865.34030835

loop_
_atom_site_label
_atom_site_type_symbol
_atom_type_description
_atom_site_fract_x
_atom_site_fract_y
_atom_site_fract_z
_atom_type_partial_charge
C1    C     C_R   0.498177 0.481357 0.685010 0.912117
C2    C     C_3   0.040026 0.598085 0.490386 0.451543
C3    C     C_3   0.043495 0.455817 0.583697 0.418835
C4    C     C_3   0.956506 0.544182 0.416307 0.418818
C5    C     C_3   0.122984 0.503589 0.497171 -0.217356
C6    C     C_3   0.877016 0.496410 0.502834 -0.217351
C7    C     C_3   0.039388 0.448671 0.421650 -0.515818
C8    C     C_3   0.960612 0.551327 0.578356 -0.515852
C9    C     C_1   0.506200 0.533381 0.212128 -0.146714
C10   C     C_1   0.493781 0.466620 0.787871 -0.146714
C11   C     C_2   0.512765 0.544779 0.019877 0.397979
C12   C     C_R   0.501819 0.518643 0.314990 0.912130
C13   C     C_2   0.487209 0.455222 0.980121 0.397966
C14   C     C_1   0.490048 0.457558 0.875101 -0.102355
C15   C     C_1   0.509924 0.542443 0.124898 -0.102343
C16   C     C_3   0.010403 0.382454 0.740625 0.123550
C17   C     C_3   0.073526 0.324337 0.827401 -0.840222
C18   C     C_3   0.989614 0.617584 0.259396 0.123623
C19   C     C_3   0.926452 0.675566 0.172557 -0.840402
C20   C     C_3   0.006259 0.230763 0.510325 0.129569
C21   C     C_3   0.968279 0.126840 0.560860 -0.848020
C22   C     C_3   0.993743 0.769235 0.489688 0.129509
C23   C     C_2   0.473174 0.033015 0.465511 0.323852
C24   C     C_3   0.031738 0.873168 0.439181 -0.848028
C25   C     C_3   0.435309 0.278433 0.988437 0.119051
C26   C     C_3   0.404726 0.186976 0.060781 -0.832656
C27   C     C_3   0.565068 0.721505 0.011577 0.119079
C28   C     C_3   0.595761 0.812941 0.939234 -0.832697
C29   C     C_3   0.662738 0.943137 0.669971 0.103048
C30   C     C_3   0.721333 0.998667 0.754491 -0.819057
C31   C     C_3   0.337262 0.056865 0.330028 0.103059
C32   C     C_3   0.278668 0.001336 0.245507 -0.819027
C33   C     C_2   0.526826 0.966985 0.534489 0.323863
C34   C     C_1   0.522910 0.854300 0.522294 0.057298
C35   C     C_1   0.477090 0.145700 0.477706 0.057289
C36   C     C_R   0.742727 0.498454 0.502015 0.968955
C37   C     C_R   0.257273 0.501545 0.497987 0.968961
C38   C     C_3   0.959974 0.401915 0.509619 0.451571
H1    H     H_    0.932875 0.332026 0.712621 0.171665
H2    H     H_    0.850016 0.626432 0.141687 0.258173
H3    H     H_    0.099384 0.255281 0.542273 0.172918
H4    H     H_    0.018646 0.222033 0.430404 0.142540
H5    H     H_    0.876379 0.098231 0.530766 0.270479
H6    H     H_    0.042970 0.071043 0.548913 0.205376
H7    H     H_    0.958701 0.133875 0.641140 0.253277
H8    H     H_    0.981339 0.777946 0.569610 0.142559
H9    H     H_    0.900625 0.744727 0.457721 0.172908
H10   H     H_    0.041329 0.866153 0.358899 0.253264
H11   H     H_    0.957047 0.928964 0.451133 0.205379
H12   H     H_    0.969021 0.452652 0.767250 0.141948
H13   H     H_    0.123633 0.901765 0.469290 0.270488
H14   H     H_    0.076247 0.408177 0.359370 0.166818
H15   H     H_    0.923752 0.591817 0.640637 0.166796
H16   H     H_    0.520920 0.261025 0.945681 0.149115
H17   H     H_    0.352180 0.289304 0.938251 0.149949
H18   H     H_    0.319205 0.202008 0.104287 0.255430
H19   H     H_    0.385602 0.117234 0.020266 0.206927
H20   H     H_    0.486299 0.173221 0.111605 0.262673
H21   H     H_    0.648295 0.710432 0.061630 0.149865
H22   H     H_    0.479644 0.739073 0.054477 0.149210
H23   H     H_    0.150095 0.373348 0.858262 0.258237
H24   H     H_    0.514068 0.826932 0.888576 0.262649
H25   H     H_    0.615309 0.882615 0.979765 0.206932
H26   H     H_    0.681059 0.797724 0.895546 0.255435
H27   H     H_    0.740811 0.923487 0.620362 0.128627
H28   H     H_    0.613009 0.871756 0.701544 0.154913
H29   H     H_    0.646474 0.014110 0.808159 0.257057
H30   H     H_    0.794406 0.950581 0.792332 0.202288
H31   H     H_    0.766748 0.072851 0.726334 0.264921
H32   H     H_    0.386992 0.128246 0.298456 0.154900
H33   H     H_    0.259189 0.076514 0.379637 0.128635
H34   H     H_    0.001965 0.302955 0.885574 0.208914
H35   H     H_    0.233256 0.927151 0.273662 0.264914
H36   H     H_    0.205594 0.049422 0.207667 0.202262
H37   H     H_    0.353529 0.985895 0.191838 0.257069
H38   H     H_    0.115279 0.253308 0.803319 0.255544
H39   H     H_    0.031152 0.547418 0.232832 0.141932
H40   H     H_    0.067027 0.668120 0.287400 0.171724
H41   H     H_    0.884520 0.746552 0.196576 0.255563
H42   H     H_    0.998031 0.697008 0.114413 0.208960
N1    N     N_1   0.479750 0.234530 0.484780 -0.088519
N2    N     N_1   0.520250 0.765470 0.515220 -0.088518
O1    O     O_R   0.492590 0.402510 0.634760 -0.607317
O2    O     O_3   0.897367 0.591085 0.332286 -0.608301
O3    O     O_3   0.909379 0.300575 0.524039 -0.592931
O4    O     O_3   0.090623 0.699424 0.475970 -0.592946
O5    O     O_3   0.458808 0.366447 0.041182 -0.629298
O6    O     O_3   0.541117 0.633561 0.958813 -0.629281
O7    O     O_3   0.576167 0.008261 0.619129 -0.626045
O8    O     O_3   0.423833 0.991739 0.380870 -0.626050
O9    O     O_R   0.507410 0.597490 0.365240 -0.607314
O10   O     O_R   0.505590 0.572960 0.644530 -0.608209
O11   O     O_R   0.494410 0.427040 0.355470 -0.608217
O12   O     O_R   0.679550 0.414790 0.495140 -0.576871
O13   O     O_R   0.320450 0.585210 0.504860 -0.576865
O14   O     O_R   0.692550 0.585240 0.504910 -0.630905
O15   O     O_R   0.307450 0.414760 0.495090 -0.630902
O16   O     O_3   0.102636 0.408903 0.667712 -0.608290
Zn1   Zn    Zn3+2 0.491320 0.386190 0.493470 1.005245
Zn2   Zn    Zn3+2 0.508680 0.613810 0.506530 1.005250

loop_
_geom_bond_atom_site_label_1
_geom_bond_atom_site_label_2
_ccdc_geom_bond_type
C5    C37   S    
C12   O9    A    
C32   H37   S    
C37   O15   A    
C20   H3    S    
C35   N1    T    
C16   H12   S    
C7    H14   S    
C27   H22   S    
C32   H36   S    
C25   O5    S    
C37   O13   A    
C18   C19   S    
C17   H23   S    
C21   H5    S    
C11   C15   S    
C31   H32   S    
C3    C38   S    
C16   C17   S    
C23   C33   D    
C17   H38   S    
C18   O2    S    
C6    C38   S    
O9    Zn2   S    
O11   Zn1   S    
C30   H29   S    
C24   H13   S    
C31   H33   S    
C22   H9    S    
O1    Zn1   S    
C13   C14   S    
C19   H42   S    
C4    C7    S    
C29   O7    S    
O15   Zn1   S    
C21   H7    S    
C19   H2    S    
C38   O3    S    
C24   H10   S    
C25   H16   S    
C4    C6    S    
C3    C8    S    
C10   C14   T    
C32   H35   S    
C5    C7    S    
O13   Zn2   S    
C6    C8    S    
N1    Zn1   S    
C25   C26   S    
C2    C4    S    
C29   C30   S    
C33   O7    S    
C21   H6    S    
C36   O14   A    
C31   C32   S    
C4    O2    S    
C11   O6    S    
C18   H40   S    
C31   O8    S    
C20   O3    S    
C13   O5    S    
C33   C34   S    
C23   O8    S    
C19   H41   S    
C26   H20   S    
C29   H27   S    
C28   H26   S    
C22   H8    S    
C1    O10   A    
C23   C35   S    
C22   C24   S    
C12   O11   A    
C2    C5    S    
C30   H31   S    
O10   Zn2   S    
C24   H11   S    
N2    Zn2   S    
C2    C8    S    
C1    C10   S    
C25   H17   S    
C3    C5    S    
C26   H18   S    
C8    H15   S    
C20   H4    S    
C1    O1    A    
C9    C15   T    
C27   H21   S    
C11   C13   D    
C3    O16   S    
C16   O16   S    
O12   Zn1   S    
C18   H39   S    
O14   Zn2   S    
C7    C38   S    
C6    C36   S    
C2    O4    S    
C22   O4    S    
C27   O6    S    
C26   H19   S    
C9    C12   S    
C16   H1    S    
C29   H28   S    
C28   H25   S    
C36   O12   A    
C20   C21   S    
C17   H34   S    
C27   C28   S    
C34   N2    T    
C30   H30   S    
C28   H24   S    
