data_mof_unit_18616.cif
_audit_creation_date              2013-03-05T16:36:15-0500
_audit_creation_method            fapswitch 2.2
_symmetry_space_group_name_H-M    P1
_symmetry_Int_Tables_number       1
_space_group_crystal_system       triclinic
_cell_length_a                    27.81484
_cell_length_b                    9.165422
_cell_length_c                    7.770397
_cell_angle_alpha                 89.978818
_cell_angle_beta                  89.88858
_cell_angle_gamma                 90.156274
_cell_volume                      1980.93293587

loop_
_atom_site_label
_atom_site_type_symbol
_atom_site_description
_atom_site_fract_x
_atom_site_fract_y
_atom_site_fract_z
_atom_type_partial_charge
O1    O     O_R   0.500000 0.288390 0.642760 -0.579820
O2    O     O_R   0.500000 0.711610 0.357240 -0.580066
O3    O     O_R   0.500000 0.711610 0.642760 -0.583611
O4    O     O_R   0.500000 0.288390 0.357240 -0.583526
C1    C     C_R   0.499993 0.219850 0.500020 0.823112
C2    C     C_R   0.500007 0.780150 0.499980 0.823415
O5    O     O_R   0.430260 0.500000 0.642770 -0.530792
O6    O     O_R   0.569740 0.500000 0.357230 -0.530688
O7    O     O_R   0.569740 0.500000 0.642770 -0.530550
O8    O     O_R   0.430260 0.500000 0.357230 -0.530673
C3    C     C_R   0.407022 0.499367 0.500295 0.948927
C4    C     C_R   0.592981 0.500152 0.499906 0.948690
Cu1   Cu    Cu3+1 0.500000 0.500000 0.669080 1.124616
Cu2   Cu    Cu3+1 0.500000 0.500000 0.330920 1.124555
C5    C     C_R   0.177240 0.363770 0.473761 0.713258
C6    C     C_R   0.823680 0.625035 0.473564 0.746297
C7    C     C_R   0.177517 0.614891 0.554645 0.707833
C8    C     C_R   0.822077 0.370487 0.537704 0.700679
O9    O     O_2   0.202737 0.246720 0.422076 -0.452481
O10   O     O_2   0.798903 0.748765 0.443474 -0.392899
O11   O     O_2   0.202986 0.738853 0.577712 -0.461213
O12   O     O_2   0.796106 0.246427 0.551300 -0.440971
N1    N     N_R   0.201173 0.490101 0.510875 -0.400295
N2    N     N_R   0.798986 0.498450 0.503250 -0.418559
C9    C     C_R   0.278434 0.477759 0.660317 0.562569
C10   C     C_R   0.721879 0.487519 0.656405 0.572617
C11   C     C_R   0.277247 0.507792 0.350583 0.588717
C12   C     C_R   0.722491 0.513085 0.346062 0.583919
C13   C     C_R   0.328533 0.480318 0.658572 0.495190
C14   C     C_R   0.671756 0.487477 0.656265 0.495097
C15   C     C_R   0.327453 0.510596 0.347563 0.488657
C16   C     C_R   0.672295 0.513351 0.344745 0.491283
C17   C     C_R   0.252710 0.491438 0.506811 -0.129184
C18   C     C_R   0.747386 0.500120 0.501683 -0.142011
C19   C     C_R   0.101477 0.486842 0.527014 -0.146837
C20   C     C_R   0.898771 0.495432 0.515616 -0.177947
C21   C     C_R   0.126529 0.357459 0.485405 -0.146796
C22   C     C_R   0.874435 0.626203 0.474890 -0.098873
C23   C     C_R   0.127018 0.615361 0.568942 -0.154322
C24   C     C_R   0.872526 0.367439 0.553932 -0.147337
C25   C     C_R   0.099957 0.228948 0.448038 0.299296
C26   C     C_R   0.901292 0.752957 0.434366 0.334330
C27   C     C_R   0.101231 0.740165 0.623649 0.318129
C28   C     C_R   0.897496 0.241209 0.608999 0.289520
C29   C     C_R   0.353791 0.496962 0.501903 -0.528170
C30   C     C_R   0.646223 0.500337 0.500151 -0.529022
C31   C     C_R   0.974059 0.359142 0.536838 0.023604
C32   C     C_R   0.025872 0.621754 0.540475 0.016315
C33   C     C_R   0.975813 0.623637 0.503822 0.047179
C34   C     C_R   0.024603 0.357243 0.506240 0.015515
C35   C     C_R   0.949486 0.492851 0.519639 -0.092752
C36   C     C_R   0.050702 0.488275 0.526076 -0.099833
C37   C     C_R   0.948147 0.235694 0.595646 0.435757
C38   C     C_R   0.050892 0.745648 0.601947 0.459377
C39   C     C_R   0.952215 0.748236 0.439869 0.352401
C40   C     C_R   0.049218 0.232008 0.448298 0.441353
C41   C     C_1   0.499997 0.065211 0.500027 -0.114569
C42   C     C_1   0.500002 0.934789 0.499973 -0.114735
N3    N     N_1   0.500000 0.500000 0.076820 0.008263
N4    N     N_1   0.500000 0.500000 0.923180 0.008802
F1    F     F_    0.350023 0.527841 0.193779 -0.513456
F2    F     F_    0.649479 0.526871 0.191310 -0.512550
F3    F     F_    0.352045 0.465374 0.810519 -0.514762
F4    F     F_    0.648493 0.473874 0.809213 -0.513348
F5    F     F_    0.252305 0.522020 0.201591 -0.512374
F6    F     F_    0.747068 0.524447 0.195585 -0.511208
F7    F     F_    0.254659 0.461458 0.811865 -0.518390
F8    F     F_    0.745869 0.475510 0.807667 -0.518055
O13   O     O_3   0.122311 0.098684 0.411652 -0.657132
H1    H     H_    0.144050 0.078143 0.509491 0.403183
O14   O     O_3   0.877459 0.879141 0.387999 -0.618133
H2    H     H_    0.898608 0.964291 0.409002 0.361218
O15   O     O_3   0.123712 0.854885 0.705720 -0.701270
H3    H     H_    0.146671 0.812973 0.789592 0.380527
O16   O     O_3   0.873789 0.125068 0.684176 -0.676025
H4    H     H_    0.850165 0.165551 0.766934 0.384348
O17   O     O_3   0.973548 0.119272 0.661708 -0.663979
H5    H     H_    0.951399 0.039420 0.694927 0.393837
O18   O     O_3   0.024634 0.863088 0.661019 -0.660254
H6    H     H_    0.046384 0.943831 0.694303 0.399683
O19   O     O_3   0.979721 0.855209 0.362942 -0.671585
H7    H     H_    0.961289 0.898575 0.266740 0.347841
O20   O     O_3   0.022869 0.118919 0.378426 -0.654898
H8    H     H_    0.044543 0.050154 0.318331 0.396045

loop_
_geom_bond_atom_site_label_1
_geom_bond_atom_site_label_2
_geom_bond_distance
_ccdc_geom_bond_type
C27   O15   1.379037 S    
O5    Cu1   1.950946 S    
C13   F3    1.357886 S    
C15   F1    1.357728 S    
C14   F4    1.357611 S    
O15   H3    0.991391 S    
C2    C42   1.417327 S    
C19   C23   1.412428 A    
C9    F7    1.357446 S    
O3    C2    1.274757 A    
O19   H7    0.990962 S    
Cu1   N4    1.974457 S    
O17   H5    0.989249 S    
C11   C17   1.399293 A    
C32   C38   1.413955 A    
Cu2   N3    1.974457 S    
C7    N1    1.363938 A    
O1    C1    1.274896 A    
C19   C21   1.414295 A    
C22   C26   1.414560 A    
C32   C36   1.410884 A    
C7    C23   1.408825 A    
O7    Cu1   1.950152 S    
C5    C21   1.414274 A    
C8    C24   1.409484 A    
C5    O9    1.348534 S    
C28   C37   1.413504 A    
C10   C18   1.399358 A    
N1    C17   1.433790 S    
C34   C36   1.410273 A    
C39   O19   1.377540 S    
C34   C40   1.411539 A    
O3    Cu1   1.950173 S    
C6    O10   1.349193 S    
C31   C37   1.415043 A    
C5    N1    1.365208 A    
C12   C18   1.399817 A    
N3    N4    1.193845 T    
C6    N2    1.365965 A    
Cu1   Cu2   2.627638 S    
C21   C25   1.419242 A    
O2    C2    1.274897 A    
O5    C3    1.283051 A    
C31   C34   1.425537 A    
C9    C13   1.393644 A    
C11   C15   1.396806 A    
C20   C24   1.411366 A    
C4    C30   1.480908 S    
O8    Cu2   1.950155 S    
C23   C27   1.416792 A    
C33   C35   1.408190 A    
C33   C39   1.409572 A    
C7    O11   1.349470 S    
C13   C29   1.412389 A    
C28   O16   1.379630 S    
C12   F6    1.357115 S    
O16   H4    0.991397 S    
C25   C40   1.411661 A    
C11   F5    1.357254 S    
C26   C39   1.417927 A    
C27   C38   1.411649 A    
O20   H8    0.989905 S    
C12   C16   1.396268 A    
O6    C4    1.284448 A    
C20   C35   1.411316 A    
C32   C33   1.421902 A    
C10   C14   1.394181 A    
C37   O17   1.380735 S    
C8    N2    1.365378 A    
C3    C29   1.480741 S    
O1    Cu1   1.950324 S    
C40   O20   1.379879 S    
C25   O13   1.376804 S    
C38   O18   1.380600 S    
O6    Cu2   1.950943 S    
C8    O12   1.349455 S    
C16   C30   1.412214 A    
C14   C30   1.411912 A    
O4    C1    1.274759 A    
C31   C35   1.411255 A    
C1    C41   1.417324 S    
C10   F8    1.357277 S    
C20   C22   1.414174 A    
C16   F2    1.357496 S    
O14   H2    0.989808 S    
C41   C42   1.195382 T    
C26   O14   1.382612 S    
O4    Cu2   1.950174 S    
O13   H1    0.990625 S    
O2    Cu2   1.950323 S    
O7    C4    1.283531 A    
N2    C18   1.435450 S    
O8    C3    1.284833 A    
O18   H6    0.989376 S    
C24   C28   1.417461 A    
C15   C29   1.412230 A    
C9    C17   1.397919 A    
C19   C36   1.412437 A    
C6    C22   1.411814 A    
