data_mof_unit_5416.cif
_audit_creation_date              2012-12-10T20:38:21-0500
_audit_creation_method            fapswitch 2.2
_symmetry_space_group_name_H-M    P1
_symmetry_Int_Tables_number       1
_space_group_crystal_system       triclinic
_cell_length_a                    9.837308
_cell_length_b                    10.74199
_cell_length_c                    16.725294
_cell_angle_alpha                 90.5666
_cell_angle_beta                  84.869244
_cell_angle_gamma                 90.266659
_cell_volume                      1760.21939394

loop_
_atom_site_label
_atom_site_type_symbol
_atom_type_description
_atom_site_fract_x
_atom_site_fract_y
_atom_site_fract_z
_atom_type_partial_charge
C1    C     C_R   0.501184 0.739805 0.497102 0.931573
C2    C     C_R   0.352159 0.540922 0.784625 -0.213477
C3    C     C_R   0.507598 0.669903 0.154045 -0.317768
C4    C     C_R   0.474336 0.634464 0.234109 0.492672
C5    C     C_R   0.630078 0.455728 0.210816 -0.083556
C6    C     C_R   0.658502 0.492998 0.131599 -0.228596
C7    C     C_R   0.596156 0.597941 0.103421 -0.040187
C8    C     C_2   0.478614 0.565725 0.988071 -0.321362
C9    C     C_2   0.592909 0.610088 0.016656 0.472821
C10   C     C_R   0.536717 0.526733 0.261764 -0.198964
C11   C     C_R   0.383468 0.935952 0.507547 -0.029469
C12   C     C_R   0.480704 0.496480 0.653235 0.894339
C13   C     C_R   0.503910 0.871381 0.488312 -0.153151
C14   C     C_R   0.624049 0.938046 0.461712 -0.030737
C15   C     C_R   0.621133 0.067312 0.465405 -0.273939
C16   C     C_R   0.499877 0.129258 0.491989 -0.065983
C17   C     C_R   0.379248 0.062384 0.507294 -0.020033
C18   C     C_3   0.255161 0.069421 0.568157 -0.242086
C19   C     C_3   0.269318 0.925838 0.573215 0.221878
C20   C     C_R   0.922462 0.586361 0.544237 0.229413
C21   C     C_R   0.934700 0.424061 0.449655 -0.246482
C22   C     C_R   0.080015 0.425551 0.448063 0.508209
C23   C     C_R   0.499888 0.260390 0.498555 1.006393
C24   C     C_R   0.065074 0.585910 0.544540 0.101888
C25   C     C_3   0.057105 0.602033 0.633379 -0.475196
C26   C     C_3   0.902988 0.603698 0.633024 -0.476722
C27   C     C_R   0.519642 0.502067 0.346985 0.984550
C28   C     C_R   0.469260 0.495021 0.740186 -0.049571
C29   C     C_R   0.581132 0.455673 0.779247 -0.229910
C30   C     C_R   0.581722 0.473670 0.861017 -0.071898
C31   C     C_R   0.471823 0.534019 0.903884 0.223654
C32   C     C_R   0.353833 0.561068 0.866759 -0.190920
H1    H     H_    0.669573 0.414132 0.746301 0.163597
H2    H     H_    0.722332 0.435657 0.089903 0.175901
H3    H     H_    0.714201 0.119100 0.448904 0.179042
H4    H     H_    0.181211 0.874366 0.551429 0.128539
H5    H     H_    0.884165 0.359188 0.412152 0.168507
H6    H     H_    0.094811 0.519138 0.663813 0.224576
H7    H     H_    0.100336 0.692586 0.651625 0.236601
H8    H     H_    0.852573 0.522662 0.664129 0.220321
H9    H     H_    0.857370 0.695627 0.650158 0.214428
H10   H     H_    0.266392 0.603313 0.900375 0.146198
H11   H     H_    0.461972 0.750126 0.128694 0.127252
H12   H     H_    0.264056 0.569911 0.755348 0.165394
H13   H     H_    0.389070 0.544262 0.028765 0.125497
H14   H     H_    0.669507 0.443416 0.890326 0.162254
N1    N     N_R   0.857140 0.500860 0.500530 -0.120018
N2    N     N_R   0.142780 0.500820 0.500530 -0.140910
O1    O     O_R   0.385310 0.683210 0.499990 -0.603666
O2    O     O_R   0.614650 0.683240 0.500000 -0.617535
O3    O     O_R   0.371780 0.500000 0.615800 -0.606226
O4    O     O_R   0.601120 0.500040 0.615800 -0.629359
O5    O     O_R   0.385350 0.316760 0.500000 -0.577326
O6    O     O_R   0.614690 0.316790 0.500010 -0.628899
O7    O     O_R   0.398880 0.499960 0.384200 -0.586837
O8    O     O_R   0.628220 0.500000 0.384200 -0.597633
Zn1   Zn    Zn3+2 0.346870 0.499980 0.499990 1.023115
Zn2   Zn    Zn3+2 0.653130 0.500020 0.500010 0.988248
C33   C     C_2   0.755447 0.877852 0.435330 0.930555
O9    O     O_2   0.763082 0.804383 0.378790 -0.623324
O10   O     O_R   0.870089 0.904420 0.476239 -0.803306
H15   H     H_    0.951867 0.851848 0.456630 0.333163
C34   C     C_2   0.268017 0.140342 0.646185 0.935177
O11   O     O_2   0.176046 0.133008 0.700258 -0.576848
O12   O     O_R   0.385039 0.209469 0.658422 -0.860031
H16   H     H_    0.381905 0.246496 0.714508 0.334745
C35   C     C_2   0.128719 0.107360 0.528087 0.959350
O13   O     O_2   0.116311 0.076817 0.458406 -0.624238
O14   O     O_R   0.025023 0.175714 0.570885 -0.764548
H17   H     H_    0.944906 0.191719 0.538296 0.347757
O15   O     O_3   0.305781 0.873154 0.646984 -0.634408
C36   C     C_3   0.424743 0.922035 0.678991 0.117533
H18   H     H_    0.392320 0.982216 0.731545 0.179617
H19   H     H_    0.492144 0.977898 0.636435 0.164490
C37   C     C_3   0.508214 0.816459 0.709845 -0.374403
H20   H     H_    0.446255 0.769833 0.759455 0.243192
H21   H     H_    0.534344 0.748391 0.660818 0.224947
C38   C     C_3   0.639874 0.864093 0.741402 -0.908725
H22   H     H_    0.706754 0.907271 0.692140 0.278836
H23   H     H_    0.695095 0.785073 0.765854 0.273979
H24   H     H_    0.616775 0.933741 0.790203 0.268188
O16   O     O_3   0.158147 0.343207 0.399612 -0.594523
C39   C     C_3   0.147468 0.371883 0.318126 0.083767
H25   H     H_    0.171882 0.472014 0.306466 0.147011
H26   H     H_    0.043063 0.351198 0.300800 0.156310
C40   C     C_3   0.248478 0.291536 0.265775 -0.266956
H27   H     H_    0.352062 0.301842 0.286427 0.250227
H28   H     H_    0.218009 0.192135 0.271894 0.232808
C41   C     C_3   0.253471 0.328256 0.177640 -0.972804
H29   H     H_    0.151317 0.316368 0.155097 0.287666
H30   H     H_    0.327531 0.268103 0.141428 0.270696
H31   H     H_    0.286815 0.426731 0.170113 0.257951
O17   O     O_3   0.390890 0.705310 0.289246 -0.638222
C42   C     C_3   0.293032 0.776377 0.253009 0.050312
H32   H     H_    0.240596 0.719118 0.208892 0.129457
H33   H     H_    0.343325 0.858931 0.223345 0.156843
C43   C     C_3   0.185623 0.824147 0.317407 -0.314501
H34   H     H_    0.134319 0.744131 0.349402 0.211044
H35   H     H_    0.236102 0.881977 0.361692 0.254159
C44   C     C_3   0.079201 0.902625 0.279936 -0.856510
H36   H     H_    0.129285 0.979023 0.243870 0.249980
H37   H     H_    0.008097 0.944972 0.327575 0.302644
H38   H     H_    0.019652 0.843637 0.240626 0.262398
C45   C     C_2   0.694339 0.339516 0.237119 0.900889
O18   O     O_2   0.804074 0.305495 0.204080 -0.651565
O19   O     O_R   0.628448 0.266877 0.297866 -0.847771
H39   H     H_    0.681768 0.189267 0.308695 0.340973
O20   O     O_3   0.705296 0.643612 0.963986 -0.652727
C46   C     C_3   0.810591 0.700583 0.003560 0.085576
H40   H     H_    0.856653 0.632313 0.042731 0.154220
H41   H     H_    0.770853 0.782284 0.039892 0.154154
C47   C     C_3   0.921962 0.745139 0.940619 -0.316573
H42   H     H_    0.959192 0.665037 0.902231 0.226361
H43   H     H_    0.878774 0.815447 0.901726 0.237172
C48   C     C_3   0.042152 0.802614 0.979727 -0.964698
H44   H     H_    0.007874 0.884069 0.017596 0.274964
H45   H     H_    0.120819 0.834165 0.932412 0.275272
H46   H     H_    0.088834 0.732868 0.017451 0.253856

loop_
_geom_bond_atom_site_label_1
_geom_bond_atom_site_label_2
_ccdc_geom_bond_type
C10   C27   S    
C22   N2    A    
C34   O12   S    
O17   C42   S    
C19   O15   S    
C43   C44   S    
C47   H43   S    
C43   H34   S    
N2    Zn1   S    
C9    O20   S    
C14   C33   S    
C3    H11   S    
C12   C28   S    
C22   O16   S    
C28   C29   A    
C3    C7    A    
C19   H4    S    
C46   H41   S    
C5    C6    A    
C27   O7    A    
C18   C34   S    
O19   H39   S    
C15   C16   A    
C29   H1    S    
O1    Zn1   S    
O20   C46   S    
C2    C32   A    
C18   C19   S    
C8    H13   S    
C45   O18   D    
C12   O4    A    
C31   C32   A    
C2    H12   S    
C8    C9    D    
C48   H45   S    
O3    Zn1   S    
C41   H30   S    
C1    O2    A    
C5    C45   S    
C33   O9    D    
C21   C22   A    
O10   H15   S    
C36   C37   S    
C15   H3    S    
C47   H42   S    
C43   H35   S    
C23   O5    A    
C33   O10   S    
C35   O13   D    
O2    Zn2   S    
C20   C24   A    
C24   C25   S    
C36   H19   S    
C46   C47   S    
O5    Zn1   S    
C40   H27   S    
C16   C17   A    
C42   C43   S    
C18   C35   S    
C44   H38   S    
C4    O17   S    
C35   O14   S    
C24   N2    A    
C37   H20   S    
C29   C30   A    
C25   H6    S    
C39   H25   S    
C48   H46   S    
C11   C19   S    
C44   H37   S    
C17   C18   S    
C38   H23   S    
C27   O8    A    
C41   H31   S    
C42   H33   S    
C37   H21   S    
O4    Zn2   S    
C39   H26   S    
O12   H16   S    
C16   C23   S    
O7    Zn1   S    
C1    C13   S    
C4    C10   A    
C3    C4    A    
C12   O3    A    
C23   O6    A    
O6    Zn2   S    
C7    C9    S    
C11   C17   A    
C38   H22   S    
C8    C31   S    
C30   H14   S    
C36   H18   S    
C40   C41   S    
C6    C7    A    
C45   O19   S    
C25   C26   S    
C5    C10   A    
C46   H40   S    
C25   H7    S    
N1    Zn2   S    
C11   C13   A    
C38   H24   S    
C26   H8    S    
C30   C31   A    
C20   C26   S    
C44   H36   S    
O8    Zn2   S    
C40   H28   S    
C42   H32   S    
C37   C38   S    
O14   H17   S    
C20   N1    A    
C34   O11   D    
C6    H2    S    
O15   C36   S    
C39   C40   S    
C21   H5    S    
O16   C39   S    
C32   H10   S    
C14   C15   A    
C2    C28   A    
C41   H29   S    
C13   C14   A    
C1    O1    A    
C47   C48   S    
C48   H44   S    
C26   H9    S    
C21   N1    A    
