data_mof_unit_16863.cif
_audit_creation_date              2012-10-26T19:52:25-0400
_audit_creation_method            fapswitch 2.2
_symmetry_space_group_name_H-M    P1
_symmetry_Int_Tables_number       1
_space_group_crystal_system       triclinic
_cell_length_a                    9.55395
_cell_length_b                    10.904119
_cell_length_c                    13.453348
_cell_angle_alpha                 91.254948
_cell_angle_beta                  72.051892
_cell_angle_gamma                 91.100229
_cell_volume                      1332.89655476

loop_
_atom_site_label
_atom_site_type_symbol
_atom_type_description
_atom_site_fract_x
_atom_site_fract_y
_atom_site_fract_z
_atom_type_partial_charge
C1    C     C_R   0.500309 0.736924 0.502139 0.560198
C2    C     C_R   0.372055 0.490951 0.815533 0.003250
C3    C     C_R   0.392809 0.933575 0.484382 0.085021
C4    C     C_R   0.420777 0.494822 0.700266 0.533637
C5    C     C_R   0.499438 0.868758 0.509172 -0.030836
C6    C     C_R   0.601643 0.936002 0.545346 -0.116067
C7    C     C_R   0.597940 0.065254 0.550356 0.207655
C8    C     C_R   0.493551 0.129220 0.514778 0.016903
C9    C     C_R   0.389167 0.057179 0.486895 -0.049898
C10   C     C_3   0.264437 0.057113 0.441796 -0.239426
C11   C     C_3   0.271707 0.916655 0.438050 0.119751
C12   C     C_R   0.433226 0.489331 0.979526 0.066363
C13   C     C_R   0.961295 0.453007 0.416390 0.211717
C14   C     C_R   0.893321 0.556861 0.577691 -0.014384
C15   C     C_R   0.041925 0.556381 0.577932 0.005841
C16   C     C_R   0.497250 0.262444 0.504872 0.577170
C17   C     C_R   0.109521 0.454919 0.415659 0.206861
C18   C     C_3   0.131674 0.326700 0.375912 0.120328
C19   C     C_3   0.971912 0.323011 0.378207 0.102844
C20   C     C_R   0.579025 0.502151 0.299814 0.597660
C21   C     C_R   0.778690 0.392377 0.028896 -0.144780
C22   C     C_R   0.624312 0.491456 0.185448 0.040476
C23   C     C_R   0.469386 0.458584 0.871652 0.011329
C24   C     C_R   0.229360 0.529310 0.870834 -0.127966
C25   C     C_R   0.185269 0.539138 0.979171 -0.127754
C26   C     C_R   0.285878 0.520333 0.033145 -0.026779
C27   C     C_R   0.542669 0.478239 0.030697 0.073879
C28   C     C_R   0.673601 0.413544 0.978589 0.018356
C29   C     C_R   0.698223 0.369063 0.877011 -0.121956
C30   C     C_R   0.598371 0.391709 0.824126 -0.105957
C31   C     C_R   0.528951 0.529362 0.131010 0.245211
C32   C     C_R   0.751878 0.427941 0.132518 -0.167232
Cl1   Cl    Cl    0.720003 0.139116 0.608031 -0.667586
Cl2   Cl    Cl    0.263912 0.315233 0.248906 -0.595897
Cl3   Cl    Cl    0.419689 0.659975 0.181066 -0.631504
Cu1   Cu    Cu3+1 0.359330 0.500020 0.500010 1.033888
Cu2   Cu    Cu3+1 0.640670 0.499980 0.499990 1.002418
H1    H     H_    0.829301 0.403259 0.171806 0.208613
H2    H     H_    0.878707 0.343282 0.989521 0.137817
H3    H     H_    0.151464 0.551809 0.830349 0.131833
H4    H     H_    0.244184 0.524449 0.117246 0.220943
H5    H     H_    0.073202 0.563929 0.021528 0.137718
H6    H     H_    0.620723 0.350383 0.747376 0.203430
H7    H     H_    0.682781 0.888701 0.571014 0.172744
H8    H     H_    0.072548 0.855892 0.471661 0.333834
H9    H     H_    0.954867 0.223315 0.262746 0.346685
H10   H     H_    0.161430 0.090789 0.499369 0.178417
H11   H     H_    0.296484 0.097083 0.362630 0.163395
H12   H     H_    0.307032 0.873991 0.358406 0.175710
H13   H     H_    0.811369 0.601547 0.641464 0.137338
H14   H     H_    0.070794 0.600228 0.641944 0.141084
H15   H     H_    0.153409 0.268804 0.434922 0.093024
H16   H     H_    0.795905 0.316956 0.837785 0.144273
H17   H     H_    0.901475 0.258450 0.435655 0.163939
N1    N     N_R   0.852320 0.499070 0.499340 -0.261968
N2    N     N_R   0.148230 0.499110 0.499340 -0.264083
O1    O     O_R   0.381190 0.680360 0.500000 -0.449376
O2    O     O_3   0.954437 0.312523 0.279031 -0.679355
O3    O     O_R   0.618780 0.680320 0.499990 -0.516903
O4    O     O_R   0.323230 0.500000 0.650990 -0.519651
O5    O     O_R   0.560820 0.499960 0.650980 -0.520703
O6    O     O_R   0.381220 0.319680 0.500010 -0.512914
O7    O     O_R   0.618810 0.319640 0.500000 -0.460330
O8    O     O_R   0.439180 0.500040 0.349020 -0.422188
O9    O     O_R   0.676770 0.500000 0.349010 -0.492298
O10   O     O_3   0.148082 0.861333 0.508321 -0.663762

loop_
_geom_bond_atom_site_label_1
_geom_bond_atom_site_label_2
_ccdc_geom_bond_type
C25   H5    S    
C20   O8    A    
C2    C4    S    
C6    C7    A    
C11   H12   S    
C16   O7    A    
C15   H14   S    
C7    Cl1   S    
C9    C10   S    
C22   C32   A    
Cu2   O5    S    
C21   H2    S    
C11   O10   S    
C13   C17   A    
Cu2   O7    S    
C15   N2    A    
C4    O4    A    
C17   C18   S    
C18   H15   S    
C7    C8    A    
C8    C16   S    
C6    H7    S    
H9    O2    S    
C10   H11   S    
C18   Cl2   S    
C12   C23   A    
C29   C30   A    
C29   H16   S    
C3    C9    A    
C31   Cl3   S    
C28   C29   A    
C24   H3    S    
C21   C28   A    
C20   C22   S    
C14   N1    A    
C1    O1    A    
C32   H1    S    
C1    O3    A    
C19   O2    S    
C2    C24   A    
C5    C6    A    
C21   C32   A    
Cu1   O6    S    
C30   H6    S    
C10   H10   S    
C3    C11   S    
C10   C11   S    
C14   H13   S    
C12   C27   A    
C27   C31   A    
Cu2   N1    S    
C23   C30   A    
C3    C5    A    
C20   O9    A    
C1    C5    S    
C24   C25   A    
C19   H17   S    
C2    C23   A    
C18   C19   S    
C22   C31   A    
Cu1   N2    S    
C27   C28   A    
C13   C19   S    
C14   C15   A    
Cu1   Cu2   S    
Cu1   O1    S    
Cu1   O4    S    
C25   C26   A    
Cu1   O8    S    
H8    O10   S    
C4    O5    A    
C16   O6    A    
Cu2   O3    S    
C17   N2    A    
C26   H4    S    
C12   C26   A    
C8    C9    A    
C13   N1    A    
Cu2   O9    S    
