data_mof_unit_40556.cif
_audit_creation_date              2012-12-10T20:02:19-0500
_audit_creation_method            fapswitch 2.2
_symmetry_space_group_name_H-M    P1
_symmetry_Int_Tables_number       1
_space_group_crystal_system       triclinic
_cell_length_a                    10.74141
_cell_length_b                    14.976945
_cell_length_c                    14.136335
_cell_angle_alpha                 90.051373
_cell_angle_beta                  90.640106
_cell_angle_gamma                 90.242354
_cell_volume                      2273.99850777

loop_
_atom_site_label
_atom_site_type_symbol
_atom_type_description
_atom_site_fract_x
_atom_site_fract_y
_atom_site_fract_z
_atom_type_partial_charge
C1    C     C_R   0.498181 0.327600 0.499910 0.856880
C2    C     C_R   0.498065 0.672338 0.499923 0.859138
C3    C     C_R   0.872629 0.495395 0.501924 -0.089921
C4    C     C_R   0.127605 0.503904 0.498247 -0.090157
C5    C     C_R   0.941005 0.466268 0.581975 0.016568
C6    C     C_R   0.059580 0.534413 0.418983 0.014422
C7    C     C_R   0.508551 0.091899 0.580743 -0.174083
C8    C     C_R   0.511111 0.907536 0.418053 -0.181831
C9    C     C_R   0.519344 0.183746 0.580940 -0.203674
C10   C     C_R   0.522136 0.815767 0.418864 -0.209874
C11   C     C_R   0.487406 0.231818 0.499603 -0.025146
C12   C     C_R   0.486913 0.767934 0.499233 -0.023141
C13   C     C_R   0.441063 0.188199 0.418875 -0.193204
C14   C     C_R   0.436670 0.811510 0.577524 -0.200290
C15   C     C_R   0.428247 0.096398 0.419202 -0.184171
C16   C     C_R   0.423839 0.903212 0.576124 -0.183291
C17   C     C_R   0.463679 0.048029 0.499674 0.117155
C18   C     C_R   0.463099 0.951478 0.497065 0.118830
C19   C     C_R   0.436448 0.434085 0.104626 -0.287686
C20   C     C_R   0.595541 0.542453 0.895400 -0.297196
C21   C     C_R   0.437815 0.434905 0.203889 0.036024
C22   C     C_R   0.593850 0.541393 0.796122 0.041832
C23   C     C_R   0.259975 0.502471 0.499312 0.878026
C24   C     C_R   0.740121 0.497226 0.500755 0.880055
C25   C     C_R   0.561678 0.565640 0.205580 -0.004327
C26   C     C_R   0.404706 0.460363 0.794531 0.018338
C27   C     C_R   0.562360 0.567552 0.106376 -0.281776
C28   C     C_R   0.401673 0.461055 0.893760 -0.249047
C29   C     C_R   0.498957 0.501247 0.053492 0.170005
C30   C     C_R   0.498683 0.501687 0.946603 0.153200
C31   C     C_R   0.243079 0.690251 0.260988 -0.270837
C32   C     C_R   0.768038 0.320717 0.757459 -0.174839
C33   C     C_R   0.187177 0.653560 0.341012 -0.152868
C34   C     C_R   0.812615 0.354467 0.671911 -0.194769
C35   C     C_R   0.117162 0.574547 0.333923 0.147174
C36   C     C_R   0.886076 0.432046 0.671070 0.148868
C37   C     C_R   0.101937 0.533449 0.245460 -0.264292
C38   C     C_R   0.915447 0.474433 0.757047 -0.238195
C39   C     C_R   0.157527 0.569985 0.165413 -0.184699
C40   C     C_R   0.871880 0.440497 0.842517 -0.305491
C41   C     C_R   0.229181 0.648268 0.171272 0.573336
C42   C     C_R   0.796896 0.362279 0.844009 0.579027
C43   C     C_R   0.931969 0.528248 0.421415 -0.250985
C44   C     C_R   0.068622 0.470452 0.578210 -0.253146
H1    H     H_    0.392027 0.063098 0.356575 0.126791
H2    H     H_    0.384949 0.936567 0.637004 0.131902
H3    H     H_    0.388653 0.379865 0.068882 0.126854
H4    H     H_    0.673923 0.573654 0.931059 0.124486
H5    H     H_    0.389331 0.383138 0.242238 0.117630
H6    H     H_    0.668457 0.573168 0.757775 0.136190
H7    H     H_    0.610262 0.617090 0.245252 0.117753
H8    H     H_    0.330022 0.428532 0.754978 0.122558
H9    H     H_    0.610594 0.621880 0.072129 0.128517
H10   H     H_    0.322581 0.430863 0.928139 0.126165
H11   H     H_    0.296011 0.751157 0.270748 0.120911
H12   H     H_    0.711458 0.260792 0.756819 0.139670
H13   H     H_    0.199164 0.686445 0.408825 0.129937
H14   H     H_    0.790497 0.319869 0.606491 0.131668
H15   H     H_    0.047968 0.472484 0.238635 0.148586
H16   H     H_    0.972826 0.534107 0.757896 0.156424
H17   H     H_    0.145144 0.536814 0.097822 0.146252
H18   H     H_    0.897223 0.476638 0.906104 0.121977
H19   H     H_    0.878752 0.552595 0.361096 0.165054
H20   H     H_    0.122313 0.445801 0.638155 0.162367
H21   H     H_    0.538407 0.055097 0.642850 0.132525
H22   H     H_    0.543690 0.944262 0.357098 0.129947
H23   H     H_    0.554440 0.216936 0.643855 0.149336
H24   H     H_    0.560528 0.782508 0.357706 0.141292
H25   H     H_    0.413807 0.224964 0.356051 0.144892
H26   H     H_    0.406630 0.774770 0.639254 0.155121
N1    N     N_R   0.500000 0.499980 0.252470 -0.086748
N2    N     N_R   0.500000 0.500020 0.747530 -0.096087
O1    O     O_R   0.500010 0.369070 0.579480 -0.620401
O2    O     O_R   0.499990 0.630930 0.420520 -0.629127
O3    O     O_R   0.500010 0.369060 0.420520 -0.630853
O4    O     O_R   0.499990 0.630940 0.579480 -0.623666
O5    O     O_R   0.316760 0.500010 0.579480 -0.636157
O6    O     O_R   0.683240 0.499990 0.420520 -0.626112
O7    O     O_R   0.316760 0.500000 0.420520 -0.607577
O8    O     O_R   0.683240 0.500000 0.579480 -0.617895
Zn1   Zn    Zn3+2 0.500000 0.500010 0.606140 0.945664
Zn2   Zn    Zn3+2 0.500000 0.499990 0.393860 0.941641
O9    O     O_3   0.279018 0.679364 0.086563 -0.657320
C45   C     C_3   0.361098 0.752595 0.097157 0.066063
H27   H     H_    0.438105 0.736155 0.147507 0.139405
H28   H     H_    0.309427 0.812388 0.121826 0.136581
C46   C     C_3   0.417445 0.774053 0.000978 -0.303121
H29   H     H_    0.463089 0.713573 0.972134 0.231337
H30   H     H_    0.342194 0.794194 0.950869 0.223381
C47   C     C_3   0.513340 0.849226 0.008625 -0.996449
H31   H     H_    0.469383 0.910870 0.036162 0.266407
H32   H     H_    0.551727 0.863521 0.937596 0.269279
H33   H     H_    0.591088 0.829448 0.056571 0.261626
O10   O     O_3   0.746764 0.323444 0.925110 -0.656956
C48   C     C_3   0.790821 0.361212 0.010851 0.064717
H34   H     H_    0.758919 0.431509 0.017067 0.149038
H35   H     H_    0.894332 0.357747 0.015220 0.131601
C49   C     C_3   0.737555 0.308458 0.093676 -0.312705
H36   H     H_    0.634293 0.308046 0.088600 0.231800
H37   H     H_    0.770321 0.238249 0.090123 0.220570
C50   C     C_3   0.777455 0.348947 0.188525 -0.948001
H38   H     H_    0.880327 0.346446 0.196808 0.251754
H39   H     H_    0.734693 0.310564 0.247056 0.270570
H40   H     H_    0.746495 0.419411 0.193487 0.272992

loop_
_geom_bond_atom_site_label_1
_geom_bond_atom_site_label_2
_ccdc_geom_bond_type
C46   H29   S    
C8    H22   S    
C50   H38   S    
C27   C29   A    
C26   N2    A    
C48   H34   S    
C1    C11   S    
C45   C46   S    
C2    C12   S    
C21   H5    S    
C48   C49   S    
C43   H19   S    
C39   C41   A    
C20   C30   A    
C44   H20   S    
C3    C43   A    
C21   N1    A    
C35   C37   A    
C45   H28   S    
C19   H3    S    
C41   O9    S    
C5    C36   S    
C40   H18   S    
C6    C35   S    
C15   C17   A    
O1    Zn1   S    
C24   O8    A    
C7    C17   A    
C31   C33   A    
C25   N1    A    
N2    Zn1   S    
C2    O2    A    
C22   H6    S    
N1    Zn2   S    
C40   C42   A    
C50   H39   S    
C14   H26   S    
C3    C24   S    
O2    Zn2   S    
C22   N2    A    
C39   H17   S    
C1    O3    A    
C45   H27   S    
C4    C6    A    
C16   H2    S    
C4    C23   S    
C28   H10   S    
C4    C44   A    
C8    C18   A    
C32   C34   A    
C9    H23   S    
C29   C30   S    
C26   H8    S    
C7    H21   S    
O6    Zn2   S    
C47   H32   S    
O9    C45   S    
O5    Zn1   S    
C27   H9    S    
C17   C18   S    
C16   C18   A    
C37   H15   S    
C23   O5    A    
C9    C11   A    
C20   H4    S    
C10   C12   A    
C38   H16   S    
C24   O6    A    
C5    C44   A    
C12   C14   A    
C50   H40   S    
C49   H37   S    
C6    C43   A    
C13   C15   A    
C14   C16   A    
C15   H1    S    
C19   C29   A    
C2    O4    A    
C47   H33   S    
C7    C9    A    
C33   H13   S    
C31   C41   A    
C19   C21   A    
C42   O10   S    
C20   C22   A    
O8    Zn1   S    
C3    C5    A    
O4    Zn1   S    
O7    Zn2   S    
C48   H35   S    
O3    Zn2   S    
C10   H24   S    
C25   C27   A    
C49   C50   S    
C26   C28   A    
C25   H7    S    
C1    O1    A    
C31   H11   S    
C28   C30   A    
C37   C39   A    
C38   C40   A    
C11   C13   A    
C47   H31   S    
C13   H25   S    
C36   C38   A    
C33   C35   A    
C34   C36   A    
O10   C48   S    
C8    C10   A    
C49   H36   S    
C46   C47   S    
C34   H14   S    
C46   H30   S    
C32   C42   A    
C23   O7    A    
C32   H12   S    
