data_mof_unit_62303.cif
_audit_creation_date              2013-03-05T16:10:52-0500
_audit_creation_method            fapswitch 2.2
_symmetry_space_group_name_H-M    P1
_symmetry_Int_Tables_number       1
_space_group_crystal_system       triclinic
_cell_length_a                    37.199498
_cell_length_b                    30.381815
_cell_length_c                    21.547986
_cell_angle_alpha                 89.999647
_cell_angle_beta                  54.773299
_cell_angle_gamma                 90.000103
_cell_volume                      19893.6151142

loop_
_atom_site_label
_atom_site_type_symbol
_atom_site_description
_atom_site_fract_x
_atom_site_fract_y
_atom_site_fract_z
_atom_type_partial_charge
O1    O     O_R   0.935720 0.537180 0.564270 -0.583797
O2    O     O_R   0.064280 0.537180 0.435730 -0.583795
O3    O     O_R   0.435720 0.037180 0.564270 -0.583797
O4    O     O_R   0.564280 0.037180 0.435730 -0.583797
O5    O     O_R   0.935680 0.462770 0.564310 -0.584150
O6    O     O_R   0.064320 0.462770 0.435690 -0.584150
O7    O     O_R   0.435680 0.962770 0.564310 -0.584144
O8    O     O_R   0.564320 0.962770 0.435690 -0.584146
C1    C     C_R   0.914843 0.499989 0.585369 0.790860
C2    C     C_R   0.085157 0.499989 0.414631 0.790858
C3    C     C_R   0.414843 0.999989 0.585369 0.790857
C4    C     C_R   0.585157 0.999989 0.414631 0.790853
O9    O     O_R   0.999990 0.537180 0.408860 -0.589247
O10   O     O_R   0.000010 0.537180 0.591140 -0.589248
O11   O     O_R   0.499990 0.037180 0.408860 -0.589253
O12   O     O_R   0.500010 0.037180 0.591140 -0.589252
O13   O     O_R   0.999950 0.462770 0.408890 -0.585313
O14   O     O_R   0.000050 0.462770 0.591110 -0.585314
O15   O     O_R   0.499950 0.962770 0.408890 -0.585302
O16   O     O_R   0.500050 0.962770 0.591110 -0.585306
C5    C     C_R   0.998564 0.500003 0.381291 0.758682
C6    C     C_R   0.001437 0.500002 0.618709 0.758681
C7    C     C_R   0.498565 0.000003 0.381289 0.758685
C8    C     C_R   0.501436 0.000003 0.618710 0.758681
Cu1   Cu    Cu3+1 0.000000 0.544030 0.500000 0.967173
Cu2   Cu    Cu3+1 0.500000 0.044030 0.500000 0.967176
Cu3   Cu    Cu3+1 0.000000 0.455920 0.500000 0.975569
Cu4   Cu    Cu3+1 0.500000 0.955920 0.500000 0.975605
C9    C     C_3   0.980680 0.544212 0.303879 -0.345052
C10   C     C_3   0.019322 0.544211 0.696117 -0.345053
C11   C     C_3   0.480719 0.044228 0.303839 -0.345002
C12   C     C_3   0.519298 0.044221 0.696142 -0.345020
H1    H     H_    0.001371 0.572167 0.299506 0.186427
H2    H     H_    0.998633 0.572167 0.700488 0.186429
H3    H     H_    0.501437 0.072165 0.299435 0.186416
H4    H     H_    0.498592 0.072166 0.700533 0.186422
C13   C     C_3   0.980763 0.543543 0.232243 -0.397893
C14   C     C_3   0.019239 0.543542 0.767753 -0.397892
C15   C     C_3   0.480797 0.043556 0.232208 -0.397974
C16   C     C_3   0.519217 0.043550 0.767776 -0.397948
H5    H     H_    0.946530 0.547989 0.249045 0.186042
H6    H     H_    0.053472 0.547987 0.750952 0.186043
H7    H     H_    0.446566 0.048027 0.249011 0.186023
H8    H     H_    0.553449 0.048011 0.750973 0.186031
H9    H     H_    0.000644 0.571600 0.194598 0.158542
H10   H     H_    0.999359 0.571599 0.805397 0.158542
H11   H     H_    0.500698 0.071598 0.194539 0.158556
H12   H     H_    0.499325 0.071598 0.805434 0.158551
H13   H     H_    0.067875 0.520047 0.238188 0.164915
H14   H     H_    0.932126 0.520050 0.761810 0.164917
H15   H     H_    0.567895 0.019985 0.238172 0.164890
H16   H     H_    0.432114 0.020011 0.761820 0.164900
H17   H     H_    0.068612 0.521608 0.131720 0.176710
H18   H     H_    0.931389 0.521610 0.868278 0.176708
H19   H     H_    0.568628 0.021557 0.131709 0.176715
H20   H     H_    0.431379 0.021578 0.868285 0.176708
C17   C     C_3   0.046265 0.493466 0.241368 -0.396140
C18   C     C_3   0.953735 0.493468 0.758633 -0.396141
C19   C     C_3   0.546260 0.993425 0.241372 -0.396146
C20   C     C_3   0.453738 0.993442 0.758629 -0.396144
C21   C     C_3   0.969589 0.461988 0.315617 -0.368346
C22   C     C_3   0.030409 0.461986 0.684385 -0.368345
C23   C     C_3   0.469557 0.962013 0.315652 -0.368414
C24   C     C_3   0.530429 0.962002 0.684363 -0.368390
C25   C     C_3   0.998626 0.499982 0.312241 0.131250
C26   C     C_3   0.001374 0.499982 0.687759 0.131252
C27   C     C_3   0.498627 0.999983 0.312240 0.131248
C28   C     C_3   0.501374 0.999982 0.687759 0.131251
H21   H     H_    0.935018 0.466267 0.366023 0.166282
H22   H     H_    0.064980 0.466264 0.633979 0.166282
H23   H     H_    0.434990 0.966325 0.366053 0.166282
H24   H     H_    0.564998 0.966300 0.633960 0.166280
C29   C     C_3   0.999983 0.499514 0.189201 0.126401
C30   C     C_3   0.000017 0.499514 0.810798 0.126401
C31   C     C_3   0.499983 0.999513 0.189202 0.126392
C32   C     C_3   0.500017 0.999513 0.810798 0.126403
C33   C     C_3   0.047283 0.494034 0.168854 -0.322536
C34   C     C_3   0.952717 0.494035 0.831146 -0.322537
C35   C     C_3   0.547278 0.993997 0.168858 -0.322509
C36   C     C_3   0.452720 0.994012 0.831143 -0.322514
C37   C     C_3   0.971027 0.461267 0.242635 -0.357937
C38   C     C_3   0.028971 0.461265 0.757367 -0.357937
C39   C     C_3   0.470997 0.961288 0.242669 -0.357856
C40   C     C_3   0.528990 0.961279 0.757346 -0.357891
H25   H     H_    0.936893 0.464101 0.258336 0.187102
H26   H     H_    0.063105 0.464098 0.741666 0.187101
H27   H     H_    0.436865 0.964147 0.258366 0.187095
H28   H     H_    0.563123 0.964128 0.741647 0.187089
H29   H     H_    0.059592 0.461575 0.245255 0.186327
H30   H     H_    0.940406 0.461577 0.754747 0.186326
H31   H     H_    0.559558 0.961521 0.245284 0.186377
H32   H     H_    0.440427 0.961543 0.754729 0.186359
H33   H     H_    0.062203 0.462873 0.136896 0.223162
H34   H     H_    0.937795 0.462875 0.863106 0.223163
H35   H     H_    0.562178 0.962827 0.136918 0.223237
H36   H     H_    0.437811 0.962847 0.863092 0.223221
C41   C     C_R   0.797194 0.461245 0.691527 -0.130123
C42   C     C_R   0.202806 0.461246 0.308474 -0.130123
C43   C     C_R   0.297193 0.961245 0.691527 -0.130122
C44   C     C_R   0.702806 0.961246 0.308473 -0.130124
C45   C     C_R   0.843040 0.460974 0.646449 -0.178092
C46   C     C_R   0.156960 0.460975 0.353553 -0.178092
C47   C     C_R   0.343039 0.960974 0.646450 -0.178088
C48   C     C_R   0.656960 0.960975 0.353552 -0.178088
C49   C     C_R   0.866481 0.500060 0.633987 -0.047695
C50   C     C_R   0.133519 0.500061 0.366013 -0.047695
C51   C     C_R   0.366481 0.000060 0.633987 -0.047697
C52   C     C_R   0.633519 0.000061 0.366013 -0.047696
C53   C     C_R   0.843309 0.539261 0.668286 -0.179411
C54   C     C_R   0.156691 0.539262 0.331713 -0.179413
C55   C     C_R   0.343309 0.039261 0.668285 -0.179410
C56   C     C_R   0.656691 0.039262 0.331714 -0.179412
H37   H     H_    0.860560 0.569768 0.660258 0.164317
H38   H     H_    0.139440 0.569769 0.339740 0.164317
H39   H     H_    0.360560 0.069768 0.660256 0.164320
H40   H     H_    0.639440 0.069769 0.339743 0.164319
C57   C     C_R   0.797471 0.539413 0.713841 -0.071659
C58   C     C_R   0.202529 0.539415 0.286158 -0.071657
C59   C     C_R   0.297471 0.039414 0.713839 -0.071659
C60   C     C_R   0.702529 0.039415 0.286160 -0.071658
H41   H     H_    0.780132 0.569859 0.740396 0.160407
H42   H     H_    0.219868 0.569861 0.259602 0.160408
H43   H     H_    0.280132 0.069860 0.740394 0.160409
H44   H     H_    0.719868 0.069861 0.259605 0.160410
C61   C     C_R   0.774175 0.500534 0.724870 0.178175
C62   C     C_R   0.225824 0.500536 0.275130 0.178174
C63   C     C_R   0.274175 0.000535 0.724869 0.178171
C64   C     C_R   0.725824 0.000536 0.275131 0.178172
C65   C     C_R   0.702188 0.529941 0.756536 0.277324
C66   C     C_R   0.297813 0.529943 0.243462 0.277325
C67   C     C_R   0.202187 0.029941 0.756535 0.277324
C68   C     C_R   0.797813 0.029942 0.243463 0.277326
C69   C     C_R   0.655854 0.530189 0.804645 0.209208
C70   C     C_R   0.344147 0.530190 0.195353 0.209203
C71   C     C_R   0.155853 0.030189 0.804645 0.209196
C72   C     C_R   0.844147 0.030190 0.195354 0.209196
C73   C     C_R   0.633270 0.500463 0.866475 -0.305802
C74   C     C_R   0.366730 0.500463 0.133524 -0.305804
C75   C     C_R   0.133270 0.000463 0.866475 -0.305806
C76   C     C_R   0.866730 0.000464 0.133524 -0.305806
C77   C     C_R   0.657201 0.470802 0.880290 0.310408
C78   C     C_R   0.342799 0.470802 0.119712 0.310407
C79   C     C_R   0.157201 0.970803 0.880290 0.310409
C80   C     C_R   0.842798 0.970803 0.119711 0.310409
C81   C     C_R   0.703115 0.471800 0.833295 -0.260438
C82   C     C_R   0.296884 0.471801 0.166706 -0.260436
C83   C     C_R   0.203115 0.971800 0.833296 -0.260438
C84   C     C_R   0.796884 0.971801 0.166705 -0.260439
C85   C     C_R   0.725736 0.500761 0.771707 -0.139891
C86   C     C_R   0.274264 0.500762 0.228293 -0.139889
C87   C     C_R   0.225736 0.000761 0.771706 -0.139889
C88   C     C_R   0.774264 0.000762 0.228293 -0.139889
O17   O     O_R   0.962770 0.564220 0.037230 -0.589872
O18   O     O_R   0.037230 0.564220 0.962770 -0.589872
O19   O     O_R   0.462770 0.064220 0.037230 -0.589876
O20   O     O_R   0.537230 0.064220 0.962770 -0.589877
C89   C     C_R   0.000000 0.585059 1.000000 0.764276
C90   C     C_R   0.500000 0.085059 1.000000 0.764280
O21   O     O_R   0.962780 0.499950 0.128370 -0.598159
O22   O     O_R   0.037220 0.499950 0.871630 -0.598159
O23   O     O_R   0.462780 0.999950 0.128370 -0.598172
O24   O     O_R   0.537220 0.999950 0.871630 -0.598176
O25   O     O_R   0.037180 0.500000 0.053970 -0.570874
O26   O     O_R   0.962820 0.500000 0.946030 -0.570874
O27   O     O_R   0.537180 1.000000 0.053970 -0.570879
O28   O     O_R   0.462820 1.000000 0.946030 -0.570875
C91   C     C_R   0.000078 0.499521 0.120100 0.773800
C92   C     C_R   0.999922 0.499521 0.879900 0.773801
C93   C     C_R   0.500077 0.999519 0.120100 0.773944
C94   C     C_R   0.499923 0.999520 0.879900 0.773898
Cu5   Cu    Cu3+1 0.955920 0.499940 0.044070 1.026149
Cu6   Cu    Cu3+1 0.044080 0.499940 0.955930 1.026149
Cu7   Cu    Cu3+1 0.455920 0.999940 0.044070 1.026118
Cu8   Cu    Cu3+1 0.544080 0.999940 0.955930 1.026074
O29   O     O_R   0.962780 0.435670 0.037210 -0.545029
O30   O     O_R   0.037220 0.435670 0.962790 -0.545029
O31   O     O_R   0.462780 0.935670 0.037210 -0.545063
O32   O     O_R   0.537220 0.935670 0.962790 -0.545108
C95   C     C_R   1.000000 0.414864 0.000000 0.939800
C96   C     C_R   0.500000 0.914865 0.000001 0.940038
O33   O     O_R   0.499930 0.435710 0.947300 -0.577575
O34   O     O_R   0.500070 0.435710 0.052700 -0.577574
O35   O     O_R   0.999930 0.935710 0.947300 -0.577575
O36   O     O_R   0.000070 0.935710 0.052700 -0.577575
C97   C     C_R   0.500000 0.414930 0.000000 0.842408
C98   C     C_R   1.000000 0.914930 0.000000 0.842409
O37   O     O_R   0.564240 0.499990 0.883000 -0.560620
O38   O     O_R   0.435760 0.499990 0.117000 -0.560618
O39   O     O_R   0.064240 0.999990 0.883000 -0.560617
O40   O     O_R   0.935760 0.999990 0.117000 -0.560617
O41   O     O_R   0.564250 0.499990 0.988510 -0.553779
O42   O     O_R   0.435750 0.499990 0.011490 -0.553774
O43   O     O_R   0.064250 0.999990 0.988510 -0.553780
O44   O     O_R   0.935750 0.999990 0.011490 -0.553781
C99   C     C_R   0.584917 0.500074 0.915113 0.917025
C100  C     C_R   0.415083 0.500074 0.084887 0.917039
C101  C     C_R   0.084917 0.000074 0.915113 0.917031
C102  C     C_R   0.915083 0.000074 0.084887 0.917032
Cu9   Cu    Cu3+1 0.499970 0.499990 0.937550 1.095597
Cu10  Cu    Cu3+1 0.500030 0.499990 0.062450 1.095599
Cu11  Cu    Cu3+1 0.999970 0.999990 0.937550 1.095582
Cu12  Cu    Cu3+1 0.000030 0.999990 0.062450 1.095582
O45   O     O_R   0.500010 0.564260 0.947230 -0.578734
O46   O     O_R   0.499990 0.564260 0.052770 -0.578729
O47   O     O_R   0.000010 0.064260 0.947230 -0.578742
O48   O     O_R   0.999990 0.064260 0.052770 -0.578742
C103  C     C_R   0.500003 0.585013 0.999997 0.853715
C104  C     C_R   1.000000 0.085013 1.000000 0.853712
C105  C     C_R   0.037355 0.702582 0.943055 -0.151216
C106  C     C_R   0.962646 0.702581 0.056946 -0.151217
C107  C     C_R   0.537355 0.202582 0.943055 -0.151216
C108  C     C_R   0.462646 0.202581 0.056946 -0.151217
C109  C     C_R   0.037489 0.656701 0.943380 -0.175413
C110  C     C_R   0.962512 0.656700 0.056621 -0.175412
C111  C     C_R   0.537489 0.156701 0.943380 -0.175414
C112  C     C_R   0.462512 0.156700 0.056621 -0.175413
C113  C     C_R   0.000000 0.633412 0.000000 -0.034805
C114  C     C_R   0.500000 0.133412 0.000000 -0.034802
C115  C     C_R   0.000001 0.725787 0.000000 0.096324
C116  C     C_R   0.500001 0.225787 0.000000 0.096325
C117  C     C_R   0.486752 0.297391 0.066254 -0.148945
C118  C     C_R   0.513249 0.297391 0.933746 -0.148945
C119  C     C_R   0.986752 0.797391 0.066254 -0.148946
C120  C     C_R   0.013249 0.797391 0.933746 -0.148945
H45   H     H_    0.476677 0.279974 0.117788 0.141365
H46   H     H_    0.523324 0.279975 0.882212 0.141366
H47   H     H_    0.976678 0.779974 0.117788 0.141364
H48   H     H_    0.023324 0.779975 0.882212 0.141364
C121  C     C_R   0.487076 0.343270 0.066110 -0.127839
C122  C     C_R   0.512925 0.343271 0.933890 -0.127841
C123  C     C_R   0.987076 0.843270 0.066110 -0.127841
C124  C     C_R   0.012925 0.843271 0.933890 -0.127843
H49   H     H_    0.476824 0.360487 0.117886 0.161474
H50   H     H_    0.523177 0.360488 0.882114 0.161475
H51   H     H_    0.976824 0.860487 0.117886 0.161473
H52   H     H_    0.023177 0.860488 0.882114 0.161473
C125  C     C_R   0.500000 0.366567 0.000000 0.007534
C126  C     C_R   0.000000 0.866567 0.000000 0.007534
C127  C     C_R   0.500001 0.274186 0.000000 0.089633
C128  C     C_R   0.000001 0.774186 0.000000 0.089634
C129  C     C_R   0.030824 0.296889 0.005896 0.234541
C130  C     C_R   0.969175 0.296890 0.994104 0.234541
C131  C     C_R   0.530792 0.796893 0.005974 0.234665
C132  C     C_R   0.469212 0.796890 0.994002 0.234596
C133  C     C_R   0.030596 0.343141 0.006526 0.216606
C134  C     C_R   0.969403 0.343141 0.993475 0.216605
C135  C     C_R   0.530563 0.843143 0.006612 0.216606
C136  C     C_R   0.469434 0.843143 0.993390 0.216569
C137  C     C_R   1.000000 0.366376 0.000000 -0.366433
C138  C     C_R   0.499999 0.866377 0.000001 -0.366393
C139  C     C_R   1.000000 0.273854 1.000000 -0.255779
C140  C     C_R   0.500007 0.773855 0.999979 -0.255773
C141  C     C_R   0.490373 0.702413 0.064196 -0.053216
C142  C     C_R   0.509657 0.702409 0.935759 -0.053207
C143  C     C_R   0.009610 0.202411 0.935802 -0.053197
C144  C     C_R   0.990390 0.202411 0.064198 -0.053198
C145  C     C_R   0.490574 0.656590 0.064109 -0.118139
C146  C     C_R   0.509450 0.656586 0.935859 -0.118067
C147  C     C_R   0.009407 0.156589 0.935895 -0.118108
C148  C     C_R   0.990592 0.156588 0.064105 -0.118102
H53   H     H_    0.482960 0.639429 0.114412 0.185771
H54   H     H_    0.517061 0.639421 0.885561 0.185762
H55   H     H_    0.016994 0.139426 0.885610 0.185717
H56   H     H_    0.983005 0.139425 0.114389 0.185718
C149  C     C_R   0.500009 0.633317 0.999988 -0.031103
C150  C     C_R   1.000000 0.133317 1.000000 -0.031046
C151  C     C_R   0.500015 0.725456 0.999976 0.206923
C152  C     C_R   1.000000 0.225456 1.000000 0.207079
H57   H     H_    0.984442 0.429191 0.213064 0.201754
H58   H     H_    0.015554 0.429190 0.786941 0.201757
H59   H     H_    0.484387 0.929201 0.213127 0.201864
H60   H     H_    0.515590 0.929197 0.786901 0.201836
H61   H     H_    0.779632 0.430927 0.699689 0.150223
H62   H     H_    0.220368 0.430928 0.300314 0.150223
H63   H     H_    0.279632 0.930927 0.699690 0.150225
H64   H     H_    0.720368 0.930928 0.300312 0.150224
H65   H     H_    0.860084 0.430297 0.620699 0.164846
H66   H     H_    0.139916 0.430298 0.379304 0.164846
H67   H     H_    0.360084 0.930297 0.620700 0.164851
H68   H     H_    0.639916 0.930297 0.379302 0.164850
N1    N     N_R   0.725126 0.559285 0.692567 0.146104
O49   O     O_R   0.716274 0.601188 0.701523 -0.276978
O50   O     O_R   0.755034 0.544223 0.625143 -0.324912
N2    N     N_R   0.274875 0.559288 0.307429 0.146103
O51   O     O_R   0.283728 0.601191 0.298471 -0.276973
O52   O     O_R   0.244968 0.544226 0.374854 -0.324911
N3    N     N_R   0.225126 0.059285 0.692566 0.146103
O53   O     O_R   0.216274 0.101188 0.701520 -0.276958
O54   O     O_R   0.255033 0.044222 0.625142 -0.324914
N4    N     N_R   0.774875 0.059286 0.307431 0.146102
O55   O     O_R   0.783728 0.101190 0.298475 -0.276958
O56   O     O_R   0.744968 0.044224 0.374856 -0.324916
N5    N     N_R   0.631809 0.560595 0.790427 0.167864
O57   O     O_R   0.604315 0.588193 0.842870 -0.357406
O58   O     O_R   0.638196 0.561562 0.724375 -0.271417
N6    N     N_R   0.368192 0.560597 0.209569 0.167865
O59   O     O_R   0.395688 0.588193 0.157124 -0.357364
O60   O     O_R   0.361805 0.561564 0.275621 -0.271410
N7    N     N_R   0.131809 0.060595 0.790426 0.167870
O61   O     O_R   0.104314 0.088192 0.842869 -0.357336
O62   O     O_R   0.138196 0.061560 0.724374 -0.271414
N8    N     N_R   0.868192 0.060596 0.209571 0.167869
O63   O     O_R   0.895687 0.088193 0.157127 -0.357338
O64   O     O_R   0.861805 0.061561 0.275623 -0.271415
N9    N     N_R   0.635592 0.438314 0.939628 0.145016
O65   O     O_R   0.603184 0.415276 0.949481 -0.374261
O66   O     O_R   0.652565 0.426860 0.975773 -0.322176
N10   N     N_R   0.364406 0.438314 0.060375 0.145015
O67   O     O_R   0.396814 0.415276 0.050523 -0.374261
O68   O     O_R   0.347434 0.426860 0.024231 -0.322175
N11   N     N_R   0.135593 0.938316 0.939629 0.145015
O69   O     O_R   0.103185 0.915276 0.949482 -0.374259
O70   O     O_R   0.152565 0.926863 0.975775 -0.322181
N12   N     N_R   0.864406 0.938316 0.060373 0.145014
O71   O     O_R   0.896814 0.915276 0.050522 -0.374258
O72   O     O_R   0.847434 0.926863 0.024228 -0.322183
H69   H     H_    0.946604 0.549975 0.354932 0.172517
H70   H     H_    0.053399 0.549972 0.645064 0.172516
H71   H     H_    0.446649 0.050022 0.354889 0.172533
H72   H     H_    0.553371 0.050002 0.645091 0.172526
H73   H     H_    0.721496 0.449290 0.844170 0.199836
H74   H     H_    0.278503 0.449291 0.155833 0.199835
H75   H     H_    0.221496 0.949291 0.844170 0.199835
H76   H     H_    0.778503 0.949292 0.155831 0.199835
H77   H     H_    0.066574 0.719998 0.898914 0.145135
H78   H     H_    0.933427 0.719997 0.101086 0.145134
H79   H     H_    0.566574 0.219998 0.898914 0.145134
H80   H     H_    0.433427 0.219998 0.101086 0.145134
H81   H     H_    0.066743 0.639468 0.898948 0.159047
H82   H     H_    0.933258 0.639467 0.101052 0.159047
H83   H     H_    0.566743 0.139468 0.898949 0.159045
H84   H     H_    0.433258 0.139467 0.101052 0.159046
N13   N     N_R   0.062168 0.273340 0.012060 0.159489
O73   O     O_R   0.065929 0.281962 0.067225 -0.284600
O74   O     O_R   0.087169 0.243328 0.962403 -0.301503
N14   N     N_R   0.937831 0.273340 0.987940 0.159490
O75   O     O_R   0.934070 0.281963 0.932775 -0.284602
O76   O     O_R   0.912830 0.243327 0.037597 -0.301503
N15   N     N_R   0.562091 0.773344 0.012248 0.159546
O77   O     O_R   0.565665 0.781852 0.067661 -0.284903
O78   O     O_R   0.587209 0.743422 0.962489 -0.301351
N16   N     N_R   0.437908 0.773340 0.987734 0.159512
O79   O     O_R   0.434207 0.781965 0.932500 -0.284642
O80   O     O_R   0.412897 0.743311 0.037341 -0.301522
N17   N     N_R   0.061420 0.366385 0.014263 0.176803
O81   O     O_R   0.047413 0.393286 0.070812 -0.393186
O82   O     O_R   0.103441 0.359153 0.966896 -0.267984
N18   N     N_R   0.938579 0.366385 0.985738 0.176803
O83   O     O_R   0.952585 0.393287 0.929190 -0.393187
O84   O     O_R   0.896558 0.359152 0.033106 -0.267984
N19   N     N_R   0.561344 0.866382 0.014468 0.176682
O85   O     O_R   0.547289 0.893319 0.070988 -0.393443
O86   O     O_R   0.603366 0.859095 0.967271 -0.267961
N20   N     N_R   0.438636 0.866388 0.985586 0.176761
O87   O     O_R   0.452671 0.893314 0.929059 -0.393368
O88   O     O_R   0.396613 0.859130 0.032864 -0.267984
H85   H     H_    0.482673 0.719975 0.114249 0.159048
H86   H     H_    0.517355 0.719969 0.885705 0.158956
H87   H     H_    0.017282 0.219973 0.885766 0.158917
H88   H     H_    0.982717 0.219972 0.114234 0.158917
H89   H     H_    0.981360 0.429677 0.321684 0.197127
H90   H     H_    0.018636 0.429676 0.678322 0.197128
H91   H     H_    0.481298 0.929693 0.321752 0.197141
H92   H     H_    0.518675 0.929686 0.678279 0.197137

loop_
_geom_bond_atom_site_label_1
_geom_bond_atom_site_label_2
_geom_bond_distance
_ccdc_geom_bond_type
C43   C47   1.393219 A    
C73   C99   1.469397 S    
C69   C73   1.416062 A    
C78   C82   1.395821 A    
C81   H73   1.083957 S    
C148  H56   1.082952 S    
C54   C58   1.392906 A    
N13   O73   1.301192 A    
C108  H80   1.083254 S    
C11   C27   1.556481 S    
C107  C116  1.402355 A    
C145  H53   1.082955 S    
C130  C139  1.410260 A    
N2    O51   1.301204 A    
C142  H86   1.083326 S    
C147  H55   1.082953 S    
C143  C152  1.400398 A    
C136  N20   1.435916 S    
C44   C48   1.393216 A    
C22   H22   1.113132 S    
C76   C102  1.469400 S    
C24   C40   1.542525 S    
C82   C86   1.398287 A    
C67   C87   1.410876 A    
O30   C95   1.295680 A    
C105  C109  1.393998 A    
C31   C93   1.486980 S    
N3    O54   1.301265 A    
O4    C4    1.295857 A    
C72   C76   1.416065 A    
C144  C152  1.400399 A    
Cu9   Cu10  2.692634 S    
O19   C90   1.296441 A    
C48   H68   1.082932 S    
C66   C70   1.408629 A    
C120  H48   1.083253 S    
C29   C37   1.550962 S    
C136  C138  1.413575 A    
C23   C27   1.553650 S    
O27   C93   1.291055 A    
O35   Cu11  1.964119 S    
O26   C92   1.291047 A    
C145  C149  1.404545 A    
C56   C60   1.392906 A    
C22   C26   1.553663 S    
N16   O79   1.301207 A    
C108  C116  1.402356 A    
N12   O71   1.301217 A    
C42   C46   1.393216 A    
O44   Cu11  1.963316 S    
C141  C151  1.400413 A    
O7    Cu4   1.965574 S    
C16   C32   1.547808 S    
O34   C97   1.300584 A    
C105  C115  1.402356 A    
C71   C75   1.416064 A    
C140  C151  1.470440 S    
O4    Cu2   1.964363 S    
C90   C114  1.469049 S    
C60   C64   1.401833 A    
O22   Cu6   1.974725 S    
O9    C5    1.291476 A    
C19   H31   1.113324 S    
C32   C94   1.486975 S    
O25   Cu6   1.975668 S    
O21   Cu5   1.974725 S    
C65   C69   1.408629 A    
N6    O59   1.301057 A    
C103  C149  1.467578 S    
C23   H23   1.113136 S    
C124  C126  1.404035 A    
O8    Cu4   1.965572 S    
C129  C133  1.405251 A    
O35   C98   1.300585 A    
C13   H9    1.113328 S    
C12   C16   1.541971 S    
C15   H11   1.113329 S    
C135  C138  1.413558 A    
O39   C101  1.297862 A    
C16   H12   1.113328 S    
O33   C97   1.300585 A    
O3    Cu2   1.964366 S    
C40   H28   1.112923 S    
N14   O75   1.301189 A    
C15   H7    1.113171 S    
C59   H43   1.083200 S    
C109  H81   1.083069 S    
C68   C88   1.410879 A    
O20   C90   1.296440 A    
C80   N12   1.438586 S    
Cu5   O29   1.963733 S    
C34   H34   1.112483 S    
C11   H3    1.113101 S    
N18   O83   1.300701 A    
O21   C91   1.292946 A    
C122  H50   1.083018 S    
N16   O80   1.301276 A    
O22   C92   1.292946 A    
C70   N6    1.436476 S    
O3    C3    1.295854 A    
C21   C25   1.553666 S    
C29   C33   1.557538 S    
C47   C51   1.404464 A    
C65   C85   1.410874 A    
N12   O72   1.301380 A    
C78   N10   1.438587 S    
C117  H45   1.083253 S    
N19   O85   1.300702 A    
C129  C139  1.410260 A    
C83   H75   1.083959 S    
C10   C14   1.541969 S    
C117  C127  1.402286 A    
C24   C28   1.553655 S    
C112  C114  1.403964 A    
C10   H70   1.113104 S    
C119  H47   1.083252 S    
O38   Cu10  1.963585 S    
C1    C49   1.469636 S    
C23   C39   1.542523 S    
C118  C127  1.402288 A    
C124  H52   1.083017 S    
H13   C17   1.113362 S    
C55   C59   1.392903 A    
C58   H42   1.083197 S    
C7    C27   1.486540 S    
H16   C20   1.113365 S    
C63   C87   1.472268 S    
O5    Cu3   1.965574 S    
C96   C138  1.473141 S    
C64   C88   1.472268 S    
C97   C125  1.469374 S    
C9    H1    1.113098 S    
C130  N14   1.437952 S    
N9    O66   1.301376 A    
C66   C86   1.410877 A    
C133  N17   1.435910 S    
C15   C31   1.547810 S    
C54   H38   1.082928 S    
O8    C4    1.296009 A    
O23   C93   1.292941 A    
C146  H54   1.082955 S    
C121  H49   1.083019 S    
N10   O68   1.301378 A    
C20   H32   1.113321 S    
N8    O64   1.301121 A    
C89   C113  1.469049 S    
C10   H2    1.113096 S    
O13   Cu3   1.975305 S    
O41   Cu10  1.963316 S    
C111  C114  1.403966 A    
C8    C28   1.486538 S    
O40   Cu12  1.963585 S    
O27   Cu8   1.975668 S    
C106  C115  1.402356 A    
C129  N13   1.437950 S    
C83   C87   1.398288 A    
O5    C1    1.296011 A    
N5    O57   1.301055 A    
C71   N7    1.436477 S    
C68   C72   1.408629 A    
C112  H84   1.083069 S    
O15   Cu4   1.975305 S    
C120  C128  1.402288 A    
C9    C25   1.556470 S    
O28   C94   1.291051 A    
N11   O70   1.301381 A    
C2    C50   1.469633 S    
C117  C121  1.393949 A    
O33   Cu9   1.964119 S    
C56   H40   1.082932 S    
C14   C30   1.547812 S    
C133  C137  1.413549 A    
C20   C36   1.541087 S    
O14   C6    1.292798 A    
C51   C55   1.404551 A    
C84   C88   1.398289 A    
C79   N11   1.438586 S    
C77   C81   1.395820 A    
N1    O50   1.301265 A    
C21   H89   1.112886 S    
H20   C36   1.113202 S    
O10   C6    1.291474 A    
N2    O52   1.301264 A    
C147  C150  1.404554 A    
C21   C37   1.542526 S    
C62   C86   1.472268 S    
O44   C102  1.299888 A    
C31   C35   1.557540 S    
C104  C150  1.467581 S    
C144  C148  1.392192 A    
C13   H5    1.113168 S    
C30   C92   1.486973 S    
O41   C99   1.299889 A    
C14   H10   1.113328 S    
C141  C145  1.392192 A    
C16   H8    1.113167 S    
C118  C122  1.393946 A    
N20   O87   1.300703 A    
Cu11  O47   1.963838 S    
C122  C125  1.404037 A    
C123  H51   1.083017 S    
C57   C61   1.401834 A    
C37   H25   1.112925 S    
Cu6   O30   1.963730 S    
C134  C137  1.413554 A    
C59   C63   1.401835 A    
C39   H27   1.112927 S    
C82   H74   1.083958 S    
C29   C91   1.486973 S    
C32   C40   1.550975 S    
C143  H87   1.083326 S    
C53   C57   1.392903 A    
O20   Cu8   1.964006 S    
C130  C134  1.405251 A    
C17   H29   1.113321 S    
C44   H64   1.083329 S    
C123  C126  1.404036 A    
O42   C100  1.299888 A    
C45   H65   1.082930 S    
C141  H85   1.083327 S    
C105  H77   1.083255 S    
C72   N8    1.436475 S    
C23   H91   1.112885 S    
N4    O55   1.301205 A    
C49   C53   1.404552 A    
N17   O82   1.301122 A    
Cu8   O32   1.963730 S    
N6    O60   1.301121 A    
C22   C38   1.542528 S    
C44   C64   1.401637 A    
Cu9   O45   1.963838 S    
C30   C38   1.550964 S    
C111  H83   1.083068 S    
C119  C123  1.393949 A    
N13   O74   1.301267 A    
O12   Cu2   1.975092 S    
C142  C151  1.400404 A    
H14   C18   1.113360 S    
C32   C36   1.557540 S    
O34   Cu10  1.964121 S    
O18   C89   1.296440 A    
N14   O76   1.301265 A    
C74   C78   1.413820 A    
C19   C35   1.541089 S    
C43   H63   1.083326 S    
C43   C63   1.401636 A    
C38   H26   1.112925 S    
O43   Cu12  1.963316 S    
C52   C56   1.404551 A    
O37   Cu9   1.963585 S    
C115  C128  1.470434 S    
C79   C83   1.395818 A    
N7    O61   1.301058 A    
C35   H35   1.112475 S    
C17   C33   1.541090 S    
H19   C35   1.113203 S    
N15   O77   1.301282 A    
O24   C94   1.292945 A    
O46   C103  1.300013 A    
C37   H57   1.112616 S    
O1    C1    1.295852 A    
C39   H59   1.112607 S    
C18   H30   1.113321 S    
C41   C61   1.401637 A    
C74   C100  1.469400 S    
C134  N18   1.435910 S    
C68   N4    1.437365 S    
C12   H4    1.113100 S    
C48   C52   1.404467 A    
O40   C102  1.297864 A    
C4    C52   1.469633 S    
C73   C77   1.413824 A    
O28   Cu7   1.975669 S    
C5    C25   1.486542 S    
Cu2   Cu4   2.676939 S    
C76   C80   1.413822 A    
C17   C25   1.545907 S    
O6    C2    1.296009 A    
O32   C96   1.295678 A    
N19   O86   1.301132 A    
O16   Cu4   1.975303 S    
C110  H82   1.083069 S    
C144  H88   1.083324 S    
C31   C39   1.550979 S    
C77   N9    1.438585 S    
C33   H33   1.112483 S    
O36   C98   1.300584 A    
O2    Cu1   1.964363 S    
O10   Cu1   1.975092 S    
O17   C89   1.296441 A    
O13   C5    1.292797 A    
C18   C34   1.541090 S    
C132  C136  1.405279 A    
C42   C62   1.401636 A    
C20   C28   1.545907 S    
C132  N16   1.437946 S    
N9    O65   1.301216 A    
C30   C34   1.557539 S    
C9    C13   1.541969 S    
C142  C146  1.392199 A    
C139  C152  1.470416 S    
C81   C85   1.398287 A    
H18   C34   1.113202 S    
C107  C111  1.393998 A    
Cu5   Cu6   2.678959 S    
Cu11  Cu12  2.692634 S    
O15   C7    1.292802 A    
C47   H67   1.082929 S    
C80   C84   1.395818 A    
C135  N19   1.435929 S    
Cu7   Cu8   2.678959 S    
O7    C3    1.296013 A    
C14   H6    1.113170 S    
C67   C71   1.408633 A    
C119  C128  1.402286 A    
C120  C124  1.393949 A    
C95   C137  1.473169 S    
C118  H46   1.083252 S    
C107  H79   1.083256 S    
O23   Cu7   1.974725 S    
O42   Cu9   1.963316 S    
C57   H41   1.083199 S    
C6    C26   1.486544 S    
C66   N2    1.437367 S    
C98   C126  1.469374 S    
C18   C26   1.545909 S    
O16   C8    1.292802 A    
C116  C127  1.470434 S    
C46   C50   1.404466 A    
C22   H90   1.112883 S    
C69   N5    1.436475 S    
C36   H36   1.112476 S    
C42   H62   1.083330 S    
C53   H37   1.082931 S    
C12   C28   1.556479 S    
C19   C27   1.545910 S    
O19   Cu7   1.964003 S    
O11   C7    1.291465 A    
O12   C8    1.291468 A    
O1    Cu1   1.964366 S    
O9    Cu1   1.975096 S    
C75   C79   1.413822 A    
C46   H66   1.082931 S    
N18   O84   1.301120 A    
C45   C49   1.404464 A    
C143  C147  1.392192 A    
O36   Cu12  1.964121 S    
C40   H60   1.112608 S    
C108  C112  1.393998 A    
C109  C113  1.403966 A    
O11   Cu2   1.975096 S    
O29   C95   1.295677 A    
N11   O69   1.301217 A    
O39   Cu11  1.963585 S    
N1    O49   1.301202 A    
C106  C110  1.393998 A    
O45   C103  1.300005 A    
O25   C91   1.291049 A    
Cu10  O46   1.963836 S    
O6    Cu3   1.965572 S    
Cu7   O31   1.963733 S    
O31   C96   1.295664 A    
O17   Cu5   1.964003 S    
O18   Cu6   1.964006 S    
C65   N1    1.437367 S    
N7    O62   1.301120 A    
C12   H72   1.113103 S    
C10   C26   1.556467 S    
C61   C85   1.472268 S    
N15   O78   1.301307 A    
C106  H78   1.083254 S    
N20   O88   1.301132 A    
N3    O53   1.301205 A    
C3    C51   1.469636 S    
H17   C33   1.113203 S    
C148  C150  1.404552 A    
H15   C19   1.113362 S    
O2    C2    1.295857 A    
N10   O67   1.301219 A    
C50   C54   1.404553 A    
O47   C104  1.300009 A    
C21   H21   1.113132 S    
C13   C29   1.547816 S    
N8    O63   1.301058 A    
C131  C140  1.410208 A    
C132  C140  1.410271 A    
O37   C99   1.297866 A    
O14   Cu3   1.975303 S    
C110  C113  1.403965 A    
C70   C74   1.416063 A    
C75   C101  1.469400 S    
O24   Cu8   1.974725 S    
C131  N15   1.437823 S    
Cu1   Cu3   2.676939 S    
C131  C135  1.405204 A    
C38   H58   1.112614 S    
N5    O58   1.301120 A    
C67   N3    1.437368 S    
C146  C149  1.404560 A    
C41   H61   1.083326 S    
O43   C101  1.299889 A    
C11   C15   1.541972 S    
C24   H92   1.112885 S    
N4    O56   1.301266 A    
C24   H24   1.113134 S    
C9    H69   1.113102 S    
C11   H71   1.113105 S    
O38   C100  1.297864 A    
Cu12  O48   1.963836 S    
O26   Cu5   1.975669 S    
C55   H39   1.082932 S    
C58   C62   1.401835 A    
N17   O81   1.300700 A    
O48   C104  1.300009 A    
C121  C125  1.404035 A    
C84   H76   1.083960 S    
C41   C45   1.393216 A    
C60   H44   1.083197 S    
