data_mof_unit_48777.cif
_audit_creation_date              2012-12-10T17:37:29-0500
_audit_creation_method            fapswitch 2.2
_symmetry_space_group_name_H-M    P1
_symmetry_Int_Tables_number       1
_space_group_crystal_system       triclinic
_cell_length_a                    11.972063
_cell_length_b                    12.857853
_cell_length_c                    16.688526
_cell_angle_alpha                 90.842938
_cell_angle_beta                  81.910029
_cell_angle_gamma                 93.678623
_cell_volume                      2538.100994

loop_
_atom_site_label
_atom_site_type_symbol
_atom_type_description
_atom_site_fract_x
_atom_site_fract_y
_atom_site_fract_z
_atom_type_partial_charge
C1    C     C_R   0.522660 0.700495 0.498572 0.902635
C2    C     C_R   0.477359 0.299500 0.501316 0.906594
C3    C     C_R   0.462660 0.188050 0.504834 -0.173291
C4    C     C_R   0.537357 0.811915 0.494960 -0.167370
C5    C     C_R   0.642288 0.970423 0.447409 -0.290013
C6    C     C_R   0.357695 0.029518 0.552326 -0.289734
C7    C     C_R   0.636379 0.862596 0.453975 0.466750
C8    C     C_R   0.363720 0.137321 0.545949 0.468110
C9    C     C_R   0.445929 0.867753 0.528489 -0.312250
C10   C     C_R   0.553978 0.132198 0.471111 -0.310720
C11   C     C_R   0.450582 0.974172 0.520294 0.113592
C12   C     C_R   0.549305 0.025758 0.479266 0.115175
C13   C     C_R   0.965864 0.426790 0.408552 0.450858
C14   C     C_R   0.034234 0.574667 0.590671 0.457738
C15   C     C_R   0.847563 0.428926 0.420931 -0.092855
C16   C     C_R   0.152550 0.572248 0.578443 -0.097871
C17   C     C_R   0.852614 0.529952 0.540445 -0.031364
C18   C     C_R   0.147396 0.470278 0.459418 -0.034386
C19   C     C_R   0.971351 0.526706 0.533181 -0.111363
C20   C     C_R   0.028712 0.474018 0.466404 -0.112557
C21   C     C_R   0.485278 0.502584 0.654286 0.879803
C22   C     C_R   0.515734 0.505439 0.346131 0.882145
C23   C     C_R   0.479229 0.520316 0.741089 -0.097622
C24   C     C_R   0.528244 0.542117 0.263113 -0.086666
C25   C     C_R   0.578929 0.529682 0.776219 -0.210036
C26   C     C_R   0.441334 0.596771 0.238627 -0.222074
C27   C     C_R   0.575414 0.558910 0.856607 -0.226372
C28   C     C_R   0.455128 0.641626 0.162922 -0.247707
C29   C     C_R   0.472063 0.580149 0.902977 0.084971
C30   C     C_R   0.554317 0.629182 0.109227 0.107041
C31   C     C_R   0.371228 0.568561 0.868496 0.494529
C32   C     C_R   0.644417 0.579293 0.134394 0.500970
C33   C     C_R   0.375329 0.537749 0.787873 -0.302467
C34   C     C_R   0.631276 0.536984 0.212151 -0.339934
C35   C     C_2   0.466211 0.602669 0.989455 -0.234790
C36   C     C_2   0.553776 0.645470 0.022938 -0.227464
H1    H     H_    0.660046 0.515622 0.741436 0.153963
H2    H     H_    0.362676 0.605954 0.278199 0.168214
H3    H     H_    0.201586 0.610707 0.621274 0.152646
H4    H     H_    0.798621 0.391152 0.377758 0.153226
H5    H     H_    0.700875 0.499724 0.232258 0.160290
H6    H     H_    0.297446 0.529670 0.761764 0.168772
H7    H     H_    0.631483 0.673576 0.986024 0.189684
H8    H     H_    0.390118 0.573054 0.027739 0.198951
H9    H     H_    0.385769 0.681184 0.144412 0.159630
H10   H     H_    0.653510 0.562091 0.882456 0.153291
H11   H     H_    0.629683 0.171890 0.439152 0.178762
H12   H     H_    0.370207 0.828080 0.560445 0.178081
H13   H     H_    0.718642 0.010308 0.416788 0.160383
H14   H     H_    0.281466 0.989687 0.583184 0.160449
H15   H     H_    0.193272 0.428104 0.410122 0.171420
H16   H     H_    0.806686 0.571983 0.589808 0.168427
N1    N     N_R   0.206400 0.519440 0.514690 -0.132340
N2    N     N_R   0.793600 0.480560 0.485310 -0.131235
O1    O     O_R   0.421320 0.658850 0.503920 -0.629031
O2    O     O_R   0.578680 0.341150 0.496080 -0.625596
O3    O     O_R   0.609840 0.646370 0.494500 -0.563953
O4    O     O_R   0.390160 0.353630 0.505500 -0.562586
O5    O     O_R   0.394600 0.506990 0.621070 -0.633939
O6    O     O_R   0.605400 0.493010 0.378930 -0.630979
O7    O     O_R   0.583120 0.494520 0.611640 -0.626204
O8    O     O_R   0.416880 0.505480 0.388360 -0.629730
Zn1   Zn    Zn3+2 0.374120 0.508330 0.506290 0.945926
Zn2   Zn    Zn3+2 0.625880 0.491670 0.493710 0.950590
O9    O     O_3   0.017838 0.374196 0.342009 -0.622199
C37   C     C_3   0.059337 0.446018 0.279591 0.083010
H17   H     H_    0.135598 0.414662 0.244214 0.175399
H18   H     H_    0.086781 0.524449 0.302086 0.120929
C38   C     C_3   0.972064 0.457256 0.222403 -0.861676
H19   H     H_    0.897914 0.495630 0.254131 0.236650
H20   H     H_    0.009743 0.505948 0.169846 0.230841
H21   H     H_    0.943992 0.379476 0.200073 0.262510
O10   O     O_3   0.982283 0.628623 0.656482 -0.621268
C39   C     C_3   0.941998 0.558188 0.720063 0.066007
H22   H     H_    0.908857 0.481129 0.698663 0.125627
H23   H     H_    0.869902 0.592744 0.758178 0.169158
C40   C     C_3   0.033219 0.542751 0.773228 -0.863859
H24   H     H_    0.067322 0.619456 0.793417 0.269607
H25   H     H_    0.997232 0.495751 0.826976 0.230442
H26   H     H_    0.102745 0.500544 0.739196 0.236687
O11   O     O_3   0.267558 0.581059 0.914575 -0.623693
C41   C     C_3   0.242187 0.686396 0.910910 0.064244
H27   H     H_    0.233697 0.708219 0.847788 0.140473
H28   H     H_    0.308757 0.739173 0.933321 0.146663
C42   C     C_3   0.130679 0.702129 0.964426 -0.801198
H29   H     H_    0.137513 0.682563 0.028097 0.251919
H30   H     H_    0.109353 0.784668 0.961731 0.209779
H31   H     H_    0.061881 0.651307 0.943507 0.261556
O12   O     O_3   0.745296 0.573773 0.083136 -0.626470
C43   C     C_3   0.755718 0.470445 0.054665 0.085530
H32   H     H_    0.679318 0.440758 0.028011 0.143709
H33   H     H_    0.769568 0.417977 0.104316 0.145773
C44   C     C_3   0.857137 0.468163 0.988881 -0.835291
H34   H     H_    0.935491 0.494341 0.013931 0.268084
H35   H     H_    0.865550 0.387681 0.964748 0.209958
H36   H     H_    0.845748 0.520668 0.938805 0.245658
O13   O     O_3   0.271982 0.192160 0.577894 -0.586061
C45   C     C_3   0.280934 0.216338 0.659646 0.121984
H37   H     H_    0.365054 0.255332 0.666530 0.116533
H38   H     H_    0.267173 0.144374 0.696969 0.131011
C46   C     C_3   0.191059 0.290855 0.691348 -0.792701
H39   H     H_    0.105505 0.253509 0.688276 0.252246
H40   H     H_    0.198405 0.312251 0.755194 0.202233
H41   H     H_    0.202443 0.362742 0.654269 0.266548
O14   O     O_3   0.728488 0.807669 0.422911 -0.587238
C47   C     C_3   0.723770 0.787310 0.340053 0.117439
H42   H     H_    0.737859 0.860994 0.304810 0.133630
H43   H     H_    0.640949 0.747849 0.330410 0.130109
C48   C     C_3   0.816264 0.715455 0.308165 -0.780928
H44   H     H_    0.802859 0.640520 0.341443 0.261159
H45   H     H_    0.814561 0.699654 0.242747 0.219045
H46   H     H_    0.900352 0.752417 0.316334 0.251314

loop_
_geom_bond_atom_site_label_1
_geom_bond_atom_site_label_2
_ccdc_geom_bond_type
C37   H18   S    
C4    C9    A    
C44   H34   S    
C27   C29   A    
O10   C39   S    
C35   C36   D    
O13   C45   S    
C13   O9    S    
C40   H24   S    
C46   H39   S    
C39   H23   S    
O3    Zn2   S    
C33   H6    S    
C24   C26   A    
C21   O5    A    
C48   H45   S    
C22   O6    A    
C40   H26   S    
C37   C38   S    
C47   H42   S    
C45   H37   S    
C18   C20   A    
C38   H20   S    
C16   N1    A    
C41   H28   S    
C18   N1    A    
C25   H1    S    
C19   C20   A    
C23   C33   A    
C39   C40   S    
O1    Zn1   S    
O2    Zn2   S    
C21   O7    A    
C47   H43   S    
C40   H25   S    
C37   H17   S    
C44   H35   S    
C5    H13   S    
C34   H5    S    
C4    C7    A    
C17   H16   S    
C18   H15   S    
O11   C41   S    
C42   H30   S    
C28   H9    S    
C39   H22   S    
C14   O10   S    
C5    C12   A    
C3    C8    A    
C48   H46   S    
C6    C11   A    
C5    C7    A    
C26   H2    S    
C6    C8    A    
C42   H29   S    
C24   C34   A    
C32   C34   A    
C38   H21   S    
C8    O13   S    
C15   N2    A    
O8    Zn1   S    
C1    O3    A    
C22   O8    A    
C43   H33   S    
C32   O12   S    
C7    O14   S    
C6    H14   S    
C35   H8    S    
C9    C11   A    
C10   C12   A    
C27   H10   S    
C41   H27   S    
C44   H36   S    
C45   H38   S    
C13   C15   A    
C14   C16   A    
C45   C46   S    
C43   C44   S    
C42   H31   S    
O4    Zn1   S    
C31   C33   A    
C13   C20   A    
O5    Zn1   S    
C14   C19   A    
C11   C12   A    
C2    O4    A    
C25   C27   A    
C41   C42   S    
O14   C47   S    
C29   C35   S    
C26   C28   A    
C31   O11   S    
C30   C36   S    
O6    Zn2   S    
C1    C4    S    
C21   C23   S    
C2    C3    S    
C1    O1    A    
C29   C31   A    
C3    C10   A    
C2    O2    A    
C48   H44   S    
O7    Zn2   S    
C30   C32   A    
N1    Zn1   S    
C43   H32   S    
N2    Zn2   S    
C28   C30   A    
C17   C19   A    
C22   C24   S    
C23   C25   A    
C38   H19   S    
C15   H4    S    
C16   H3    S    
C9    H12   S    
C46   H40   S    
O9    C37   S    
C10   H11   S    
C36   H7    S    
C46   H41   S    
O12   C43   S    
C17   N2    A    
C47   C48   S    
