data_mof_unit_40758.cif
_audit_creation_date              2012-12-10T17:48:49-0500
_audit_creation_method            fapswitch 2.2
_symmetry_space_group_name_H-M    P1
_symmetry_Int_Tables_number       1
_space_group_crystal_system       triclinic
_cell_length_a                    15.712276
_cell_length_b                    10.620569
_cell_length_c                    9.96363
_cell_angle_alpha                 93.356503
_cell_angle_beta                  88.850118
_cell_angle_gamma                 95.094097
_cell_volume                      1653.07098455

loop_
_atom_site_label
_atom_site_type_symbol
_atom_type_description
_atom_site_fract_x
_atom_site_fract_y
_atom_site_fract_z
_atom_type_partial_charge
C1    C     C_R   0.507526 0.260970 0.496378 0.942943
C2    C     C_R   0.609800 0.093049 0.823849 0.416643
C3    C     C_R   0.560363 0.984083 0.863020 -0.168974
C4    C     C_R   0.338724 0.500444 0.501177 0.950489
C5    C     C_R   0.507591 0.912469 0.766913 0.463216
C6    C     C_R   0.507981 0.948898 0.630748 -0.074045
C7    C     C_R   0.541444 0.071109 0.605114 -0.028809
C8    C     C_R   0.513431 0.126604 0.491001 -0.042501
C9    C     C_R   0.468358 0.054523 0.390392 -0.235379
C10   C     C_R   0.446663 0.927244 0.404286 -0.020989
C11   C     C_R   0.474675 0.871584 0.518828 -0.107748
C12   C     C_3   0.940608 0.411283 0.610537 0.342197
C13   C     C_R   0.396225 0.322352 0.142938 -0.191639
C14   C     C_R   0.349554 0.219270 0.082358 -0.138980
C15   C     C_R   0.345128 0.209856 0.943461 0.385906
C16   C     C_R   0.491171 0.739020 0.505166 0.911003
C17   C     C_R   0.386785 0.305971 0.865904 -0.115813
C18   C     C_R   0.444698 0.408675 0.926647 -0.012184
C19   C     C_R   0.447034 0.411322 0.071256 0.086476
C20   C     C_R   0.553672 0.580367 0.075548 0.000766
C21   C     C_R   0.555149 0.580162 0.932675 0.077894
C22   C     C_R   0.661435 0.501314 0.498955 0.856877
C23   C     C_3   0.917612 0.515123 0.511148 -0.028592
C24   C     C_3   0.040487 0.404187 0.599175 0.135509
C25   C     C_3   0.050305 0.483672 0.358590 -0.120048
C26   C     C_3   0.950349 0.473352 0.367106 -0.504133
C27   C     C_1   0.750354 0.506335 0.498099 -0.138748
C28   C     C_3   0.083878 0.510252 0.508318 -0.098522
C29   C     C_3   0.916502 0.186672 0.633015 -0.164414
C30   C     C_3   0.117613 0.471304 0.805108 -0.313009
C31   C     C_2   0.908395 0.445311 0.752864 0.470221
C32   C     C_2   0.945051 0.754062 0.451046 0.535949
C33   C     C_3   0.638642 0.266235 0.966053 -0.214813
C34   C     C_3   0.960106 0.654891 0.552818 0.280324
C35   C     C_2   0.563841 0.949361 0.005264 0.455614
C36   C     C_3   0.370932 0.849269 0.829211 -0.158273
C37   C     C_2   0.389177 0.858387 0.302815 0.519313
C38   C     C_2   0.299954 0.125161 0.164897 0.412935
C39   C     C_3   0.206959 0.133391 0.888459 -0.323418
C40   C     C_2   0.339685 0.309132 0.742140 0.630139
C41   C     C_2   0.620112 0.666651 0.867135 0.448048
C42   C     C_2   0.085882 0.587845 0.267288 0.597812
C43   C     C_2   0.079437 0.359669 0.294236 0.340659
C44   C     C_3   0.143335 0.837180 0.592784 -0.274749
C45   C     C_3   0.059283 0.643550 0.564468 0.217978
C46   C     C_3   0.847729 0.732832 0.696830 -0.281458
C47   C     C_1   0.825773 0.511674 0.502790 0.126525
C48   C     C_1   0.175378 0.506540 0.507200 0.089303
C49   C     C_1   0.250372 0.503477 0.504299 -0.100961
C50   C     C_R   0.598963 0.137003 0.696453 -0.244439
H1    H     H_    0.446064 0.099038 0.304426 0.159210
H2    H     H_    0.946133 0.210365 0.732702 0.197045
H3    H     H_    0.959794 0.130322 0.569497 0.133746
H4    H     H_    0.071322 0.534647 0.848770 0.168457
H5    H     H_    0.172412 0.525401 0.758133 0.153176
H6    H     H_    0.144328 0.428111 0.891933 0.202339
H7    H     H_    0.939396 0.521647 0.814573 0.105745
H8    H     H_    0.979049 0.847490 0.461822 0.096210
H9    H     H_    0.577139 0.244742 0.020861 0.119240
H10   H     H_    0.631387 0.335432 0.888493 0.179859
H11   H     H_    0.685249 0.311378 0.040231 0.208194
H12   H     H_    0.635220 0.223653 0.669336 0.187487
H13   H     H_    0.607140 0.003565 0.074792 0.115290
H14   H     H_    0.347169 0.893221 0.740003 0.176684
H15   H     H_    0.368977 0.914421 0.920330 0.192913
H16   H     H_    0.326883 0.764270 0.847557 0.157968
H17   H     H_    0.383755 0.895547 0.204570 0.065233
H18   H     H_    0.273458 0.035486 0.118890 0.097283
H19   H     H_    0.190355 0.203281 0.970608 0.183290
H20   H     H_    0.168070 0.043067 0.904906 0.185755
H21   H     H_    0.187691 0.166667 0.790962 0.221862
H22   H     H_    0.289059 0.372189 0.742468 0.018466
H23   H     H_    0.597048 0.645884 0.133944 0.195930
H24   H     H_    0.616652 0.684235 0.762377 0.119053
H25   H     H_    0.154227 0.614415 0.264846 0.125633
H26   H     H_    0.038851 0.271713 0.298426 0.099583
H27   H     H_    0.190642 0.799918 0.658291 0.156578
H28   H     H_    0.091665 0.877963 0.654688 0.165975
H29   H     H_    0.177056 0.914501 0.536810 0.230261
H30   H     H_    0.807455 0.653131 0.738966 0.212961
H31   H     H_    0.818811 0.759854 0.603314 0.153947
H32   H     H_    0.845804 0.814948 0.770564 0.224491
H33   H     H_    0.048222 0.317051 0.535436 0.173529
H34   H     H_    0.392532 0.329366 0.248688 0.264606
H35   H     H_    0.923193 0.374742 0.341590 0.207689
H36   H     H_    0.922170 0.525560 0.288469 0.275692
H37   H     H_    0.073529 0.649114 0.673042 0.131916
H38   H     H_    0.856631 0.125612 0.649652 0.196734
N1    N     N_R   0.499210 0.498800 0.142780 -0.139337
N2    N     N_R   0.499180 0.498720 0.857170 -0.154304
O1    O     O_R   0.500000 0.316780 0.614690 -0.601071
O2    O     O_3   0.079968 0.371787 0.719659 -0.635356
O3    O     O_2   0.843860 0.389536 0.798621 -0.546171
O4    O     O_2   0.891726 0.734827 0.363073 -0.587052
O5    O     O_3   0.670428 0.154866 0.909109 -0.593664
O6    O     O_2   0.518241 0.861126 0.047787 -0.591540
O7    O     O_3   0.453924 0.811124 0.808349 -0.570171
O8    O     O_2   0.343991 0.763496 0.329970 -0.576292
O9    O     O_2   0.286911 0.147227 0.284906 -0.549229
O10   O     O_3   0.294351 0.109452 0.881955 -0.637070
O11   O     O_2   0.343318 0.226925 0.651640 -0.546985
O12   O     O_R   0.499990 0.316750 0.385360 -0.664904
O13   O     O_2   0.679588 0.720753 0.930825 -0.611767
O14   O     O_2   0.040633 0.640650 0.194079 -0.574617
O15   O     O_2   0.150229 0.355422 0.241783 -0.569255
O16   O     O_3   0.109673 0.741377 0.499355 -0.627959
O17   O     O_3   0.933514 0.701578 0.683488 -0.691638
O18   O     O_R   0.377150 0.500020 0.614720 -0.659167
O19   O     O_R   0.377140 0.499990 0.385380 -0.581241
O20   O     O_R   0.500010 0.683250 0.614640 -0.603309
O21   O     O_R   0.500000 0.683220 0.385310 -0.585940
O22   O     O_R   0.622860 0.500010 0.614620 -0.663282
O23   O     O_R   0.622850 0.499980 0.385280 -0.610752
O24   O     O_3   0.896488 0.293084 0.563640 -0.614778
Zn1   Zn    Zn3+2 0.500010 0.500020 0.653130 0.955386
Zn2   Zn    Zn3+2 0.499990 0.499980 0.346870 0.979339

loop_
_geom_bond_atom_site_label_1
_geom_bond_atom_site_label_2
_ccdc_geom_bond_type
C32   O4    D    
C4    O19   A    
C1    C8    S    
C9    H1    S    
C32   H8    S    
C15   O10   S    
C29   O24   S    
C25   C43   S    
C16   O20   A    
C7    C8    A    
C35   O6    D    
C25   C28   S    
C4    O18   A    
C13   H34   S    
C42   H25   S    
C10   C37   S    
C34   O17   S    
O18   Zn1   S    
C44   H27   S    
C45   H37   S    
C24   H33   S    
C5    C6    A    
C36   H16   S    
C24   O2    S    
C18   C19   A    
C43   O15   D    
C23   C26   S    
C29   H38   S    
C2    C50   A    
O19   Zn2   S    
C41   H24   S    
C46   H32   S    
C22   O23   A    
C8    C9    A    
O21   Zn2   S    
C9    C10   A    
O23   Zn2   S    
C40   O11   D    
N1    Zn2   S    
C33   H9    S    
C13   C14   A    
C33   O5    S    
C37   O8    D    
C12   O24   S    
C21   N2    A    
C28   C45   S    
C23   C47   S    
C13   C19   A    
C18   N2    A    
C30   O2    S    
C6    C11   A    
C36   H15   S    
C25   C26   S    
C31   O3    D    
C30   H6    S    
C41   O13   D    
C17   C40   S    
C32   C34   S    
C19   N1    A    
C14   C38   S    
C46   H31   S    
C30   H4    S    
C11   C16   S    
C12   C23   S    
C3    C35   S    
C26   H36   S    
C23   C34   S    
C46   O17   S    
C17   C18   A    
C39   H19   S    
C34   C45   S    
N2    Zn1   S    
C36   O7    S    
C21   C41   S    
C48   C49   T    
C38   H18   S    
C33   H10   S    
C22   O22   A    
C22   C27   S    
C12   C31   S    
C50   H12   S    
C45   O16   S    
C30   H5    S    
C27   C47   T    
C43   H26   S    
C15   C17   A    
C28   C48   S    
C40   H22   S    
C44   H29   S    
C24   C28   S    
C7    C50   A    
C5    O7    S    
C38   O9    D    
C3    C5    A    
C42   O14   D    
C25   C42   S    
C6    C7    A    
C44   O16   S    
C20   N1    A    
C12   C24   S    
C4    C49   S    
C31   H7    S    
C44   H28   S    
C2    C3    A    
C46   H30   S    
C39   O10   S    
C29   H3    S    
C26   H35   S    
C37   H17   S    
C39   H20   S    
O1    Zn1   S    
C20   H23   S    
C1    O12   A    
O12   Zn2   S    
C10   C11   A    
C20   C21   A    
C33   H11   S    
C1    O1    A    
C39   H21   S    
C14   C15   A    
C35   H13   S    
C2    O5    S    
C36   H14   S    
O20   Zn1   S    
O22   Zn1   S    
C16   O21   A    
C29   H2    S    
