data_mof_unit_64750.cif
_audit_creation_date              2012-12-10T17:11:57-0500
_audit_creation_method            fapswitch 2.2
_symmetry_space_group_name_H-M    P1
_symmetry_Int_Tables_number       1
_space_group_crystal_system       triclinic
_cell_length_a                    21.64603
_cell_length_b                    21.649121
_cell_length_c                    22.14653
_cell_angle_alpha                 60.078115
_cell_angle_beta                  119.17759
_cell_angle_gamma                 90.175523
_cell_volume                      7447.69830132

loop_
_atom_site_label
_atom_site_type_symbol
_atom_type_description
_atom_site_fract_x
_atom_site_fract_y
_atom_site_fract_z
_atom_type_partial_charge
C1    C     C_R   0.619193 0.500945 0.498566 0.862650
C2    C     C_R   0.827129 0.352201 0.730271 -0.202081
C3    C     C_R   0.886304 0.332264 0.727826 -0.269283
C4    C     C_R   0.418774 0.581618 0.337466 0.882710
C5    C     C_R   0.880139 0.367480 0.650565 0.505796
C6    C     C_R   0.817928 0.433073 0.577755 0.001202
C7    C     C_R   0.754964 0.446085 0.579187 0.038073
C8    C     C_R   0.687219 0.498660 0.503149 -0.052478
C9    C     C_R   0.682310 0.543770 0.428389 -0.221027
C10   C     C_R   0.745575 0.538666 0.428403 -0.153836
C11   C     C_R   0.813923 0.485391 0.502439 -0.130132
C12   C     C_3   0.290315 0.710644 0.082350 0.118314
C13   C     C_3   0.713420 0.205986 0.028739 -0.164492
C14   C     C_3   0.686661 0.292945 0.971766 -0.160162
C15   C     C_1   0.625964 0.373029 0.751648 -0.187195
C16   C     C_R   0.379017 0.501209 0.497477 0.897148
C17   C     C_1   0.874527 0.125107 0.248334 -0.185400
C18   C     C_3   0.735448 0.203057 0.973154 -0.165043
C19   C     C_3   0.709493 0.289219 0.917799 0.203788
C20   C     C_3   0.814587 0.203544 0.028214 -0.164487
C21   C     C_3   0.791734 0.207294 0.082164 0.204896
C22   C     C_3   0.787806 0.290520 0.971212 -0.164843
C23   C     C_3   0.185746 0.733783 0.973119 -0.239301
C24   C     C_3   0.765762 0.293458 0.026766 -0.157967
C25   C     C_1   0.663805 0.334958 0.826793 -0.078849
C26   C     C_1   0.837130 0.162195 0.173185 -0.076604
C27   C     C_R   0.240541 0.616444 0.348015 -0.147313
C28   C     C_R   0.581096 0.418369 0.662557 0.891842
C29   C     C_R   0.176450 0.678116 0.280761 -0.132865
C30   C     C_R   0.117116 0.688185 0.287266 -0.149087
C31   C     C_R   0.120486 0.635076 0.359681 -0.131049
C32   C     C_R   0.183248 0.569368 0.426855 0.047270
C33   C     C_R   0.245381 0.562832 0.422503 0.089045
C34   C     C_3   0.208017 0.792044 0.917653 0.090672
C35   C     C_R   0.311564 0.503730 0.493694 -0.159894
C36   C     C_R   0.317873 0.453121 0.568095 -0.313842
C37   C     C_R   0.256507 0.456044 0.572674 0.495140
C38   C     C_R   0.187552 0.511578 0.499968 -0.240141
C39   C     C_R   0.997903 0.881853 0.496122 0.861267
C40   C     C_3   0.287100 0.737255 0.972582 -0.244834
C41   C     C_R   0.081149 0.918761 0.662530 0.895003
C42   C     C_R   0.001566 0.118513 0.502795 0.865894
C43   C     C_R   0.918830 0.081115 0.337435 0.896078
C44   C     C_R   0.996253 0.620432 0.499564 0.962299
C45   C     C_3   0.211228 0.765385 0.027717 -0.237676
C46   C     C_R   0.879965 0.493213 0.500694 0.999300
C47   C     C_R   0.003906 0.379568 0.500321 0.878587
C48   C     C_R   0.120519 0.505175 0.499924 0.876801
C49   C     C_R   0.860051 0.877636 0.375117 -0.175426
C50   C     C_R   0.792183 0.870819 0.327386 -0.245747
C51   C     C_R   0.788260 0.801565 0.340442 -0.201292
C52   C     C_3   0.312835 0.768878 0.027143 -0.237146
C53   C     C_R   0.852710 0.739437 0.398403 0.609373
C54   C     C_R   0.923273 0.746348 0.444021 -0.033138
C55   C     C_R   0.925759 0.814833 0.436490 0.035599
C56   C     C_3   0.233139 0.823219 0.971215 0.696603
C57   C     C_R   0.994278 0.818597 0.490365 -0.071378
C58   C     C_R   0.060019 0.758677 0.544921 -0.193450
C59   C     C_R   0.058765 0.693676 0.548206 -0.224598
C60   C     C_R   0.991537 0.687240 0.498204 -0.099695
C61   C     C_R   0.136563 0.119337 0.629747 -0.164550
C62   C     C_R   0.203416 0.123835 0.682760 -0.103549
C63   C     C_R   0.207550 0.191996 0.672925 -0.150148
C64   C     C_1   0.373852 0.626940 0.248423 -0.187066
C65   C     C_R   0.144095 0.255399 0.612052 -0.198160
C66   C     C_R   0.074993 0.251289 0.559753 0.094627
C67   C     C_1   0.335981 0.664989 0.173305 -0.035346
C68   C     C_R   0.072286 0.183621 0.565631 0.097948
C69   C     C_R   0.004882 0.182102 0.507625 -0.098071
C70   C     C_R   0.940634 0.244296 0.448444 -0.213645
C71   C     C_R   0.942298 0.309319 0.445207 -0.216495
C72   C     C_R   0.008325 0.312884 0.501031 -0.114457
C73   C     C_1   0.125400 0.874659 0.751570 -0.175077
C74   C     C_3   0.265560 0.678180 0.029485 -0.121095
C75   C     C_3   0.946753 0.256969 0.687454 0.067533
C76   C     C_3   0.976133 0.228137 0.653475 -0.773053
C77   C     C_3   0.298955 0.335407 0.693104 0.101146
C78   C     C_1   0.162724 0.837400 0.826685 -0.006058
C79   C     C_3   0.373650 0.306874 0.775270 -0.846835
C80   C     C_R   0.760643 0.406053 0.656103 -0.170215
F1    F     F_    0.844214 0.672514 0.412359 -0.686993
F2    F     F_    0.215521 0.898828 0.939330 -0.671928
H1    H     H_    0.365153 0.783186 0.050463 0.153522
H2    H     H_    0.371826 0.412935 0.623676 0.156218
H3    H     H_    0.317288 0.726296 0.948554 0.159383
H4    H     H_    0.286333 0.611457 0.341511 0.125577
H5    H     H_    0.173581 0.719149 0.224327 0.137612
H6    H     H_    0.068495 0.737684 0.236304 0.135940
H7    H     H_    0.074736 0.648276 0.363107 0.156395
H8    H     H_    0.112423 0.761878 0.586011 0.158186
H9    H     H_    0.860471 0.932655 0.362605 0.163676
H10   H     H_    0.742195 0.919150 0.281195 0.166554
H11   H     H_    0.734850 0.795895 0.305492 0.164196
H12   H     H_    0.935854 0.287020 0.785955 0.137610
H13   H     H_    0.110791 0.648310 0.589438 0.161196
H14   H     H_    0.889216 0.242732 0.403903 0.158103
H15   H     H_    0.135772 0.065015 0.640227 0.150421
H16   H     H_    0.252374 0.074416 0.731101 0.143891
H17   H     H_    0.260148 0.195328 0.713087 0.122964
H18   H     H_    0.150008 0.307535 0.605523 0.146615
H19   H     H_    0.891266 0.356520 0.400238 0.163986
H20   H     H_    0.181089 0.776805 0.051557 0.149545
H21   H     H_    0.133139 0.719989 0.949527 0.160795
H22   H     H_    0.279784 0.617441 0.055222 0.145524
H23   H     H_    0.740950 0.577810 0.370222 0.187464
H24   H     H_    0.629452 0.583777 0.370115 0.139824
H25   H     H_    0.714353 0.417462 0.659692 0.138793
H26   H     H_    0.831635 0.323359 0.789357 0.160122
H27   H     H_    0.896174 0.239843 0.680040 0.139665
H28   H     H_    0.990814 0.229283 0.755336 0.150930
H29   H     H_    0.029506 0.239227 0.665075 0.271084
H30   H     H_    0.986467 0.166555 0.685933 0.211901
H31   H     H_    0.934355 0.256081 0.585148 0.253734
H32   H     H_    0.306003 0.319457 0.655535 0.114405
H33   H     H_    0.262110 0.305967 0.709759 0.161872
H34   H     H_    0.633405 0.330377 0.947013 0.137069
H35   H     H_    0.365449 0.318126 0.815045 0.265232
H36   H     H_    0.398363 0.245340 0.810038 0.209371
H37   H     H_    0.413101 0.334946 0.763084 0.245774
H38   H     H_    0.683735 0.170534 0.053926 0.134842
H39   H     H_    0.778981 0.329724 0.050331 0.135862
H40   H     H_    0.817474 0.325958 0.945975 0.135034
H41   H     H_    0.867832 0.166101 0.052963 0.136072
H42   H     H_    0.722207 0.166827 0.949545 0.136060
O1    O     O_R   0.591660 0.448290 0.500000 -0.617129
O2    O     O_R   0.034730 0.556800 0.569600 -0.633362
O3    O     O_R   0.873600 0.534810 0.430420 -0.599852
O4    O     O_R   0.591590 0.551700 0.500020 -0.617125
O5    O     O_R   0.943150 0.465220 0.569550 -0.578144
O6    O     O_R   0.965270 0.443220 0.430400 -0.631147
O7    O     O_R   0.034830 0.373630 0.569530 -0.611831
O8    O     O_R   0.056850 0.534790 0.430450 -0.645616
O9    O     O_R   0.126400 0.465210 0.569580 -0.577670
O10   O     O_R   0.438430 0.509910 0.376770 -0.615737
O11   O     O_R   0.438360 0.613320 0.376790 -0.619117
O12   O     O_R   0.948250 0.908380 0.499990 -0.620403
O13   O     O_R   0.408410 0.448300 0.499980 -0.621764
O14   O     O_R   0.408340 0.551710 0.500000 -0.615388
O15   O     O_R   0.561640 0.386680 0.623210 -0.617789
O16   O     O_R   0.561570 0.490090 0.623230 -0.613099
O17   O     O_R   0.051700 0.908270 0.500000 -0.621936
O18   O     O_3   0.930522 0.336147 0.643635 -0.606070
O19   O     O_3   0.265321 0.413166 0.650165 -0.585549
O20   O     O_R   0.113330 0.938270 0.623230 -0.625737
O21   O     O_R   0.009880 0.938380 0.623210 -0.608384
O22   O     O_R   0.051750 0.091470 0.500010 -0.623759
O23   O     O_R   0.948300 0.091580 0.500000 -0.618531
O24   O     O_R   0.990120 0.061470 0.376790 -0.610715
O25   O     O_R   0.886670 0.061580 0.376770 -0.626802
O26   O     O_R   0.965170 0.626380 0.430470 -0.596148
Zn1   Zn    Zn3+2 0.500040 0.430950 0.499990 0.962159
Zn2   Zn    Zn3+2 0.499960 0.569050 0.500010 0.971979
Zn3   Zn    Zn3+2 0.069070 0.999850 0.500010 0.960193
Zn4   Zn    Zn3+2 0.930930 0.000000 0.499990 0.963522
Zn5   Zn    Zn3+2 0.953560 0.546470 0.407100 0.978336
Zn6   Zn    Zn3+2 0.046440 0.453550 0.592900 1.017481

loop_
_geom_bond_atom_site_label_1
_geom_bond_atom_site_label_2
_ccdc_geom_bond_type
C61   H15   S    
C66   C68   A    
C21   C26   S    
C63   C65   A    
C34   C56   S    
C23   C45   S    
C12   C74   S    
C27   C29   A    
C1    C8    S    
C16   O13   A    
C28   O16   A    
C1    O4    A    
C75   C76   S    
C46   O5    A    
C77   O19   S    
C15   C28   S    
C7    C8    A    
C54   C60   A    
C53   C54   A    
C27   C33   A    
C10   H23   S    
C80   H25   S    
C44   O2    A    
C37   C38   A    
C13   C18   S    
C34   C40   S    
C17   C26   T    
C4    O10   A    
O7    Zn6   S    
C1    O1    A    
C16   C35   S    
C30   C31   A    
C15   C25   T    
O13   Zn1   S    
O11   Zn2   S    
C39   C57   S    
C79   H36   S    
O8    Zn5   S    
C53   F1    S    
C18   C19   S    
C14   C24   S    
O20   Zn3   S    
O23   Zn4   S    
C20   H41   S    
C63   H17   S    
C43   O24   A    
O1    Zn1   S    
C62   H16   S    
O4    Zn2   S    
C66   C72   A    
C39   O17   A    
C45   C56   S    
C8    C9    A    
C31   H7    S    
C79   H37   S    
C73   C78   T    
C70   C71   A    
C32   C38   A    
C9    C10   A    
O16   Zn2   S    
C38   C48   S    
C43   O25   A    
C5    O18   S    
C71   H19   S    
C59   C60   A    
C13   C14   S    
C61   C62   A    
C28   O15   A    
C59   H13   S    
C49   H9    S    
C42   O23   A    
C12   C52   S    
C22   H40   S    
C39   O12   A    
C77   C79   S    
C12   C67   S    
C23   H21   S    
C75   H27   S    
C47   O6    A    
C64   C67   T    
C46   O3    A    
C19   C22   S    
C41   O20   A    
C10   C11   A    
O3    Zn5   S    
C6    C11   A    
C68   C69   A    
O14   Zn2   S    
C9    H24   S    
C49   C55   A    
C42   C69   S    
C44   O26   A    
C47   O7    A    
C51   C53   A    
C35   C36   A    
C40   H3    S    
C52   H1    S    
C70   H14   S    
O25   Zn4   S    
C17   C43   S    
C29   C30   A    
C75   O18   S    
O12   Zn4   S    
C48   O9    A    
C31   C32   A    
C76   H30   S    
C23   C34   S    
C62   C63   A    
C76   H31   S    
C13   C21   S    
C50   C51   A    
C44   C60   S    
C58   H8    S    
O6    Zn5   S    
C51   H11   S    
C4    O11   A    
O21   Zn4   S    
C50   H10   S    
C20   C22   S    
C65   C66   A    
O26   Zn5   S    
C55   C57   A    
C2    H26   S    
C27   H4    S    
C22   C24   S    
O24   Zn3   S    
C23   C74   S    
C30   H6    S    
C77   H32   S    
C42   O22   A    
C13   H38   S    
O9    Zn6   S    
C74   H22   S    
C54   C55   A    
C36   C37   A    
C75   H28   S    
C37   O19   S    
C14   C19   S    
C16   O14   A    
C65   H18   S    
C12   C45   S    
C3    C5    A    
O5    Zn6   S    
C56   F2    S    
C6    C7    A    
C4    C64   S    
C32   C33   A    
C2    C3    A    
C58   C59   A    
C71   C72   A    
C40   C52   S    
C34   C78   S    
C61   C68   A    
O17   Zn3   S    
C57   C58   A    
C5    C6    A    
O22   Zn3   S    
C36   H2    S    
C76   H29   S    
C14   H34   S    
O10   Zn1   S    
C79   H35   S    
O15   Zn1   S    
C24   H39   S    
C33   C35   A    
C40   C74   S    
C3    H12   S    
C18   C20   S    
C69   C70   A    
C19   C25   S    
C47   C72   S    
C29   H5    S    
C2    C80   A    
C45   H20   S    
C41   C73   S    
C41   O21   A    
C20   C21   S    
C49   C50   A    
C21   C24   S    
C48   O8    A    
C11   C46   S    
C77   H33   S    
C52   C56   S    
C18   H42   S    
C7    C80   A    
O2    Zn6   S    
