data_mof_unit_50606.cif
_audit_creation_date              2012-12-10T17:09:19-0500
_audit_creation_method            fapswitch 2.2
_symmetry_space_group_name_H-M    P1
_symmetry_Int_Tables_number       1
_space_group_crystal_system       triclinic
_cell_length_a                    18.582293
_cell_length_b                    18.487974
_cell_length_c                    11.68791
_cell_angle_alpha                 91.214188
_cell_angle_beta                  78.420694
_cell_angle_gamma                 89.546598
_cell_volume                      3932.4609735

loop_
_atom_site_label
_atom_site_type_symbol
_atom_type_description
_atom_site_fract_x
_atom_site_fract_y
_atom_site_fract_z
_atom_type_partial_charge
C1    C     C_R   0.400047 0.100251 0.520381 0.805983
C2    C     C_R   0.468030 0.015291 0.035053 0.071905
C3    C     C_R   0.771095 0.425739 0.315775 -0.149540
C4    C     C_R   0.911159 0.720074 0.357290 0.123012
C5    C     C_R   0.912704 0.700539 0.240093 -0.138285
C6    C     C_R   0.974201 0.715743 0.154120 -0.147179
C7    C     C_R   0.034217 0.750963 0.184508 -0.126246
C8    C     C_R   0.032694 0.770971 0.301006 -0.134516
C9    C     C_R   0.971691 0.754940 0.387544 -0.144190
C10   C     C_R   0.089255 0.279607 0.641841 0.121822
C11   C     C_R   0.029534 0.243243 0.611613 -0.145780
C12   C     C_R   0.968123 0.227692 0.697685 -0.136209
C13   C     C_R   0.030995 0.482923 0.965352 0.070936
C14   C     C_R   0.965277 0.249799 0.813659 -0.125949
C15   C     C_R   0.024458 0.286465 0.844101 -0.144337
C16   C     C_R   0.086563 0.300890 0.758668 -0.135874
C17   C     C_R   0.969145 0.517317 0.034584 0.071651
C18   C     C_R   0.417617 0.028125 0.860201 0.071187
C19   C     C_R   0.581705 0.970476 0.139955 0.076220
C20   C     C_R   0.919588 0.532279 0.859563 0.068209
C21   C     C_R   0.080500 0.467875 0.140408 0.068027
C22   C     C_R   0.410854 0.037562 0.981399 -0.364671
C23   C     C_R   0.588181 0.960811 0.018915 -0.356893
C24   C     C_R   0.913663 0.542988 0.980294 -0.362752
C25   C     C_R   0.600573 0.900292 0.479224 0.807993
C26   C     C_R   0.086586 0.457430 0.019583 -0.363647
C27   C     C_R   0.537411 0.978989 0.842671 0.050046
C28   C     C_R   0.462708 0.021517 0.157355 0.061079
C29   C     C_R   0.036236 0.476258 0.843144 0.059112
C30   C     C_R   0.963897 0.524019 0.156788 0.059248
C31   C     C_R   0.657914 0.154072 0.472294 -0.090993
C32   C     C_R   0.339467 0.848121 0.529199 -0.093047
C33   C     C_R   0.341187 0.153765 0.530456 -0.080987
C34   C     C_R   0.659681 0.846766 0.467717 -0.078690
C35   C     C_R   0.156340 0.655310 0.473735 -0.090831
C36   C     C_R   0.601842 0.098206 0.480829 0.803338
C37   C     C_R   0.841694 0.346359 0.527735 -0.091125
C38   C     C_R   0.841213 0.653765 0.529733 -0.080140
C39   C     C_R   0.158774 0.346171 0.469525 -0.080489
C40   C     C_R   0.261824 0.765176 0.653848 -0.238396
C41   C     C_R   0.725602 0.245959 0.353417 -0.240548
C42   C     C_R   0.782519 0.810771 0.373346 -0.215763
C43   C     C_R   0.218980 0.190611 0.626720 -0.215781
C44   C     C_R   0.773611 0.254850 0.646761 -0.240130
C45   C     C_R   0.227095 0.744124 0.353040 -0.241144
C46   C     C_R   0.280948 0.309234 0.373171 -0.215916
C47   C     C_R   0.398093 0.901724 0.519333 0.806033
C48   C     C_R   0.717953 0.689367 0.622442 -0.216302
C49   C     C_R   0.312419 0.820032 0.639646 -0.225249
C50   C     C_R   0.676991 0.189522 0.366158 -0.227226
C51   C     C_R   0.722017 0.855929 0.380591 -0.232044
C52   C     C_R   0.279701 0.145937 0.619714 -0.229862
C53   C     C_R   0.822299 0.311174 0.634024 -0.228273
C54   C     C_R   0.178061 0.688261 0.366045 -0.229775
C55   C     C_R   0.220260 0.353966 0.380239 -0.231055
C56   C     C_R   0.778972 0.645325 0.617369 -0.231595
C57   C     C_R   0.310350 0.823799 0.432643 -0.086189
C58   C     C_R   0.900073 0.600281 0.520289 0.805006
C59   C     C_R   0.691603 0.173836 0.566423 -0.080407
C60   C     C_R   0.656454 0.789793 0.546486 -0.079085
C61   C     C_R   0.343232 0.208709 0.447917 -0.080176
C62   C     C_R   0.808004 0.326670 0.433541 -0.080788
C63   C     C_R   0.185925 0.678686 0.570653 -0.080403
C64   C     C_R   0.156687 0.291186 0.552029 -0.079107
C65   C     C_R   0.843750 0.708854 0.447171 -0.079015
C66   C     C_R   0.256617 0.769490 0.447847 0.122522
C67   C     C_R   0.741123 0.232082 0.553712 0.123672
C68   C     C_R   0.718248 0.744322 0.541029 0.115794
C69   C     C_R   0.099945 0.399734 0.479618 0.807042
C70   C     C_R   0.281385 0.254534 0.454810 0.116129
C71   C     C_R   0.758264 0.268599 0.446335 0.123190
C72   C     C_R   0.234139 0.737922 0.558389 0.120915
C73   C     C_R   0.218552 0.245375 0.545168 0.116171
C74   C     C_R   0.781955 0.754627 0.453047 0.115347
C75   C     C_R   0.680795 0.132173 0.675307 0.140479
C76   C     C_R   0.730204 0.075734 0.684129 -0.152750
C77   C     C_R   0.735261 0.049765 0.793639 -0.176048
C78   C     C_R   0.691319 0.080226 0.894468 -0.121053
C79   C     C_R   0.638954 0.133384 0.885755 -0.146213
C80   C     C_R   0.101459 0.598516 0.481103 0.805093
C81   C     C_R   0.633421 0.159326 0.776394 -0.126140
C82   C     C_R   0.339123 0.848299 0.313139 0.152052
C83   C     C_R   0.390856 0.804189 0.239280 -0.115041
C84   C     C_R   0.403742 0.813165 0.119136 -0.162878
C85   C     C_R   0.366700 0.867553 0.071866 -0.105920
C86   C     C_R   0.316585 0.913173 0.145669 -0.161925
C87   C     C_R   0.302850 0.903819 0.266374 -0.160951
C88   C     C_R   0.410565 0.220136 0.357866 0.121088
C89   C     C_R   0.413506 0.197553 0.241553 -0.130965
C90   C     C_R   0.475525 0.211741 0.155811 -0.142891
C91   C     C_R   0.898058 0.401915 0.519177 0.805070
C92   C     C_R   0.534357 0.249439 0.185423 -0.127512
C93   C     C_R   0.531272 0.272777 0.300889 -0.136829
C94   C     C_R   0.469937 0.257514 0.387286 -0.147060
C95   C     C_R   0.588674 0.778416 0.634243 0.116544
C96   C     C_R   0.528660 0.743071 0.603133 -0.155886
C97   C     C_R   0.464392 0.733873 0.686785 -0.127301
C98   C     C_R   0.459408 0.761466 0.800452 -0.122113
C99   C     C_R   0.519282 0.797165 0.830796 -0.145577
C100  C     C_R   0.584071 0.804534 0.748645 -0.122855
C101  C     C_R   0.175568 0.637451 0.679955 0.143456
C102  C     C_R   0.531667 0.984498 0.965074 0.070428
C103  C     C_R   0.226707 0.582882 0.690181 -0.147808
C104  C     C_R   0.230438 0.556382 0.799882 -0.172717
C105  C     C_R   0.183478 0.584507 0.899618 -0.116454
C106  C     C_R   0.129818 0.635955 0.889311 -0.146003
C107  C     C_R   0.125514 0.662373 0.779704 -0.129784
C108  C     C_R   0.819274 0.368201 0.324478 0.140415
C109  C     C_R   0.866492 0.340728 0.223471 -0.126538
C110  C     C_R   0.862143 0.367684 0.114241 -0.144894
C111  C     C_R   0.811077 0.422141 0.105584 -0.119202
C112  C     C_R   0.767211 0.452709 0.206401 -0.174747
Cu1   Cu    Cu3+1 0.507800 0.000000 0.383250 0.954136
Cu2   Cu    Cu3+1 0.492200 0.000000 0.616750 0.952224
Cu3   Cu    Cu3+1 0.007800 0.500000 0.383250 0.952764
Cu4   Cu    Cu3+1 0.992200 0.500000 0.616750 0.952342
H1    H     H_    0.626495 0.952912 0.179321 0.127381
H2    H     H_    0.332313 0.838556 0.716073 0.173635
H3    H     H_    0.277625 0.103289 0.682492 0.147780
H4    H     H_    0.724869 0.899889 0.319987 0.145977
H5    H     H_    0.156908 0.671108 0.290072 0.179481
H6    H     H_    0.845956 0.326194 0.708490 0.179697
H7    H     H_    0.776504 0.602548 0.680007 0.146832
H8    H     H_    0.222345 0.396603 0.317443 0.147263
H9    H     H_    0.762454 0.229407 0.730793 0.162168
H10   H     H_    0.241220 0.766929 0.267117 0.163029
H11   H     H_    0.327623 0.318715 0.303600 0.156162
H12   H     H_    0.372576 0.044883 0.820746 0.129413
H13   H     H_    0.670559 0.679500 0.690590 0.154018
H14   H     H_    0.245502 0.744240 0.740736 0.159793
H15   H     H_    0.736624 0.271560 0.269503 0.161137
H16   H     H_    0.830001 0.821452 0.305897 0.156891
H17   H     H_    0.172281 0.181001 0.696164 0.156583
H18   H     H_    0.361056 0.061596 0.032732 0.130675
H19   H     H_    0.637555 0.935909 0.967646 0.135421
H20   H     H_    0.865377 0.570056 0.031025 0.135527
H21   H     H_    0.135048 0.430700 0.968759 0.135899
H22   H     H_    0.767850 0.055151 0.607093 0.122720
H23   H     H_    0.124654 0.448777 0.179853 0.130595
H24   H     H_    0.775039 0.007861 0.800643 0.129367
H25   H     H_    0.697632 0.062392 0.979494 0.131505
H26   H     H_    0.604313 0.155952 0.963996 0.127345
H27   H     H_    0.595930 0.203697 0.771027 0.120499
H28   H     H_    0.417084 0.759516 0.274208 0.115604
H29   H     H_    0.439950 0.775323 0.063701 0.120985
H30   H     H_    0.376115 0.873957 0.978263 0.134134
H31   H     H_    0.286870 0.954420 0.109176 0.125532
H32   H     H_    0.261086 0.936704 0.322440 0.120719
H33   H     H_    0.367508 0.169690 0.217441 0.108659
H34   H     H_    0.875437 0.551406 0.820137 0.130515
H35   H     H_    0.477548 0.194175 0.066295 0.125953
H36   H     H_    0.582120 0.261012 0.118886 0.116087
H37   H     H_    0.576372 0.302863 0.323416 0.138409
H38   H     H_    0.468013 0.275981 0.476423 0.117474
H39   H     H_    0.531806 0.722702 0.514679 0.116359
H40   H     H_    0.418296 0.705968 0.663253 0.138358
H41   H     H_    0.409153 0.755257 0.864463 0.114960
H42   H     H_    0.516284 0.820147 0.917096 0.129126
H43   H     H_    0.630247 0.831820 0.773285 0.108719
H44   H     H_    0.266307 0.563960 0.614173 0.121038
H45   H     H_    0.412467 0.041808 0.212238 0.121700
H46   H     H_    0.271331 0.515839 0.807998 0.128173
H47   H     H_    0.188524 0.566268 0.985011 0.133602
H48   H     H_    0.093045 0.656702 0.966676 0.128842
H49   H     H_    0.086544 0.705229 0.773327 0.119426
H50   H     H_    0.903092 0.295590 0.228767 0.120010
H51   H     H_    0.896706 0.344970 0.036024 0.127468
H52   H     H_    0.805629 0.440806 0.020617 0.132747
H53   H     H_    0.728434 0.495580 0.199453 0.128449
H54   H     H_    0.733641 0.446662 0.392761 0.122014
H55   H     H_    0.865822 0.674632 0.215409 0.110990
H56   H     H_    0.587906 0.959282 0.787791 0.131574
H57   H     H_    0.974714 0.701075 0.063861 0.124602
H58   H     H_    0.081608 0.763353 0.117778 0.116142
H59   H     H_    0.078587 0.799396 0.324155 0.137707
H60   H     H_    0.970838 0.771113 0.477420 0.115354
H61   H     H_    0.031256 0.225731 0.522077 0.116869
H62   H     H_    0.922795 0.198300 0.674512 0.138737
H63   H     H_    0.917446 0.238045 0.879956 0.116256
H64   H     H_    0.022636 0.303027 0.934012 0.126064
H65   H     H_    0.132850 0.327876 0.783412 0.109808
H66   H     H_    0.914575 0.546668 0.211078 0.131191
H67   H     H_    0.085673 0.453925 0.788775 0.129466
H68   H     H_    0.653240 0.174523 0.291784 0.179591
N1    N     N_R   0.519530 0.000000 0.207810 -0.179905
N2    N     N_R   0.480470 0.000000 0.792190 -0.182430
N3    N     N_R   0.019530 0.500000 0.207810 -0.181968
N4    N     N_R   0.980470 0.500000 0.792190 -0.181510
O1    O     O_R   0.430030 0.075530 0.417420 -0.583700
O2    O     O_R   0.583140 0.924490 0.385390 -0.603380
O3    O     O_R   0.583140 0.075510 0.385390 -0.585622
O4    O     O_R   0.416860 0.924490 0.614610 -0.583705
O5    O     O_R   0.916860 0.575510 0.614610 -0.605523
O6    O     O_R   0.083140 0.424490 0.385390 -0.605133
O7    O     O_R   0.083140 0.575510 0.385390 -0.584633
O8    O     O_R   0.916860 0.424490 0.614610 -0.584370
O9    O     O_R   0.569970 0.924470 0.582580 -0.580320
O10   O     O_R   0.569970 0.075530 0.582580 -0.576071
O11   O     O_R   0.430030 0.924470 0.417420 -0.574350
O12   O     O_R   0.930030 0.575530 0.417420 -0.582043
O13   O     O_R   0.069970 0.424470 0.582580 -0.582079
O14   O     O_R   0.069970 0.575530 0.582580 -0.575863
O15   O     O_R   0.930030 0.424470 0.417420 -0.575040
O16   O     O_R   0.416860 0.075510 0.614610 -0.603590

loop_
_geom_bond_atom_site_label_1
_geom_bond_atom_site_label_2
_ccdc_geom_bond_type
C61   C70   A    
C101  C107  A    
C12   H62   S    
C21   C26   A    
C107  H49   S    
C69   O13   A    
C93   C94   A    
C5    H55   S    
C36   O3    A    
C2    C28   A    
C95   C96   A    
C77   H24   S    
C57   C66   A    
C63   C101  S    
C26   H21   S    
C86   H31   S    
Cu4   O13   S    
C8    H59   S    
C1    C33   S    
C7    C8    A    
C77   C78   A    
C33   C52   A    
Cu1   O2    S    
Cu4   N4    S    
C58   O12   A    
C34   C51   A    
C22   H18   S    
C83   C84   A    
C13   C29   A    
C36   O10   A    
C53   H6    S    
C31   C36   S    
C104  H46   S    
C83   H28   S    
C43   C52   A    
C79   H26   S    
C62   C108  S    
C106  C107  A    
C2    C102  A    
C68   C74   A    
C82   C87   A    
C7    H58   S    
C35   C80   S    
C108  C109  A    
C9    H60   S    
C97   H40   S    
C31   C59   A    
C47   O4    A    
C43   H17   S    
C110  C111  A    
C69   O6    A    
C40   H14   S    
C59   C67   A    
C38   C58   S    
C43   C73   A    
C39   C55   A    
C111  C112  A    
C66   C72   A    
C8    C9    A    
Cu2   O9    S    
Cu3   O15   S    
C46   C55   A    
C92   H36   S    
C64   C73   A    
C38   C65   A    
C21   N3    A    
C11   H61   S    
C106  H48   S    
C40   C72   A    
C45   H10   S    
C14   H63   S    
C42   C51   A    
C41   C71   A    
C18   H12   S    
C88   C89   A    
C24   H20   S    
C89   H33   S    
C101  C103  A    
C18   C22   A    
C15   H64   S    
C35   C54   A    
C34   C60   A    
C17   C30   A    
C30   H66   S    
C47   O11   A    
C32   C57   A    
C44   C53   A    
C49   H2    S    
C104  C105  A    
C28   H45   S    
C97   C98   A    
C76   C77   A    
Cu1   O11   S    
Cu1   O3    S    
C88   C94   A    
C44   H9    S    
C42   C74   A    
C17   C24   A    
Cu2   O4    S    
C87   H32   S    
C37   C91   S    
C56   H7    S    
C20   C24   A    
C46   H11   S    
C80   O14   A    
C84   C85   A    
C109  H50   S    
C78   H25   S    
C79   C81   A    
C95   C100  A    
C75   C81   A    
C85   C86   A    
C18   N2    A    
C48   C68   A    
C65   C74   A    
C27   N2    A    
C19   C23   A    
C75   C76   A    
C60   C95   S    
C2    C22   A    
C39   C64   A    
C61   C88   S    
C20   N4    A    
Cu3   N3    S    
C110  H51   S    
C90   C92   A    
C112  H53   S    
C98   H41   S    
C81   H27   S    
C3    C112  A    
C94   H38   S    
Cu1   N1    S    
C96   C97   A    
C70   C73   A    
C105  H47   S    
C51   H4    S    
C39   C69   S    
C23   H19   S    
C85   H30   S    
C60   C68   A    
C96   H39   S    
Cu4   O5    S    
C54   H5    S    
C12   C14   A    
C45   C54   A    
C82   C83   A    
C84   H29   S    
C27   C102  A    
C32   C47   S    
Cu2   O16   S    
C48   H13   S    
C103  H44   S    
C21   H23   S    
C31   C50   A    
C59   C75   S    
C41   C50   A    
C103  C104  A    
C86   C87   A    
C41   H15   S    
Cu1   Cu2   S    
Cu3   O12   S    
C48   C56   A    
C80   O7    A    
Cu3   O7    S    
C55   H8    S    
C29   H67   S    
C14   C15   A    
Cu3   O6    S    
C50   H68   S    
C90   H35   S    
Cu4   O14   S    
C11   C12   A    
C29   N4    A    
C3    H54   S    
C6    C7    A    
C6    H57   S    
C76   H22   S    
C3    C108  A    
Cu1   O1    S    
C105  C106  A    
C25   C34   S    
C58   O5    A    
C10   C64   S    
Cu2   N2    S    
C99   C100  A    
C13   C17   A    
C25   O2    A    
C30   N3    A    
C16   H65   S    
C93   H37   S    
C89   C90   A    
C37   C53   A    
C10   C16   A    
C109  C110  A    
C19   N1    A    
C23   C102  A    
C91   O8    A    
C78   C79   A    
C100  H43   S    
Cu3   Cu4   S    
C5    C6    A    
C42   H16   S    
C15   C16   A    
C4    C65   S    
C92   C93   A    
C20   H34   S    
C62   C71   A    
C67   C71   A    
C13   C26   A    
C32   C49   A    
C46   C70   A    
C25   O9    A    
C10   C11   A    
Cu4   O8    S    
C52   H3    S    
C4    C5    A    
C38   C56   A    
C63   C72   A    
C19   H1    S    
C33   C61   A    
C98   C99   A    
Cu2   O10   S    
C99   H42   S    
C45   C66   A    
C37   C62   A    
C57   C82   S    
C44   C67   A    
C35   C63   A    
C111  H52   S    
C4    C9    A    
C28   N1    A    
C1    O16   A    
C27   H56   S    
C91   O15   A    
C40   C49   A    
C1    O1    A    
