data_mof_unit_11463.cif
_audit_creation_date              2012-12-10T17:15:41-0500
_audit_creation_method            fapswitch 2.2
_symmetry_space_group_name_H-M    P1
_symmetry_Int_Tables_number       1
_space_group_crystal_system       triclinic
_cell_length_a                    17.175686
_cell_length_b                    13.131979
_cell_length_c                    11.735327
_cell_angle_alpha                 100.080672
_cell_angle_beta                  87.787622
_cell_angle_gamma                 92.676816
_cell_volume                      2601.95961671

loop_
_atom_site_label
_atom_site_type_symbol
_atom_type_description
_atom_site_fract_x
_atom_site_fract_y
_atom_site_fract_z
_atom_type_partial_charge
C1    C     C_R   0.497389 0.299377 0.479122 0.791704
C2    C     C_R   0.502041 0.700374 0.521253 0.785847
C3    C     C_R   0.505045 0.813536 0.532840 -0.139653
C4    C     C_R   0.491973 0.185952 0.469624 -0.142048
C5    C     C_R   0.438986 0.018147 0.378531 -0.251644
C6    C     C_R   0.555628 0.981185 0.625835 -0.251002
C7    C     C_R   0.448130 0.124215 0.381537 -0.033063
C8    C     C_R   0.550012 0.874868 0.619530 -0.033630
C9    C     C_R   0.526688 0.138248 0.553941 -0.080848
C10   C     C_R   0.465511 0.861200 0.453346 -0.079991
C11   C     C_R   0.518824 0.029929 0.546718 0.093352
C12   C     C_R   0.474293 0.969386 0.458885 0.092214
C13   C     C_R   0.412449 0.424691 0.040408 -0.325147
C14   C     C_R   0.586773 0.577005 0.960029 -0.317310
C15   C     C_R   0.422666 0.429472 0.158715 0.075933
C16   C     C_R   0.577151 0.570833 0.841398 0.079788
C17   C     C_R   0.540423 0.529926 0.148301 0.166666
C18   C     C_R   0.458874 0.471514 0.852032 0.166104
C19   C     C_R   0.532191 0.527421 0.027504 0.009362
C20   C     C_R   0.466830 0.474661 0.973022 0.012563
C21   C     C_R   0.350699 0.502248 0.517228 0.783001
C22   C     C_R   0.649126 0.500748 0.482982 0.776625
C23   C     C_R   0.266428 0.510351 0.531456 -0.020613
C24   C     C_R   0.733131 0.513014 0.470298 0.008937
C25   C     C_R   0.218141 0.463070 0.442449 -0.229857
C26   C     C_R   0.780892 0.439255 0.499695 -0.203078
C27   C     C_R   0.138088 0.474293 0.453532 -0.150392
C28   C     C_R   0.861385 0.455259 0.495324 -0.136943
C29   C     C_R   0.105617 0.536699 0.551721 0.128498
C30   C     C_R   0.894588 0.547584 0.466333 0.120737
C31   C     C_R   0.153944 0.582836 0.641619 -0.176276
C32   C     C_R   0.846451 0.619306 0.431874 -0.169576
C33   C     C_R   0.233973 0.569133 0.631882 -0.150304
C34   C     C_R   0.765945 0.601309 0.432484 -0.154334
C35   C     C_2   0.020434 0.549888 0.562464 -0.094886
C36   C     C_2   0.979909 0.568394 0.470752 -0.094384
Cu1   Cu    Cu3+1 0.505800 0.507690 0.615350 0.952695
Cu2   Cu    Cu3+1 0.494200 0.492310 0.384650 0.956348
H1    H     H_    0.242400 0.417597 0.364479 0.145128
H2    H     H_    0.755983 0.369355 0.525023 0.119826
H3    H     H_    0.620516 0.606405 0.790645 0.166147
H4    H     H_    0.379541 0.393033 0.209257 0.159891
H5    H     H_    0.361756 0.381549 0.003224 0.180732
H6    H     H_    0.637447 0.620288 0.997208 0.177426
H7    H     H_    0.729162 0.657689 0.407051 0.126874
H8    H     H_    0.270688 0.606798 0.701190 0.166705
H9    H     H_    0.129806 0.630209 0.718591 0.138363
H10   H     H_    0.871015 0.689948 0.406949 0.140375
H11   H     H_    0.897735 0.396547 0.516750 0.132680
H12   H     H_    0.101514 0.434705 0.385085 0.134642
H13   H     H_    0.402825 0.974359 0.312080 0.160405
H14   H     H_    0.592268 0.024917 0.691753 0.163592
N1    N     N_R   0.514530 0.519260 0.788680 -0.214847
N2    N     N_R   0.485470 0.480740 0.211320 -0.211918
O1    O     O_R   0.504120 0.354440 0.581590 -0.594067
O2    O     O_R   0.495880 0.645560 0.418410 -0.594407
O3    O     O_R   0.494320 0.341440 0.386760 -0.572129
O4    O     O_R   0.505680 0.658560 0.613240 -0.575911
O5    O     O_R   0.391870 0.507230 0.608700 -0.581519
O6    O     O_R   0.608130 0.492770 0.391300 -0.569698
O7    O     O_R   0.382070 0.494240 0.413880 -0.587161
O8    O     O_R   0.617930 0.505760 0.586120 -0.585247
C37   C     C_R   0.019360 0.607752 0.370584 0.125610
C38   C     C_R   0.004886 0.558301 0.256647 -0.160254
C39   C     C_R   0.040711 0.596279 0.162667 -0.136475
C40   C     C_R   0.090332 0.684579 0.181504 -0.108031
C41   C     C_R   0.104106 0.735160 0.294350 -0.160981
C42   C     C_R   0.069124 0.696808 0.388667 -0.145461
H15   H     H_    0.966437 0.489900 0.240722 0.132281
H16   H     H_    0.029904 0.557352 0.075211 0.140745
H17   H     H_    0.117964 0.713953 0.108672 0.128360
H18   H     H_    0.142290 0.803827 0.308797 0.136372
H19   H     H_    0.080199 0.736982 0.475628 0.126278
C43   C     C_R   0.980718 0.536829 0.674786 0.121099
C44   C     C_R   0.995959 0.451450 0.726832 -0.150112
C45   C     C_R   0.958851 0.439168 0.832011 -0.158820
C46   C     C_R   0.906716 0.512181 0.886487 -0.121250
C47   C     C_R   0.891905 0.597867 0.836152 -0.132710
C48   C     C_R   0.928802 0.610488 0.730947 -0.137128
H20   H     H_    0.035918 0.393902 0.685364 0.135401
H21   H     H_    0.970533 0.373016 0.871317 0.130640
H22   H     H_    0.878121 0.502659 0.968002 0.140884
H23   H     H_    0.852105 0.654742 0.879003 0.122925
H24   H     H_    0.917318 0.677804 0.693508 0.118632
C49   C     C_R   0.414312 0.797944 0.365749 0.140289
C50   C     C_R   0.438714 0.777156 0.248502 -0.160930
C51   C     C_R   0.392353 0.713457 0.167513 -0.132257
C52   C     C_R   0.322155 0.668819 0.203175 -0.095036
C53   C     C_R   0.297965 0.688426 0.319739 -0.128716
C54   C     C_R   0.343526 0.753201 0.400839 -0.131125
H25   H     H_    0.493781 0.809654 0.220359 0.110688
H26   H     H_    0.411276 0.697764 0.077330 0.139513
H27   H     H_    0.286754 0.618525 0.140645 0.139650
H28   H     H_    0.244191 0.652773 0.347487 0.153995
H29   H     H_    0.324512 0.766976 0.491107 0.107370
C55   C     C_R   0.570310 0.200339 0.651607 0.153857
C56   C     C_R   0.646916 0.237493 0.633889 -0.131500
C57   C     C_R   0.688391 0.292465 0.727104 -0.134010
C58   C     C_R   0.653851 0.309715 0.838248 -0.083191
C59   C     C_R   0.577971 0.271531 0.856674 -0.147564
C60   C     C_R   0.536031 0.217588 0.763717 -0.171539
H30   H     H_    0.674368 0.222736 0.548340 0.102694
H31   H     H_    0.747613 0.320864 0.713724 0.129295
H32   H     H_    0.686072 0.352046 0.910228 0.145016
H33   H     H_    0.551654 0.283669 0.943018 0.141197
H34   H     H_    0.477261 0.188237 0.778990 0.110459
C61   C     C_R   0.598365 0.832611 0.700426 0.151234
C62   C     C_R   0.669281 0.788182 0.660878 -0.132695
C63   C     C_R   0.721783 0.764744 0.739776 -0.152152
C64   C     C_R   0.703863 0.786173 0.858648 -0.151885
C65   C     C_R   0.632823 0.829191 0.898537 -0.155278
C66   C     C_R   0.580251 0.852648 0.819806 -0.135216
H35   H     H_    0.684990 0.775758 0.569565 0.100395
H36   H     H_    0.776662 0.731252 0.708814 0.135636
H37   H     H_    0.744575 0.768819 0.919937 0.126811
H38   H     H_    0.618852 0.845288 0.990507 0.127539
H39   H     H_    0.526506 0.889081 0.851818 0.122207
C67   C     C_R   0.405308 0.165607 0.294016 0.154411
C68   C     C_R   0.433927 0.151594 0.178825 -0.124270
C69   C     C_R   0.386899 0.170666 0.090858 -0.159533
C70   C     C_R   0.310848 0.202802 0.117229 -0.141771
C71   C     C_R   0.282332 0.217969 0.231901 -0.170574
C72   C     C_R   0.329475 0.199930 0.320317 -0.152170
H40   H     H_    0.491602 0.122664 0.156848 0.121502
H41   H     H_    0.409012 0.159210 0.002091 0.124890
H42   H     H_    0.274202 0.216547 0.048936 0.133640
H43   H     H_    0.223280 0.242204 0.251948 0.128693
H44   H     H_    0.305887 0.208466 0.408262 0.119568
C73   C     C_2   0.391353 0.414218 0.793844 0.364063
H45   H     H_    0.399651 0.349749 0.724018 0.091371
O9    O     O_2   0.325093 0.439704 0.823239 -0.585397
C74   C     C_2   0.607777 0.587490 0.206482 0.365196
H46   H     H_    0.599338 0.652941 0.275109 0.076764
O10   O     O_2   0.674039 0.561461 0.177902 -0.580417

loop_
_geom_bond_atom_site_label_1
_geom_bond_atom_site_label_2
_ccdc_geom_bond_type
C51   C52   A    
C35   C43   S    
C27   C29   A    
C61   C66   A    
C19   C20   A    
C56   C57   A    
C54   H29   S    
C10   C49   S    
C46   C47   A    
C59   H33   S    
C24   C26   A    
C21   O5    A    
C50   H25   S    
C22   O6    A    
C66   H39   S    
C57   H31   S    
C53   H28   S    
C62   C63   A    
C18   C20   A    
C41   H18   S    
C71   H43   S    
C67   C68   A    
C18   N1    A    
C16   N1    A    
C47   H23   S    
C58   C59   A    
C74   H46   S    
C23   C33   A    
C61   C62   A    
C31   C33   A    
C65   H38   S    
C36   C37   S    
C44   H20   S    
C21   O7    A    
C56   H30   S    
C13   C20   A    
C27   H12   S    
Cu2   O7    S    
Cu1   N1    S    
C58   H32   S    
C31   H9    S    
C55   C60   A    
C17   C74   S    
C33   H8    S    
C32   H10   S    
C7    C67   S    
C4    C7    A    
Cu1   O8    S    
C43   C44   A    
C41   C42   A    
C15   N2    A    
C45   C46   A    
C5    C12   A    
C3    C8    A    
C6    C11   A    
C5    C7    A    
C17   N2    A    
C69   H41   S    
C6    C8    A    
C42   H19   S    
C68   H40   S    
C24   C34   A    
C64   C65   A    
C35   C36   D    
C32   C34   A    
C62   H35   S    
C44   C45   A    
Cu1   Cu2   S    
C1    O3    A    
C22   O8    A    
Cu2   O3    S    
C28   H11   S    
C40   H17   S    
Cu2   N2    S    
C49   C54   A    
C55   C56   A    
C34   H7    S    
C38   H15   S    
C9    C11   A    
C9    C55   S    
C70   C71   A    
Cu1   O5    S    
C10   C12   A    
C63   H36   S    
Cu2   O6    S    
C57   C58   A    
C43   C48   A    
C13   C15   A    
C22   C24   S    
C53   C54   A    
C8    C61   S    
C13   H5    S    
C69   C70   A    
C14   H6    S    
C73   H45   S    
C60   H34   S    
C29   C35   S    
C52   H27   S    
C65   C66   A    
C50   C51   A    
C14   C19   A    
Cu1   O4    S    
C15   H4    S    
C49   C50   A    
C45   H21   S    
C68   C69   A    
C2    O4    A    
C25   C27   A    
C37   C42   A    
C26   C28   A    
C30   C36   S    
C1    C4    S    
C38   C39   A    
C21   C23   S    
C2    C3    S    
C1    O1    A    
C70   H42   S    
C29   C31   A    
C3    C10   A    
C2    O2    A    
C63   C64   A    
C25   H1    S    
C30   C32   A    
C47   C48   A    
C26   H2    S    
C72   H44   S    
C48   H24   S    
C46   H22   S    
C16   H3    S    
C28   C30   A    
C59   C60   A    
C17   C19   A    
C40   C41   A    
C14   C16   A    
C67   C72   A    
C23   C25   A    
C37   C38   A    
Cu1   O1    S    
Cu2   O2    S    
C52   C53   A    
C74   O10   D    
C39   C40   A    
C71   C72   A    
C5    H13   S    
C18   C73   S    
C6    H14   S    
C4    C9    A    
C51   H26   S    
C64   H37   S    
C39   H16   S    
C11   C12   A    
C73   O9    D    
