data_mof_unit_35667.cif
_audit_creation_date              2012-12-11T14:39:27-0500
_audit_creation_method            fapswitch 2.2
_symmetry_space_group_name_H-M    P1
_symmetry_Int_Tables_number       1
_space_group_crystal_system       triclinic
_cell_length_a                    7.219379
_cell_length_b                    14.09734
_cell_length_c                    16.299576
_cell_angle_alpha                 89.999934
_cell_angle_beta                  97.376129
_cell_angle_gamma                 89.999944
_cell_volume                      1645.14608786

loop_
_atom_site_label
_atom_site_type_symbol
_atom_type_description
_atom_site_fract_x
_atom_site_fract_y
_atom_site_fract_z
_atom_type_partial_charge
O1    O     O_R   0.525340 0.338340 0.164530 -0.542407
O2    O     O_R   0.474660 0.661660 0.835470 -0.542407
O3    O     O_R   0.974660 0.838340 0.835470 -0.542406
O4    O     O_R   0.025340 0.161660 0.164530 -0.542406
O5    O     O_R   0.253520 0.352000 0.336710 -0.539429
O6    O     O_R   0.746480 0.648000 0.663290 -0.539429
O7    O     O_R   0.246480 0.852000 0.663290 -0.539429
O8    O     O_R   0.753520 0.148000 0.336710 -0.539429
O9    O     O_R   0.083330 0.168380 0.337300 -0.535458
O10   O     O_R   0.916670 0.831620 0.662700 -0.535458
O11   O     O_R   0.416670 0.668380 0.662700 -0.535459
O12   O     O_R   0.583330 0.331620 0.337300 -0.535459
C1    C     C_R   0.432316 0.368696 0.363670 0.689179
C2    C     C_R   0.567684 0.631304 0.636330 0.689179
C3    C     C_R   0.067684 0.868696 0.636330 0.689179
C4    C     C_R   0.932316 0.131304 0.363670 0.689179
O13   O     O_R   0.195840 0.349670 0.165140 -0.542238
O14   O     O_R   0.804160 0.650330 0.834860 -0.542238
O15   O     O_R   0.304160 0.849670 0.834860 -0.542238
O16   O     O_R   0.695840 0.150330 0.165140 -0.542238
C5    C     C_R   0.357192 0.371989 0.137695 0.738089
C6    C     C_R   0.642808 0.628011 0.862305 0.738089
C7    C     C_R   0.142808 0.871989 0.862305 0.738089
C8    C     C_R   0.857192 0.128011 0.137695 0.738089
O17   O     O_3   0.387830 0.193120 0.250910 -0.376186
O18   O     O_3   0.612170 0.806880 0.749090 -0.376186
O19   O     O_3   0.112170 0.693120 0.749090 -0.376186
O20   O     O_3   0.887830 0.306880 0.250910 -0.376186
V1    V     V_3+5 0.113010 0.264540 0.250910 1.402559
V2    V     V_3+5 0.886990 0.735460 0.749090 1.402559
V3    V     V_3+5 0.386990 0.764540 0.749090 1.402558
V4    V     V_3+5 0.613010 0.235460 0.250910 1.402558
H1    H     H_    0.156864 0.828436 0.265904 0.118240
H2    H     H_    0.843136 0.171564 0.734096 0.118240
H3    H     H_    0.343100 0.328441 0.734094 0.118238
H4    H     H_    0.656900 0.671559 0.265906 0.118238
C9    C     C_R   0.867982 0.185148 0.528076 -0.144776
C10   C     C_R   0.132018 0.814852 0.471924 -0.144776
C11   C     C_R   0.632027 0.685147 0.471925 -0.144772
C12   C     C_R   0.367973 0.314853 0.528075 -0.144772
C13   C     C_R   0.835731 0.212844 0.607060 -0.116335
C14   C     C_R   0.164268 0.787156 0.392940 -0.116335
C15   C     C_R   0.664288 0.712841 0.392941 -0.116333
C16   C     C_R   0.335712 0.287158 0.607059 -0.116333
C17   C     C_R   0.867691 0.149629 0.672766 -0.132514
C18   C     C_R   0.132309 0.850371 0.327234 -0.132514
C19   C     C_R   0.632335 0.649625 0.327236 -0.132509
C20   C     C_R   0.367665 0.350375 0.672764 -0.132509
C21   C     C_R   0.932333 0.058328 0.659950 -0.139736
C22   C     C_R   0.067667 0.941672 0.340050 -0.139736
C23   C     C_R   0.567687 0.558325 0.340051 -0.139737
C24   C     C_R   0.432313 0.441675 0.659949 -0.139738
C25   C     C_R   0.965361 0.028118 0.580261 0.062282
C26   C     C_R   0.034639 0.971881 0.419739 0.062282
C27   C     C_R   0.534648 0.528117 0.419739 0.062280
C28   C     C_R   0.465352 0.471883 0.580261 0.062280
C29   C     C_R   0.932544 0.092593 0.513118 0.056843
C30   C     C_R   0.067456 0.907407 0.486882 0.056843
C31   C     C_R   0.567461 0.592592 0.486882 0.056844
C32   C     C_R   0.432539 0.407408 0.513118 0.056845
C33   C     C_R   0.032793 0.935809 0.566910 -0.174420
C34   C     C_R   0.967207 0.064191 0.433090 -0.174420
C35   C     C_R   0.467208 0.435809 0.433090 -0.174421
C36   C     C_R   0.532792 0.564191 0.566909 -0.174421
H5    H     H_    0.786627 0.283887 0.617377 0.134866
H6    H     H_    0.213373 0.716113 0.382623 0.134866
H7    H     H_    0.713396 0.783885 0.382624 0.134868
H8    H     H_    0.286604 0.216115 0.617376 0.134868
H9    H     H_    0.956910 0.012076 0.713207 0.106367
H10   H     H_    0.043090 0.987924 0.286793 0.106367
H11   H     H_    0.543115 0.512072 0.286794 0.106371
H12   H     H_    0.456885 0.487928 0.713206 0.106371
C37   C     C_2   0.149943 0.942035 0.930592 -0.337467
C38   C     C_2   0.850057 0.057965 0.069408 -0.337467
C39   C     C_2   0.350057 0.442035 0.069408 -0.337467
C40   C     C_2   0.649943 0.557965 0.930592 -0.337467
C41   C     C_2   0.996124 0.965667 0.965477 -0.132588
C42   C     C_2   0.003876 0.034333 0.034523 -0.132588
C43   C     C_2   0.503876 0.465667 0.034523 -0.132588
C44   C     C_2   0.496124 0.534333 0.965477 -0.132588
H13   H     H_    0.842965 0.237341 0.479252 0.119084
H14   H     H_    0.157035 0.762658 0.520748 0.119084
H15   H     H_    0.657040 0.737341 0.520748 0.119083
H16   H     H_    0.342960 0.262658 0.479252 0.119083
H17   H     H_    0.138119 0.066170 0.056641 0.158382
H18   H     H_    0.861881 0.933830 0.943359 0.158382
H19   H     H_    0.361881 0.566172 0.943360 0.158381
H20   H     H_    0.638119 0.433828 0.056640 0.158381
H21   H     H_    0.716229 0.026155 0.046516 0.127658
H22   H     H_    0.283771 0.973845 0.953484 0.127658
H23   H     H_    0.783771 0.526154 0.953484 0.127658
H24   H     H_    0.216229 0.473846 0.046516 0.127658

loop_
_geom_bond_atom_site_label_1
_geom_bond_atom_site_label_2
_ccdc_geom_bond_type
O1    C5    A    
C12   C32   A    
C27   C31   A    
O13   V1    S    
C12   H16   S    
O3    C7    A    
C6    C40   S    
O15   V3    S    
C29   C34   A    
C41   C42   S    
C31   C36   A    
C22   C26   A    
C4    C34   S    
C32   C35   A    
C38   H21   S    
O20   V1    S    
O9    C4    A    
C37   H22   S    
C10   C14   A    
C44   H19   S    
O10   C3    A    
C26   C30   A    
O4    C8    A    
O11   C2    A    
H4    C19   S    
C14   C18   A    
C10   C30   A    
C25   C33   A    
O16   C8    A    
C27   C35   A    
O2    C6    A    
C28   C36   A    
O14   V2    S    
C12   C16   A    
O5    C1    A    
O4    V1    S    
O9    V1    S    
C30   C33   A    
O7    C3    A    
O11   V3    S    
O18   V3    S    
O8    C4    A    
C21   H9    S    
C10   H14   S    
O19   V2    S    
C9    C13   A    
H1    C18   S    
C9    H13   S    
C23   H11   S    
C7    C37   S    
H3    C20   S    
C43   H20   S    
O5    V1    S    
O7    V3    S    
O8    V4    S    
C25   C29   A    
C19   C23   A    
C26   C34   A    
O1    V4    S    
O13   C5    A    
C28   C32   A    
O2    V3    S    
O3    V2    S    
O15   C7    A    
C24   H12   S    
O6    C2    A    
O10   V2    S    
C1    C35   S    
C17   C21   A    
C11   C31   A    
C3    C33   S    
H2    C17   S    
C39   H24   S    
C2    C36   S    
C42   H17   S    
O6    V2    S    
C41   H18   S    
C16   H8    S    
O12   V4    S    
O16   V4    S    
C5    C39   S    
C37   C41   D    
O14   C6    A    
C40   C44   D    
C11   C15   A    
C18   C22   A    
C22   H10   S    
C11   H15   S    
C8    C38   S    
C39   C43   D    
O17   V4    S    
C21   C25   A    
C23   C27   A    
C13   H5    S    
C40   H23   S    
C43   C44   S    
C16   C20   A    
C20   C24   A    
O12   C1    A    
C15   H7    S    
C38   C42   D    
C14   H6    S    
C13   C17   A    
C15   C19   A    
C9    C29   A    
C24   C28   A    
