data_mof_unit_48823.cif
_audit_creation_date              2012-12-11T14:35:59-0500
_audit_creation_method            fapswitch 2.2
_symmetry_space_group_name_H-M    P1
_symmetry_Int_Tables_number       1
_space_group_crystal_system       triclinic
_cell_length_a                    13.468103
_cell_length_b                    13.439526
_cell_length_c                    27.537503
_cell_angle_alpha                 90.318967
_cell_angle_beta                  89.575981
_cell_angle_gamma                 60.265882
_cell_volume                      4327.79259679

loop_
_atom_site_label
_atom_site_type_symbol
_atom_type_description
_atom_site_fract_x
_atom_site_fract_y
_atom_site_fract_z
_atom_type_partial_charge
C1    C     C_R   0.619765 0.101144 0.570385 0.547312
C2    C     C_1   0.630046 0.731106 0.616254 -0.006978
C3    C     C_3   0.754242 0.559299 0.767392 -0.094269
C4    C     C_3   0.680739 0.653254 0.805233 0.011227
C5    C     C_3   0.644598 0.591505 0.738033 -0.137066
C6    C     C_3   0.661842 0.680973 0.710408 0.071338
C7    C     C_3   0.571555 0.684385 0.776635 -0.113348
C8    C     C_3   0.588543 0.774358 0.748338 -0.140005
C9    C     C_1   0.689995 0.632984 0.857657 -0.060401
C10   C     C_1   0.647962 0.703020 0.658162 -0.021551
C11   C     C_3   0.023592 0.251190 0.727566 -0.096392
C12   C     C_R   0.599271 0.779367 0.568759 0.543743
C13   C     C_3   0.040386 0.154531 0.762843 -0.110048
C14   C     C_1   0.034925 0.238199 0.894426 -0.015848
C15   C     C_1   0.219544 0.142213 0.615556 -0.012680
C16   C     C_3   0.073690 0.298449 0.765916 -0.096401
C17   C     C_3   0.090982 0.201634 0.800314 0.048100
C18   C     C_3   0.195343 0.220333 0.744949 -0.098946
C19   C     C_3   0.144890 0.173262 0.707335 0.054233
C20   C     C_3   0.212181 0.123824 0.780040 -0.100760
C21   C     C_3   0.162307 0.076361 0.741733 -0.102649
C22   C     C_1   0.061095 0.219815 0.852062 -0.063377
C23   C     C_R   0.276547 0.122151 0.569403 0.551657
C24   C     C_1   0.181264 0.156992 0.656289 -0.053553
C25   C     C_3   0.600806 0.281629 0.740891 -0.099288
C26   C     C_3   0.550954 0.235488 0.780045 -0.099376
C27   C     C_1   0.692636 0.208471 0.902674 -0.016772
C28   C     C_1   0.634354 0.132931 0.618636 -0.014207
C29   C     C_3   0.713577 0.233521 0.769675 -0.102935
C30   C     C_3   0.663537 0.187146 0.808007 0.053876
C31   C     C_3   0.762817 0.118399 0.741429 -0.104189
C32   C     C_3   0.650328 0.166731 0.713399 0.053320
C33   C     C_3   0.712961 0.072369 0.780484 -0.104095
C34   C     C_R   0.622502 0.099556 0.431198 0.546301
C35   C     C_3   0.600290 0.120340 0.751731 -0.101748
C36   C     C_1   0.675786 0.197867 0.860455 -0.058892
C37   C     C_1   0.642754 0.151549 0.660922 -0.057815
C38   C     C_R   0.737744 0.705124 0.360283 -0.132154
C39   C     C_R   0.750963 0.683439 0.310291 0.014869
C40   C     C_R   0.763764 0.659674 0.208647 0.015815
C41   C     C_R   0.849791 0.667272 0.234001 -0.127577
C42   C     C_R   0.842597 0.680643 0.284520 -0.129720
C43   C     C_R   0.771698 0.641557 0.158338 -0.134423
C44   C     C_R   0.685686 0.631360 0.134140 -0.004825
C45   C     C_R   0.603153 0.774270 0.430889 0.541708
C46   C     C_R   0.569590 0.682307 0.360707 -0.139362
C47   C     C_R   0.576548 0.669159 0.310682 0.012829
C48   C     C_R   0.666543 0.671507 0.285158 0.064410
C49   C     C_R   0.490315 0.661895 0.285620 -0.132600
C50   C     C_R   0.491443 0.660121 0.235198 -0.129410
C51   C     C_R   0.581459 0.660478 0.209575 0.012691
C52   C     C_R   0.670553 0.664205 0.234436 0.063570
C53   C     C_R   0.586835 0.650408 0.159506 -0.127883
C54   C     C_R   0.642636 0.711881 0.384803 -0.003524
C55   C     C_R   0.189320 0.074177 0.360108 0.253668
C56   C     C_R   0.280309 0.119955 0.430298 0.574163
C57   C     C_R   0.159696 0.089323 0.310561 0.022011
C58   C     C_R   0.113302 0.112605 0.210699 0.011365
C59   C     C_R   0.085499 0.043302 0.238929 -0.146712
C60   C     C_R   0.107618 0.032445 0.288528 -0.118969
C61   C     C_R   0.086643 0.128024 0.161696 -0.131580
C62   C     C_R   0.104594 0.206208 0.134632 -0.004421
C63   C     C_R   0.250137 0.217106 0.352792 -0.175789
C64   C     C_R   0.229130 0.226421 0.303647 -0.005435
C65   C     C_R   0.184096 0.162441 0.282202 0.020152
C66   C     C_R   0.254185 0.298145 0.275646 -0.117479
C67   C     C_3   0.769159 0.650108 0.739540 0.312667
C68   C     C_R   0.233894 0.307412 0.226083 -0.125035
C69   C     C_R   0.187003 0.246110 0.204285 0.018283
C70   C     C_R   0.162375 0.172886 0.232318 0.067867
C71   C     C_R   0.158711 0.261523 0.155429 -0.134125
C72   C     C_R   0.233597 0.139794 0.381187 0.011094
C73   C     C_R   0.567014 0.238245 0.363084 -0.138878
C74   C     C_R   0.573016 0.256237 0.313400 0.014329
C75   C     C_R   0.582208 0.286427 0.212827 0.014940
C76   C     C_R   0.502154 0.376676 0.242245 -0.130439
C77   C     C_R   0.496985 0.361400 0.292203 -0.136835
C78   C     C_3   0.697689 0.743628 0.777817 -0.109704
C79   C     C_R   0.593901 0.302460 0.163392 -0.136840
C80   C     C_R   0.678317 0.211969 0.135327 -0.005835
C81   C     C_R   0.730248 0.045893 0.354360 -0.122326
C82   C     C_R   0.733773 0.060441 0.304810 0.012273
C83   C     C_R   0.654461 0.165554 0.284023 0.064821
C84   C     C_R   0.812713 0.969528 0.275583 -0.130383
C85   C     C_R   0.812677 0.982142 0.225599 -0.134655
C86   C     C_R   0.736046 0.087010 0.204659 0.012140
C87   C     C_R   0.656861 0.179533 0.233782 0.064942
C88   C     C_R   0.742588 0.102727 0.155378 -0.132078
C89   C     C_1   0.698649 0.607494 0.899921 -0.017397
C90   C     C_R   0.643671 0.131831 0.383292 -0.000376
C91   C     C_R   0.999666 0.265327 0.944246 0.559322
C92   C     C_R   0.712015 0.562952 0.948092 0.538204
C93   C     C_R   0.722726 0.225659 0.950728 0.537221
C94   C     C_R   0.047913 0.244617 0.088244 0.559650
C95   C     C_R   0.707783 0.574433 0.086706 0.548999
C96   C     C_R   0.718151 0.233821 0.089280 0.548372
Cr1   Cr    Cr6+3 0.417550 0.169090 0.500530 1.021695
Cr2   Cr    Cr6+3 0.669180 0.913420 0.499920 1.029315
Cr3   Cr    Cr6+3 0.413260 0.917540 0.499520 1.032985
Cr4   Cr    Cr6+3 0.909170 0.177380 0.020380 1.018157
Cr5   Cr    Cr6+3 0.912710 0.429210 0.018220 1.016397
Cr6   Cr    Cr6+3 0.657170 0.432570 0.019030 1.016037
H1    H     H_    0.718356 0.805912 0.795036 0.090037
H2    H     H_    0.289462 0.071695 0.802060 0.105850
H3    H     H_    0.259379 0.247431 0.737073 0.103819
H4    H     H_    0.037677 0.389776 0.776594 0.105814
H5    H     H_    0.463898 0.283324 0.796407 0.103239
H6    H     H_    0.555012 0.367599 0.724110 0.100614
H7    H     H_    0.553725 0.073340 0.743810 0.100555
H8    H     H_    0.758307 0.987019 0.797766 0.100625
H9    H     H_    0.849654 0.070216 0.724898 0.101032
H10   H     H_    0.759971 0.280701 0.777586 0.101004
H11   H     H_    0.847557 0.628125 0.138742 0.121705
H12   H     H_    0.796102 0.725228 0.379143 0.122096
H13   H     H_    0.922029 0.663626 0.214774 0.100759
H14   H     H_    0.908497 0.688801 0.303425 0.097698
H15   H     H_    0.518792 0.644969 0.141042 0.130750
H16   H     H_    0.423165 0.656287 0.216249 0.095616
H17   H     H_    0.420398 0.660950 0.304948 0.090584
H18   H     H_    0.499055 0.682435 0.379992 0.112837
H19   H     H_    0.044024 0.085494 0.145704 0.133579
H20   H     H_    0.045107 0.998789 0.222778 0.110374
H21   H     H_    0.519724 0.862445 0.739830 0.104738
H22   H     H_    0.082709 0.980290 0.309462 0.148189
H23   H     H_    0.172559 0.321641 0.134376 0.124441
H24   H     H_    0.252796 0.364033 0.205025 0.104493
H25   H     H_    0.289077 0.347360 0.292158 0.110215
H26   H     H_    0.286382 0.266294 0.368269 0.143305
H27   H     H_    0.543476 0.386778 0.147814 0.122276
H28   H     H_    0.500238 0.304740 0.385458 0.115413
H29   H     H_    0.443885 0.458956 0.226650 0.099219
H30   H     H_    0.433939 0.431817 0.314251 0.096874
H31   H     H_    0.806083 0.031926 0.133542 0.127475
H32   H     H_    0.489476 0.699035 0.792700 0.117119
H33   H     H_    0.874482 0.910978 0.203478 0.099317
H34   H     H_    0.873812 0.888525 0.291361 0.099825
H35   H     H_    0.789812 0.963351 0.369553 0.133056
H36   H     H_    0.622637 0.529649 0.721310 0.104319
H37   H     H_    0.822793 0.471276 0.775969 0.098775
H38   H     H_    0.977076 0.126902 0.771194 0.101389
H39   H     H_    0.946299 0.303374 0.705562 0.117318
H40   H     H_    0.198830 0.984867 0.731170 0.104757
O1    O     O_R   0.301710 0.195650 0.554160 -0.504190
O2    O     O_R   0.658900 0.818120 0.449760 -0.501614
O3    O     O_R   0.503220 0.801620 0.445520 -0.537312
O4    O     O_R   0.319370 0.022040 0.450020 -0.466922
O5    O     O_3   0.499990 0.000010 0.499990 -0.251691
O6    O     O_R   0.818720 0.150820 0.967160 -0.515253
O7    O     O_R   0.006410 0.181720 0.970200 -0.490227
O8    O     O_R   0.027890 0.334070 0.964920 -0.505665
O9    O     O_R   0.809600 0.521790 0.967960 -0.513078
O10   O     O_R   0.635520 0.542770 0.964420 -0.504236
O11   O     O_R   0.665950 0.325030 0.970100 -0.495923
O12   O     O_R   0.522390 0.158990 0.550460 -0.495677
O13   O     O_R   0.816620 0.158530 0.074540 -0.523800
O14   O     O_R   0.004460 0.188870 0.069750 -0.499878
O15   O     O_R   0.025800 0.341780 0.072300 -0.513830
O16   O     O_R   0.807650 0.528950 0.067500 -0.498942
O17   O     O_R   0.633420 0.550490 0.071810 -0.521829
O18   O     O_R   0.664000 0.332180 0.069640 -0.498572
O19   O     O_3   0.826350 0.346390 0.019210 -0.262568
O20   O     O_R   0.694390 0.003530 0.554040 -0.501984
O21   O     O_R   0.657700 0.819660 0.549320 -0.489005
O22   O     O_R   0.501930 0.803280 0.552920 -0.511398
O23   O     O_R   0.318170 0.023580 0.549580 -0.492623
O24   O     O_R   0.303010 0.193990 0.446760 -0.534076
O25   O     O_R   0.523600 0.157450 0.450900 -0.505261
O26   O     O_R   0.695690 0.001860 0.446640 -0.519062
O27   O     O_3   0.872044 0.627101 0.715970 -0.566999
C97   C     C_3   0.943851 0.644531 0.747847 0.003734
H41   H     H_    0.033152 0.575301 0.740816 0.146507
H42   H     H_    0.926246 0.638320 0.787066 0.113952
C98   C     C_3   0.936404 0.759664 0.736963 -0.259509
H43   H     H_    0.969539 0.757063 0.699613 0.178375
H44   H     H_    0.845811 0.829209 0.738470 0.163874
C99   C     C_3   0.005416 0.786755 0.773014 -0.489467
H45   H     H_    0.971246 0.793336 0.810452 0.148305
H46   H     H_    0.999350 0.869866 0.763687 0.143682
H47   H     H_    0.096779 0.718799 0.771633 0.148618
O28   O     O_3   0.173775 0.997695 0.388196 -0.563464
C100  C     C_3   0.265238 0.885687 0.379040 -0.095457
H48   H     H_    0.349145 0.882516 0.375263 0.141342
H49   H     H_    0.249719 0.848076 0.345991 0.087580
H50   H     H_    0.271479 0.830738 0.410093 0.144728

loop_
_geom_bond_atom_site_label_1
_geom_bond_atom_site_label_2
_ccdc_geom_bond_type
C66   C68   A    
C40   C41   A    
C95   O16   A    
C73   C74   A    
C29   H10   S    
C83   C87   A    
C74   C83   A    
C43   C44   A    
C2    C12   S    
Cr2   O21   S    
C5    H36   S    
C47   C49   A    
C49   H17   S    
C100  H48   S    
C67   O27   S    
C81   H35   S    
C11   C19   S    
C20   C21   S    
C93   O6    A    
C95   O17   A    
C19   C21   S    
Cr4   O6    S    
C21   H40   S    
C85   C86   A    
C5    C6    S    
C38   H12   S    
C76   H29   S    
C86   C88   A    
C98   C99   S    
C96   O13   A    
Cr2   O5    S    
Cr1   O24   S    
C79   H27   S    
O27   C97   S    
Cr5   O8    S    
C17   C20   S    
C66   H25   S    
C59   H20   S    
C61   H19   S    
C18   C19   S    
C41   C42   A    
C69   C71   A    
C55   O28   S    
Cr1   O1    S    
C23   O23   A    
C44   C53   A    
C40   C43   A    
C47   C48   A    
C16   C17   S    
C56   C72   S    
C74   C77   A    
C92   O10   A    
C45   O2    A    
C31   C33   S    
Cr4   O19   S    
C80   C96   S    
Cr1   O25   S    
Cr5   O19   S    
C55   C72   A    
C35   H7    S    
C16   H4    S    
Cr4   O14   S    
C25   C32   S    
C15   C23   S    
Cr3   O3    S    
Cr5   O15   S    
C59   C60   A    
C8    C78   S    
Cr1   O5    S    
C23   O1    A    
C1    O12   A    
C67   C78   S    
C41   H13   S    
C4    C7    S    
C34   O26   A    
Cr2   O20   S    
C81   C82   A    
C39   C42   A    
C99   H47   S    
C25   C29   S    
C46   H18   S    
C51   C52   A    
C13   H38   S    
C7    C8    S    
C76   C77   A    
C7    H32   S    
C100  H49   S    
C9    C89   T    
C5    C7    S    
C86   C87   A    
C58   C70   A    
C57   C60   A    
C6    C8    S    
C25   C26   S    
C98   H43   S    
C93   O11   A    
Cr5   O9    S    
Cr3   O22   S    
C51   C53   A    
C77   H30   S    
C64   C66   A    
Cr6   O17   S    
C75   C76   A    
C34   C90   S    
C4    C78   S    
C29   C30   S    
C12   O22   A    
C11   C16   S    
C31   C32   S    
C38   C54   A    
C29   C31   S    
C61   C62   A    
C46   C54   A    
C92   O9    A    
C50   C51   A    
C13   C21   S    
C1    C28   S    
C15   C24   T    
C32   C37   S    
C84   C85   A    
C89   C92   S    
C11   H39   S    
Cr6   O11   S    
C98   H44   S    
C85   H33   S    
C81   C90   A    
Cr4   O13   S    
C42   H14   S    
C99   H45   S    
C96   O18   A    
Cr3   O4    S    
C45   C54   S    
C26   C30   S    
C94   O15   A    
C82   C84   A    
C62   C94   S    
Cr4   O7    S    
C49   C50   A    
C45   O3    A    
C27   C93   S    
C3    H37   S    
Cr5   O16   S    
Cr6   O18   S    
C3    C4    S    
C2    C10   T    
C68   H24   S    
C6    C67   S    
O28   C100  S    
C91   O7    A    
C100  H50   S    
C75   C87   A    
Cr3   O5    S    
C73   H28   S    
C84   H34   S    
C30   C33   S    
Cr2   O2    S    
C78   H1    S    
C50   H16   S    
C68   C69   A    
C16   C18   S    
C3    C67   S    
C32   C35   S    
C63   H26   S    
C57   C65   A    
C63   C64   A    
C3    C5    S    
Cr1   O12   S    
C26   H5    S    
C6    C10   S    
C91   O8    A    
C8    H21   S    
C60   H22   S    
C18   C20   S    
C20   H2    S    
C30   C36   S    
C27   C36   T    
C17   C22   S    
C13   C17   S    
C64   C65   A    
C14   C22   T    
C55   C57   A    
C19   C24   S    
C58   C59   A    
C18   H3    S    
C80   C88   A    
C44   C95   S    
C40   C52   A    
C43   H11   S    
C12   O21   A    
C11   C13   S    
C38   C39   A    
C97   H42   S    
C28   C37   T    
C58   C61   A    
Cr6   O19   S    
C99   H46   S    
C33   C35   S    
C62   C71   A    
C53   H15   S    
C56   O4    A    
C69   C70   A    
C14   C91   S    
C46   C47   A    
C1    O20   A    
C79   C80   A    
C26   C35   S    
C48   C52   A    
C63   C72   A    
C73   C90   A    
C94   O14   A    
C82   C83   A    
C97   H41   S    
C56   O24   A    
C31   H9    S    
C34   O25   A    
C71   H23   S    
C33   H8    S    
C88   H31   S    
C4    C9    S    
C75   C79   A    
Cr2   O26   S    
C65   C70   A    
C25   H6    S    
Cr6   O10   S    
C39   C48   A    
Cr3   O23   S    
C97   C98   S    
