data_mof_unit_5137.cif
_audit_creation_date              2012-10-26T19:25:57-0400
_audit_creation_method            fapswitch 2.2
_symmetry_space_group_name_H-M    P1
_symmetry_Int_Tables_number       1
_space_group_crystal_system       triclinic
_cell_length_a                    15.02759
_cell_length_b                    13.856756
_cell_length_c                    11.664893
_cell_angle_alpha                 89.999429
_cell_angle_beta                  89.297663
_cell_angle_gamma                 90.00037
_cell_volume                      2428.8407303

loop_
_atom_site_label
_atom_site_type_symbol
_atom_type_description
_atom_site_fract_x
_atom_site_fract_y
_atom_site_fract_z
_atom_type_partial_charge
C1    C     C_R   0.329357 0.499961 0.498982 0.582850
C2    C     C_R   0.546610 0.205714 0.416489 0.364086
C3    C     C_R   0.564532 0.794344 0.439339 0.361174
C4    C     C_R   0.453391 0.205711 0.583512 0.364086
C5    C     C_R   0.559389 0.897038 0.429285 -0.025619
C6    C     C_R   0.445748 0.103048 0.577308 -0.023634
C7    C     C_R   0.440606 0.897036 0.570712 -0.025621
C8    C     C_R   0.554248 0.103050 0.422688 -0.023633
C9    C     C_R   0.499996 0.948470 0.499996 -0.020781
C10   C     C_R   0.499996 0.051609 0.499995 -0.019010
C11   C     C_R   0.614227 0.949576 0.352869 -0.145577
C12   C     C_R   0.670643 0.499961 0.501013 0.582821
C13   C     C_R   0.387139 0.050560 0.648966 -0.145906
C14   C     C_R   0.385775 0.949573 0.647137 -0.145584
C15   C     C_R   0.612864 0.050564 0.351039 -0.145910
C16   C     C_R   0.499957 0.500042 0.284179 0.567575
C17   C     C_R   0.500042 0.500041 0.715821 0.567547
C18   C     C_1   0.499990 0.500211 0.162480 -0.005916
C19   C     C_1   0.500006 0.500210 0.837520 -0.005932
C20   C     C_1   0.500053 0.500236 0.059887 -0.055391
C21   C     C_1   0.499942 0.500236 0.940113 -0.055405
C22   C     C_R   0.813742 0.495583 0.394665 -0.071292
C23   C     C_R   0.907368 0.497148 0.394150 -0.012946
C24   C     C_R   0.186257 0.495521 0.605324 -0.071304
C25   C     C_R   0.767037 0.499858 0.499671 -0.007744
C26   C     C_R   0.232962 0.499859 0.500322 -0.007748
C27   C     C_R   0.811837 0.504197 0.604286 0.222389
C28   C     C_R   0.188163 0.504273 0.395710 0.222376
C29   C     C_R   0.905077 0.500391 0.604674 0.025310
C30   C     C_R   0.094923 0.500461 0.395319 0.025294
C31   C     C_R   0.953039 0.498930 0.499677 0.009774
C32   C     C_R   0.046960 0.498931 0.500314 0.009777
C33   C     C_1   0.764971 0.491214 0.288087 0.200626
C34   C     C_R   0.092631 0.497085 0.605840 -0.012943
C35   C     C_1   0.235027 0.491100 0.711900 0.200632
C36   C     C_3   0.752321 0.602125 0.742743 -0.035463
C37   C     C_3   0.736808 0.604057 0.871849 -0.357800
C38   C     C_3   0.247638 0.602308 0.257330 -0.035435
C39   C     C_3   0.263189 0.604322 0.128233 -0.357818
C40   C     C_3   0.284155 0.766010 0.566012 -0.008693
C41   C     C_3   0.210035 0.755012 0.655216 -0.378449
C42   C     C_3   0.547518 0.236820 0.223013 -0.011366
C43   C     C_3   0.609244 0.266502 0.124920 -0.363810
C44   C     C_3   0.715846 0.766033 0.434066 -0.008678
C45   C     C_R   0.951083 0.498270 0.708451 -0.119534
C46   C     C_3   0.789994 0.755078 0.344892 -0.378458
C47   C     C_3   0.452523 0.236800 0.776989 -0.011359
C48   C     C_3   0.390808 0.266448 0.875108 -0.363804
C49   C     C_R   0.048916 0.498399 0.291540 -0.119547
C50   C     C_R   0.043392 0.496340 0.709155 -0.143011
C51   C     C_R   0.956608 0.496466 0.290834 -0.143012
C52   C     C_R   0.435468 0.794340 0.560665 0.361165
Cu1   Cu    Cu3+1 0.500000 0.597420 0.500000 1.041799
Cu2   Cu    Cu3+1 0.500000 0.402580 0.500000 1.081388
H1    H     H_    0.915953 0.497800 0.790017 0.154613
H2    H     H_    0.811143 0.648879 0.723348 0.107009
H3    H     H_    0.797062 0.578026 0.916516 0.150592
H4    H     H_    0.722092 0.678916 0.900273 0.103754
H5    H     H_    0.679887 0.556949 0.895564 0.179040
H6    H     H_    0.306888 0.633625 0.299484 0.156010
H7    H     H_    0.188783 0.649011 0.276730 0.107011
H8    H     H_    0.202989 0.578195 0.083525 0.150660
H9    H     H_    0.277791 0.679221 0.099864 0.103685
H10   H     H_    0.320195 0.557333 0.104526 0.178997
H11   H     H_    0.270903 0.715714 0.494472 0.142588
H12   H     H_    0.084047 0.497978 0.209974 0.154598
H13   H     H_    0.278950 0.839834 0.529054 0.101501
H14   H     H_    0.214382 0.812961 0.720514 0.133360
H15   H     H_    0.144281 0.759634 0.613121 0.095590
H16   H     H_    0.215303 0.684500 0.699053 0.180950
H17   H     H_    0.484378 0.277922 0.216734 0.157790
H18   H     H_    0.530068 0.159749 0.209527 0.101236
H19   H     H_    0.576722 0.252809 0.041548 0.086645
H20   H     H_    0.671976 0.224302 0.128283 0.151802
H21   H     H_    0.625165 0.344305 0.131135 0.198148
H22   H     H_    0.729090 0.715721 0.505595 0.142608
H23   H     H_    0.075694 0.494792 0.791569 0.126586
H24   H     H_    0.721026 0.839848 0.471051 0.101508
H25   H     H_    0.785663 0.813054 0.279625 0.133341
H26   H     H_    0.855734 0.759689 0.387023 0.095594
H27   H     H_    0.784746 0.684586 0.301011 0.180960
H28   H     H_    0.515656 0.277915 0.783260 0.157797
H29   H     H_    0.469989 0.159730 0.790451 0.101239
H30   H     H_    0.328076 0.224249 0.871739 0.151815
H31   H     H_    0.423341 0.252726 0.958467 0.086625
H32   H     H_    0.374889 0.344253 0.868934 0.198159
H33   H     H_    0.924304 0.494967 0.208420 0.126572
H34   H     H_    0.658499 0.912923 0.293605 0.143338
H35   H     H_    0.342075 0.087314 0.707434 0.143894
H36   H     H_    0.341509 0.912919 0.706408 0.143326
H37   H     H_    0.657936 0.087319 0.292580 0.143890
H38   H     H_    0.693040 0.633421 0.700640 0.156032
N1    N     N_R   0.500000 0.743810 0.500000 -0.231801
N2    N     N_R   0.500000 0.256190 0.500000 -0.227787
N3    N     N_1   0.726395 0.488492 0.202939 -0.330522
N4    N     N_1   0.273602 0.488338 0.797047 -0.330472
O1    O     O_R   0.370260 0.582280 0.500020 -0.497064
O2    O     O_3   0.235928 0.505571 0.293303 -0.568251
O3    O     O_3   0.367708 0.744559 0.616712 -0.516525
O4    O     O_3   0.589860 0.255543 0.329222 -0.519330
O5    O     O_3   0.632311 0.744571 0.383322 -0.516524
O6    O     O_3   0.410160 0.255535 0.670797 -0.519320
O7    O     O_R   0.629740 0.417720 0.499980 -0.462492
O8    O     O_R   0.629740 0.582280 0.499980 -0.497083
O9    O     O_R   0.370260 0.417720 0.500020 -0.462530
O10   O     O_R   0.500010 0.582270 0.337200 -0.477542
O11   O     O_R   0.499990 0.417730 0.662800 -0.476147
O12   O     O_R   0.499990 0.582270 0.662800 -0.477564
O13   O     O_R   0.500010 0.417730 0.337200 -0.476179
O14   O     O_3   0.764075 0.505413 0.706696 -0.568264

loop_
_geom_bond_atom_site_label_1
_geom_bond_atom_site_label_2
_ccdc_geom_bond_type
C43   H19   S    
C30   C32   A    
C27   C29   A    
C4    N2    A    
C38   O2    S    
C40   O3    S    
C35   N4    T    
C39   H10   S    
Cu2   O11   S    
C36   C37   S    
C19   C21   T    
C24   C26   A    
C7    C52   A    
C5    C11   A    
C17   O11   A    
C38   C39   S    
Cu1   O8    S    
C47   H28   S    
C44   H22   S    
C14   H36   S    
C11   C15   A    
Cu1   O10   S    
C7    C14   A    
C47   C48   S    
C27   O14   S    
C49   C51   A    
C22   C25   A    
C4    O6    S    
C47   H29   S    
C9    C10   A    
C37   H4    S    
C16   O10   A    
C38   H7    S    
C3    O5    S    
C43   H20   S    
C2    O4    S    
C47   O6    S    
C13   C14   A    
C33   N3    T    
C44   C46   S    
C16   O13   A    
C41   H14   S    
C43   H21   S    
C34   C50   A    
C24   C35   S    
C49   H12   S    
Cu1   N1    S    
Cu2   O7    S    
C2    N2    A    
C12   O7    A    
C4    C6    A    
C17   O12   A    
C51   H33   S    
Cu1   O1    S    
Cu1   Cu2   S    
C40   H13   S    
C24   C34   A    
C48   H30   S    
Cu2   O13   S    
C29   C45   A    
C32   C34   A    
C5    C9    A    
C36   H2    S    
C42   O4    S    
C46   H27   S    
C23   C51   A    
C31   C32   A    
C11   H34   S    
C42   H18   S    
C52   N1    A    
C3    N1    A    
C37   H5    S    
C38   H6    S    
C16   C18   S    
C40   C41   S    
C30   C49   A    
C8    C15   A    
C40   H11   S    
C36   O14   S    
C1    C26   S    
C48   H32   S    
C42   C43   S    
C1    O1    A    
C50   H23   S    
C41   H15   S    
C28   O2    S    
C7    C9    A    
C22   C33   S    
Cu2   O9    S    
C13   H35   S    
C22   C23   A    
C2    C8    A    
C3    C5    A    
C6    C10   A    
C44   O5    S    
C12   O8    A    
C25   C27   A    
C39   H9    S    
C52   O3    S    
C26   C28   A    
C12   C25   S    
C44   H24   S    
C29   C31   A    
C6    C13   A    
C46   H26   S    
Cu1   O12   S    
C36   H38   S    
C46   H25   S    
C45   C50   A    
C28   C30   A    
C42   H17   S    
C17   C19   S    
C18   C20   T    
Cu2   N2    S    
C15   H37   S    
C20   C21   S    
C45   H1    S    
C8    C10   A    
C1    O9    A    
C39   H8    S    
C48   H31   S    
C37   H3    S    
C23   C31   A    
C41   H16   S    
