data_mof_unit_51430.cif
_audit_creation_date              2012-12-10T17:39:11-0500
_audit_creation_method            fapswitch 2.2
_symmetry_space_group_name_H-M    P1
_symmetry_Int_Tables_number       1
_space_group_crystal_system       triclinic
_cell_length_a                    12.110488
_cell_length_b                    12.890467
_cell_length_c                    22.115746
_cell_angle_alpha                 90.152605
_cell_angle_beta                  87.179251
_cell_angle_gamma                 93.116231
_cell_volume                      3443.20363595

loop_
_atom_site_label
_atom_site_type_symbol
_atom_type_description
_atom_site_fract_x
_atom_site_fract_y
_atom_site_fract_z
_atom_type_partial_charge
C1    C     C_R   0.520603 0.699886 0.495085 0.959879
C2    C     C_R   0.525948 0.364625 0.308677 -0.066094
C3    C     C_R   0.574321 0.541380 0.772004 0.450779
C4    C     C_R   0.571109 0.339135 0.251036 0.400889
C5    C     C_R   0.561620 0.436778 0.792683 0.064956
C6    C     C_R   0.566110 0.410406 0.203323 0.086837
C7    C     C_R   0.465091 0.187969 0.511568 -0.199928
C8    C     C_R   0.529865 0.811205 0.486809 -0.194074
C9    C     C_R   0.644810 0.968283 0.490265 0.147321
C10   C     C_R   0.346803 0.032628 0.508388 0.115158
C11   C     C_R   0.634410 0.861364 0.487444 -0.259896
C12   C     C_R   0.478595 0.300037 0.505999 0.929603
C13   C     C_R   0.359691 0.139490 0.511227 -0.100809
C14   C     C_R   0.434524 0.868579 0.480369 0.357935
C15   C     C_R   0.556894 0.128216 0.518503 0.287923
C16   C     C_R   0.498762 0.493638 0.611939 0.944814
C17   C     C_R   0.500294 0.499442 0.387447 1.031448
C18   C     C_R   0.441745 0.974359 0.495838 -0.083409
C19   C     C_R   0.548891 0.024186 0.501175 0.000948
C20   C     C_R   0.952015 0.489742 0.419432 0.381384
C21   C     C_R   0.048911 0.595279 0.561200 0.429358
C22   C     C_R   0.838979 0.462752 0.432888 0.076698
C23   C     C_R   0.470854 0.378394 0.769073 0.018860
C24   C     C_R   0.164610 0.579585 0.556019 0.104335
C25   C     C_R   0.861649 0.514135 0.535247 0.534474
C26   C     C_R   0.138868 0.484082 0.464626 0.506633
C27   C     C_R   0.977007 0.540329 0.521835 -0.264940
C28   C     C_R   0.023957 0.506248 0.467464 -0.254929
C29   C     C_R   0.548311 0.309488 0.111314 0.675373
C30   C     C_R   0.713382 0.449971 0.865001 0.653428
C31   C     C_R   0.694032 0.441182 0.116645 0.638420
C32   C     C_R   0.606515 0.295911 0.862251 0.642088
C33   C     C_R   0.724083 0.429152 0.054475 -0.183145
C34   C     C_R   0.528754 0.510035 0.215172 0.011669
C35   C     C_R   0.613855 0.276958 0.924728 -0.161161
C36   C     C_R   0.660237 0.356091 0.021277 -0.089776
C37   C     C_R   0.669911 0.355745 0.957889 -0.060189
C38   C     C_R   0.581080 0.287415 0.050911 -0.047764
C39   C     C_R   0.733647 0.435900 0.926907 -0.090514
C40   C     C_R   0.810434 0.490350 0.023224 0.468514
C41   C     C_R   0.560776 0.189800 0.956064 0.393895
C42   C     C_R   0.808739 0.500174 0.959620 -0.007826
C43   C     C_R   0.536586 0.200282 0.019294 0.003501
C44   C     C_R   0.440052 0.397233 0.709272 0.326686
C45   C     C_R   0.515547 0.544908 0.275510 0.341492
C46   C     C_R   0.495896 0.482754 0.677966 -0.265040
C47   C     C_R   0.503870 0.469881 0.322672 -0.221672
C48   C     C_R   0.546328 0.562531 0.712380 -0.063054
H1    H     H_    0.286579 0.184074 0.516551 0.246012
H2    H     H_    0.740042 0.342484 0.406664 0.215952
H3    H     H_    0.836347 0.569453 0.300925 0.385977
H4    H     H_    0.955877 0.724850 0.700330 0.412380
H5    H     H_    0.832585 0.633241 0.910264 0.267425
H6    H     H_    0.931540 0.543979 0.897330 0.263507
H7    H     H_    0.512094 0.056326 0.056709 0.268282
H8    H     H_    0.394864 0.107771 0.030289 0.258887
H9    H     H_    0.391224 0.238225 0.789593 0.308999
H10   H     H_    0.326299 0.344494 0.817115 0.241714
H11   H     H_    0.570343 0.633952 0.159422 0.281917
H12   H     H_    0.708611 0.817824 0.485520 0.217949
H13   H     H_    0.431856 0.608257 0.172869 0.255533
H14   H     H_    0.218173 0.397223 0.630453 0.375673
H15   H     H_    0.591512 0.781535 0.360251 0.396756
H16   H     H_    0.601663 0.669351 0.647943 0.236781
H17   H     H_    0.478177 0.691060 0.682126 0.202524
H18   H     H_    0.465324 0.308887 0.390897 0.188137
H19   H     H_    0.462055 0.223833 0.335984 0.211157
H20   H     H_    0.594640 0.668131 0.920118 0.399527
H21   H     H_    0.519105 0.093530 0.262102 0.376320
H22   H     H_    0.755839 0.224387 0.491251 0.334226
H23   H     H_    0.945382 0.691670 0.114580 0.412542
H24   H     H_    0.284513 0.681883 0.383827 0.421527
H25   H     H_    0.782677 0.001245 0.437263 0.220048
H26   H     H_    0.805296 0.989156 0.511505 0.262537
H27   H     H_    0.192382 0.970668 0.491397 0.283511
H28   H     H_    0.250411 0.922049 0.555048 0.256008
H29   H     H_    0.403639 0.034129 0.848703 0.414906
H30   H     H_    0.266258 0.254912 0.392980 0.376012
H31   H     H_    0.783202 0.566058 0.693226 0.410302
H32   H     H_    0.205574 0.609751 0.642506 0.220901
H33   H     H_    0.246715 0.705621 0.591938 0.246061
H34   H     H_    0.823831 0.389550 0.350768 0.233664
N1    N     N_R   0.604609 0.385157 0.142579 -0.330686
N2    N     N_3   0.508104 0.575174 0.164795 -0.395678
N3    N     N_3   0.557526 0.667252 0.689670 -0.327236
N4    N     N_3   0.512051 0.283977 0.353719 -0.395941
N5    N     N_3   0.752368 0.019463 0.480869 -0.402161
N6    N     N_3   0.240719 0.987264 0.528293 -0.363221
N7    N     N_R   0.626148 0.395228 0.840956 -0.314251
N8    N     N_R   0.207800 0.519350 0.510590 -0.151151
N9    N     N_R   0.792200 0.480650 0.489410 -0.166486
N10   N     N_3   0.237926 0.625535 0.598603 -0.376760
N11   N     N_3   0.773933 0.412037 0.387831 -0.368540
N12   N     N_3   0.880400 0.578713 0.930064 -0.332202
N13   N     N_3   0.468356 0.123282 0.052336 -0.316417
N14   N     N_3   0.402649 0.311673 0.809103 -0.360269
O1    O     O_R   0.421690 0.658830 0.502820 -0.574295
O2    O     O_2   0.778718 0.514443 0.829378 -0.532822
O3    O     O_2   0.748154 0.512389 0.150525 -0.453226
O4    O     O_2   0.584234 0.218650 0.823069 -0.427739
O5    O     O_2   0.954884 0.483783 0.112036 -0.193674
O6    O     O_2   0.022842 0.571207 0.018870 -0.240699
O7    O     O_3   0.883981 0.666338 0.089472 -0.468718
O8    O     O_2   0.614989 0.041897 0.875402 -0.175092
O9    O     O_2   0.490497 0.982708 0.959097 -0.279449
O10   O     O_3   0.410185 0.094051 0.876674 -0.511291
O11   O     O_2   0.081941 0.335195 0.383148 -0.274672
O12   O     O_R   0.578310 0.341170 0.497180 -0.617266
O13   O     O_2   0.235923 0.456735 0.353037 -0.234471
O14   O     O_3   0.265111 0.306284 0.426380 -0.578062
O15   O     O_2   0.931213 0.454048 0.642887 -0.262596
O16   O     O_2   0.749391 0.388243 0.617250 -0.167880
O17   O     O_3   0.772464 0.580042 0.649949 -0.522467
O18   O     O_2   0.088098 0.619878 0.350851 -0.209115
O19   O     O_2   0.009148 0.465999 0.300119 -0.191549
O20   O     O_3   0.881411 0.616596 0.326570 -0.477389
O21   O     O_2   0.077365 0.794703 0.597565 -0.289991
O22   O     O_2   0.887902 0.728452 0.586220 -0.253843
O23   O     O_R   0.609320 0.646410 0.496030 -0.608763
O24   O     O_3   0.992011 0.666892 0.679227 -0.496289
O25   O     O_2   0.387140 0.210245 0.661671 -0.213590
O26   O     O_2   0.242262 0.288195 0.723061 -0.286537
O27   O     O_3   0.279297 0.354673 0.615192 -0.507077
O28   O     O_2   0.622831 0.727609 0.247195 -0.251519
O29   O     O_2   0.426549 0.730819 0.277864 -0.208456
O30   O     O_3   0.570014 0.706291 0.360196 -0.549485
O31   O     O_2   0.697102 0.704202 0.813244 -0.221235
O32   O     O_2   0.497722 0.722133 0.811499 -0.219317
O33   O     O_3   0.567920 0.608188 0.895705 -0.566091
O34   O     O_R   0.390680 0.353590 0.503970 -0.531423
O35   O     O_2   0.727431 0.230848 0.190387 -0.224812
O36   O     O_2   0.693227 0.192208 0.297576 -0.285899
O37   O     O_3   0.546537 0.124613 0.222928 -0.458195
O38   O     O_2   0.603248 0.238988 0.616613 -0.194633
O39   O     O_2   0.697182 0.077946 0.603734 -0.205746
O40   O     O_3   0.766419 0.233626 0.535046 -0.467557
O41   O     O_2   0.225684 0.780095 0.481600 -0.339527
O42   O     O_2   0.282049 0.899030 0.397955 -0.249871
O43   O     O_3   0.355381 0.715373 0.396095 -0.453831
O44   O     O_R   0.406170 0.506240 0.587240 -0.591379
O45   O     O_R   0.593830 0.493760 0.412760 -0.593522
O46   O     O_R   0.593790 0.493820 0.580450 -0.539328
O47   O     O_R   0.406210 0.506180 0.419550 -0.544258
O48   O     O_2   0.458256 0.259330 0.138057 -0.460895
S1    S     S_3+6 0.923078 0.551927 0.061329 0.128676
S2    S     S_3+6 0.639199 0.220600 0.240540 0.090038
S3    S     S_3+6 0.657252 0.169525 0.570773 0.140975
S4    S     S_3+6 0.320036 0.816710 0.438983 0.057200
S5    S     S_3+6 0.520528 0.072443 0.917214 0.097174
S6    S     S_3+6 0.181289 0.396252 0.405328 0.093194
S7    S     S_3+6 0.828137 0.481079 0.612456 0.127054
S8    S     S_3+6 0.987274 0.547352 0.347415 0.133226
S9    S     S_3+6 0.999704 0.700390 0.605651 0.081980
S10   S     S_3+6 0.336181 0.311120 0.677219 0.055575
S11   S     S_3+6 0.532685 0.680762 0.289413 0.072584
S12   S     S_3+6 0.585744 0.647898 0.823318 0.096665
Zn1   Zn    Zn3+2 0.374720 0.508290 0.504530 1.087133
Zn2   Zn    Zn3+2 0.625280 0.491710 0.495470 1.070335

loop_
_geom_bond_atom_site_label_1
_geom_bond_atom_site_label_2
_ccdc_geom_bond_type
H8    N13   S    
C1    C8    S    
C41   C43   A    
C14   C18   A    
O41   S4    D    
C16   O46   A    
O18   S8    D    
C6    C34   A    
C15   C19   A    
O38   S3    D    
C10   N6    S    
C12   O34   A    
C40   S1    S    
O35   S2    D    
O34   Zn1   S    
C36   C37   A    
C35   C37   A    
C10   C18   A    
C29   N1    A    
O23   Zn2   S    
O6    S1    D    
C41   S5    S    
C14   S4    S    
C3    C48   A    
C33   C36   A    
C31   N1    A    
C23   N14   S    
O22   S9    D    
C17   O45   A    
C18   C19   A    
C1    O23   A    
O17   S7    S    
H25   N5    S    
N9    Zn2   S    
H10   N14   S    
O11   S6    D    
C9    C19   A    
H24   O43   S    
O42   S4    D    
H9    N14   S    
C29   C38   A    
C43   N13   S    
C22   N9    A    
C31   C33   A    
C45   S11   S    
C31   O3    S    
H26   N5    S    
H28   N6    S    
O5    S1    D    
O30   S11   S    
C40   C42   A    
C21   C27   A    
H34   N11   S    
H22   O40   S    
O26   S10   D    
C16   O44   A    
C34   N2    S    
O46   Zn2   S    
C30   N7    A    
C24   N10   S    
H14   O27   S    
C44   C46   A    
O47   Zn1   S    
C39   C42   A    
C45   C47   A    
C7    C12   S    
C46   C48   A    
O43   S4    S    
C25   N9    A    
C33   C40   A    
O25   S10   D    
O40   S3    S    
C32   C35   A    
C26   S6    S    
H11   N2    S    
H7    N13   S    
C1    O1    A    
C12   O12   A    
C20   C28   A    
C3    C5    A    
C29   O48   S    
C10   C13   A    
C23   C44   A    
C32   O4    S    
O15   S7    D    
O1    Zn1   S    
O8    S5    D    
H32   N10   S    
C2    C4    A    
O44   Zn1   S    
O45   Zn2   S    
C32   N7    A    
C5    C23   A    
C4    S2    S    
O16   S7    D    
H30   O14   S    
C34   C45   A    
C9    C11   A    
C13   H1    S    
H4    O24   S    
C4    C6    A    
C20   C22   A    
O39   S3    D    
H31   O17   S    
O21   S9    D    
C22   N11   S    
C21   C24   A    
C26   N8    A    
C16   C46   S    
C11   H12   S    
H16   N3    S    
O20   S8    S    
O7    S1    S    
H23   O7    S    
H29   O10   S    
H19   N4    S    
C8    C14   A    
C6    N1    S    
H5    N12   S    
C42   N12   S    
C17   C47   S    
O12   Zn2   S    
O14   S6    S    
H13   N2    S    
C24   N8    A    
O31   S12   D    
H18   N4    S    
O33   S12   S    
H2    N11   S    
H17   N3    S    
H21   O37   S    
C2    C47   A    
C25   C27   A    
O9    S5    D    
C30   O2    S    
C26   C28   A    
H3    O20   S    
C25   S7    S    
C17   O47   A    
C44   S10   S    
N8    Zn1   S    
C36   C38   A    
O13   S6    D    
O36   S2    D    
C38   C43   A    
C37   C39   A    
C9    N5    S    
C15   S3    S    
H33   N10   S    
C8    C11   A    
C7    C15   A    
O24   S9    S    
C30   C39   A    
C2    N4    S    
H20   O33   S    
C35   C41   A    
H6    N12   S    
H15   O30   S    
O32   S12   D    
C20   S8    S    
H27   N6    S    
C7    C13   A    
C3    S12   S    
O28   S11   D    
C27   C28   A    
O10   S5    S    
C21   S9    S    
C48   N3    S    
O37   S2    S    
C5    N7    S    
O29   S11   D    
O19   S8    D    
O27   S10   S    
