data_mof_unit_39814.cif
_audit_creation_date              2012-12-11T14:34:04-0500
_audit_creation_method            fapswitch 2.2
_symmetry_space_group_name_H-M    P1
_symmetry_Int_Tables_number       1
_space_group_crystal_system       triclinic
_cell_length_a                    13.839004
_cell_length_b                    13.975605
_cell_length_c                    27.339688
_cell_angle_alpha                 89.782848
_cell_angle_beta                  90.227082
_cell_angle_gamma                 119.670796
_cell_volume                      4594.37461957

loop_
_atom_site_label
_atom_site_type_symbol
_atom_type_description
_atom_site_fract_x
_atom_site_fract_y
_atom_site_fract_z
_atom_type_partial_charge
C1    C     C_R   0.233950 0.787074 0.568834 0.539714
C2    C     C_R   0.212584 0.446400 0.568801 0.542005
C3    C     C_R   0.552752 0.765157 0.569057 0.539097
C4    C     C_3   0.658245 0.734042 0.790584 -0.212221
C5    C     C_3   0.244425 0.953751 0.783138 -0.211950
C6    C     C_3   0.053864 0.310020 0.785346 -0.211665
C7    C     C_3   0.638045 0.721105 0.734613 -0.213517
C8    C     C_3   0.260786 0.938500 0.728331 -0.213083
C9    C     C_3   0.071366 0.344311 0.730693 -0.213213
C10   C     C_1   0.706934 0.862770 0.860124 -0.073474
C11   C     C_1   0.113731 0.881053 0.852524 -0.072144
C12   C     C_1   0.113950 0.230669 0.852213 -0.073241
C13   C     C_1   0.628719 0.814107 0.659069 -0.075643
C14   C     C_1   0.177318 0.818853 0.656434 -0.075910
C15   C     C_1   0.178619 0.357953 0.656356 -0.076045
C16   C     C_1   0.601077 0.795806 0.616789 -0.017476
C17   C     C_1   0.199270 0.805928 0.615293 -0.017917
C18   C     C_1   0.193052 0.392915 0.615216 -0.017874
C19   C     C_R   0.067430 0.153253 0.096601 0.559467
C20   C     C_R   0.777236 0.884118 0.088371 0.591773
C21   C     C_R   0.116733 0.892449 0.087728 0.591062
C22   C     C_R   0.069126 0.160308 0.943265 0.529739
C23   C     C_R   0.779598 0.887172 0.950753 0.555272
C24   C     C_R   0.090703 0.929676 0.943287 0.526047
C25   C     C_R   0.614554 0.894984 0.361597 -0.133191
C26   C     C_R   0.098036 0.729765 0.362671 -0.134402
C27   C     C_R   0.265280 0.357509 0.365820 -0.134124
C28   C     C_R   0.641501 0.911696 0.312184 0.014213
C29   C     C_R   0.081784 0.739106 0.312836 0.015784
C30   C     C_R   0.244344 0.307730 0.319876 0.015006
C31   C     C_R   0.676400 0.929778 0.210230 -0.013935
C32   C     C_R   0.061721 0.750377 0.210456 -0.011295
C33   C     C_R   0.210308 0.234966 0.222018 -0.000387
C34   C     C_R   0.232463 0.788304 0.431752 0.548164
C35   C     C_R   0.211221 0.443740 0.431852 0.551168
C36   C     C_R   0.555709 0.767494 0.431990 0.549203
C37   C     C_R   0.639787 0.994895 0.234570 -0.141307
C38   C     C_R   0.982187 0.659052 0.237477 -0.134149
C39   C     C_R   0.312711 0.267679 0.245919 -0.120374
C40   C     C_R   0.623415 0.986394 0.284994 -0.130335
C41   C     C_R   0.992307 0.653693 0.288028 -0.128127
C42   C     C_R   0.329251 0.303486 0.294247 -0.127809
C43   C     C_R   0.695336 0.937446 0.159034 -0.014770
C44   C     C_R   0.052873 0.759426 0.159179 -0.005275
C45   C     C_R   0.196346 0.211946 0.171321 0.001304
C46   C     C_R   0.728475 0.866442 0.137290 0.014331
C47   C     C_R   0.136070 0.854502 0.134918 0.012652
C48   C     C_R   0.091638 0.181073 0.148911 -0.006979
C49   C     C_R   0.666279 0.752332 0.365340 -0.132892
C50   C     C_R   0.264409 0.909979 0.361306 -0.130171
C51   C     C_R   0.074935 0.321816 0.369636 -0.131340
C52   C     C_R   0.693532 0.767999 0.316060 0.014702
C53   C     C_R   0.252027 0.918382 0.311442 0.015251
C54   C     C_R   0.052839 0.271950 0.323765 0.013239
C55   C     C_R   0.678005 0.845795 0.288883 0.069411
C56   C     C_R   0.161384 0.831737 0.286725 0.068805
C57   C     C_R   0.139004 0.268268 0.297924 0.066898
C58   C     C_R   0.727123 0.700540 0.292796 -0.124425
C59   C     C_R   0.333962 0.008164 0.285472 -0.127618
C60   C     C_R   0.948262 0.232763 0.301951 -0.126952
C61   C     C_R   0.740128 0.706207 0.242458 -0.119946
C62   C     C_R   0.328506 0.010323 0.234861 -0.127921
C63   C     C_R   0.931076 0.196270 0.253709 -0.117944
C64   C     C_R   0.722089 0.781061 0.215195 0.005819
C65   C     C_R   0.238970 0.924713 0.209987 0.006882
C66   C     C_R   0.017885 0.197969 0.226811 0.013972
C67   C     C_3   0.565275 0.854152 0.737149 -0.214199
C68   C     C_3   0.142175 0.733392 0.739053 -0.215744
C69   C     C_3   0.271606 0.391498 0.737211 -0.216085
C70   C     C_R   0.693509 0.853372 0.238099 0.054502
C71   C     C_R   0.153251 0.835969 0.235706 0.053343
C72   C     C_R   0.121774 0.231550 0.249117 0.051657
C73   C     C_R   0.734314 0.785085 0.165271 -0.141802
C74   C     C_R   0.232423 0.929445 0.159796 -0.148005
C75   C     C_R   0.003252 0.170953 0.177436 -0.150383
C76   C     C_R   0.619546 0.810070 0.387170 -0.002900
C77   C     C_R   0.193143 0.812193 0.386138 -0.004080
C78   C     C_R   0.182632 0.370146 0.389546 -0.003891
C79   C     C_3   0.769092 0.923746 0.723041 -0.215845
C80   C     C_3   0.054542 0.846834 0.714060 -0.213535
C81   C     C_3   0.124999 0.200315 0.712966 -0.213416
C82   C     C_3   0.788802 0.936764 0.779111 -0.215745
C83   C     C_3   0.037029 0.862674 0.768782 -0.217275
C84   C     C_3   0.107335 0.166308 0.767581 -0.219354
C85   C     C_1   0.734310 0.873354 0.902488 -0.018392
C86   C     C_1   0.102815 0.901548 0.894227 -0.017700
C87   C     C_1   0.095554 0.199612 0.894022 -0.022644
C88   C     C_3   0.650423 0.828485 0.711987 0.072050
C89   C     C_3   0.158584 0.833820 0.708035 0.071497
C90   C     C_3   0.162105 0.323977 0.707878 0.071863
C91   C     C_3   0.585292 0.866861 0.793271 -0.214388
C92   C     C_3   0.124176 0.749664 0.793825 -0.211337
C93   C     C_3   0.253938 0.356963 0.791913 -0.211586
C94   C     C_3   0.684589 0.850425 0.807235 0.071168
C95   C     C_3   0.129192 0.861910 0.800986 0.069993
C96   C     C_3   0.132159 0.265478 0.800694 0.069899
Cr1   Cr    Cr6+3 0.164410 0.584450 0.499910 1.017442
Cr2   Cr    Cr6+3 0.415550 0.579960 0.499910 1.017851
Cr3   Cr    Cr6+3 0.420040 0.835590 0.499910 1.014703
Cr4   Cr    Cr6+3 0.155170 0.075460 0.019960 1.069294
Cr5   Cr    Cr6+3 0.924540 0.079710 0.019960 1.064646
Cr6   Cr    Cr6+3 0.920290 0.844830 0.019960 1.066826
H1    H     H_    0.602272 0.950080 0.804785 0.116318
H2    H     H_    0.042121 0.681557 0.806097 0.118759
H3    H     H_    0.312004 0.326922 0.802618 0.116123
H4    H     H_    0.478997 0.786796 0.729728 0.108559
H5    H     H_    0.216317 0.722563 0.735544 0.107769
H6    H     H_    0.300152 0.481060 0.734148 0.108106
H7    H     H_    0.508968 0.805287 0.812673 0.116005
H8    H     H_    0.189207 0.745952 0.816508 0.119835
H9    H     H_    0.273892 0.429867 0.815032 0.120282
H10   H     H_    0.728592 0.720145 0.800221 0.112787
H11   H     H_    0.252974 0.036160 0.788883 0.105578
H12   H     H_    0.965617 0.245744 0.791328 0.110228
H13   H     H_    0.579621 0.940975 0.378658 0.129571
H14   H     H_    0.041783 0.654760 0.382017 0.124303
H15   H     H_    0.348077 0.393039 0.381421 0.126922
H16   H     H_    0.622003 0.051928 0.215174 0.100618
H17   H     H_    0.912496 0.589965 0.220081 0.099078
H18   H     H_    0.382342 0.269623 0.227176 0.106011
H19   H     H_    0.593647 0.036301 0.302546 0.102013
H20   H     H_    0.931070 0.581571 0.307615 0.102517
H21   H     H_    0.410150 0.332142 0.310912 0.103678
H22   H     H_    0.757104 0.728700 0.148649 0.134150
H23   H     H_    0.298779 0.998384 0.140466 0.132213
H24   H     H_    0.922970 0.144916 0.160552 0.112766
H25   H     H_    0.763270 0.651289 0.224736 0.100128
H26   H     H_    0.393884 0.079379 0.215183 0.097068
H27   H     H_    0.851410 0.171373 0.236719 0.111614
H28   H     H_    0.739275 0.640694 0.313239 0.103549
H29   H     H_    0.404221 0.074708 0.304134 0.097256
H30   H     H_    0.881184 0.234558 0.321482 0.104887
H31   H     H_    0.572589 0.931331 0.721786 0.113426
H32   H     H_    0.069170 0.656809 0.725223 0.112916
H33   H     H_    0.338325 0.378236 0.721742 0.113304
H34   H     H_    0.671951 0.688193 0.385431 0.125859
H35   H     H_    0.336796 0.975166 0.379486 0.129332
H36   H     H_    0.009916 0.329036 0.388360 0.128220
H37   H     H_    0.832010 0.906986 0.705868 0.108497
H38   H     H_    0.064514 0.919043 0.692615 0.109633
H39   H     H_    0.046216 0.149799 0.692395 0.109978
H40   H     H_    0.780325 0.002082 0.707205 0.111552
H41   H     H_    0.979690 0.772680 0.699681 0.112691
H42   H     H_    0.189005 0.183411 0.697116 0.111328
H43   H     H_    0.809716 0.021453 0.790187 0.110067
H44   H     H_    0.953780 0.796022 0.780688 0.109763
H45   H     H_    0.162873 0.133411 0.777886 0.107944
H46   H     H_    0.860920 0.926088 0.788777 0.100347
H47   H     H_    0.037769 0.941591 0.773403 0.099059
H48   H     H_    0.020150 0.100110 0.773091 0.101237
H49   H     H_    0.553188 0.651058 0.727202 0.111330
H50   H     H_    0.337329 0.932110 0.723820 0.111416
H51   H     H_    0.096059 0.432959 0.727459 0.111040
H52   H     H_    0.698585 0.700875 0.717499 0.112529
H53   H     H_    0.273172 0.012249 0.707430 0.112749
H54   H     H_    0.991514 0.296368 0.710519 0.114112
H55   H     H_    0.583199 0.670157 0.809960 0.117558
H56   H     H_    0.311414 0.951519 0.804932 0.119587
H57   H     H_    0.070444 0.382217 0.808298 0.121529
O1    O     O_R   0.137150 0.468200 0.553200 -0.512144
O2    O     O_R   0.531800 0.668950 0.553200 -0.511842
O3    O     O_R   0.331050 0.862850 0.553200 -0.510139
O4    O     O_R   0.179100 0.982980 0.967000 -0.493209
O5    O     O_R   0.017020 0.196120 0.967000 -0.471782
O6    O     O_R   0.803880 0.820900 0.967000 -0.507439
O7    O     O_R   0.173970 0.688730 0.549930 -0.500866
O8    O     O_R   0.311270 0.485240 0.549930 -0.500313
O9    O     O_R   0.514760 0.826030 0.549930 -0.498884
O10   O     O_R   0.140110 0.470540 0.446010 -0.521223
O11   O     O_R   0.529460 0.669570 0.446010 -0.519928
O12   O     O_R   0.330430 0.859890 0.446010 -0.523650
O13   O     O_R   0.176710 0.690910 0.450560 -0.502129
O14   O     O_R   0.309090 0.485800 0.450560 -0.502292
O15   O     O_R   0.514200 0.823290 0.450560 -0.505106
O16   O     O_3   0.333333 0.666667 0.499990 -0.262364
O17   O     O_R   0.176750 0.985260 0.074180 -0.539012
O18   O     O_R   0.014740 0.191490 0.074180 -0.475067
O19   O     O_R   0.808510 0.823250 0.074180 -0.522980
O20   O     O_R   0.146100 0.172630 0.068980 -0.425841
O21   O     O_R   0.827370 0.973470 0.068980 -0.487075
O22   O     O_R   0.026530 0.853900 0.068980 -0.456736
O23   O     O_3   1.000000 0.000000 0.020040 -0.317711
O24   O     O_R   0.148270 0.170520 0.969620 -0.480914
O25   O     O_R   0.829480 0.977750 0.969620 -0.512025
O26   O     O_R   0.022250 0.851730 0.969620 -0.466390
C97   C     C_2   0.681717 0.018703 0.128791 0.228541
H58   H     H_    0.705929 0.099846 0.143002 0.086607
O27   O     O_2   0.641682 0.994963 0.087767 -0.479794
C98   C     C_2   0.957700 0.671795 0.131453 0.246450
H59   H     H_    0.874584 0.631416 0.146705 0.076400
O28   O     O_2   0.972049 0.642541 0.091402 -0.469737
C99   C     C_2   0.293836 0.228415 0.142406 0.258964
H60   H     H_    0.331354 0.177706 0.149444 0.070033
O29   O     O_2   0.337190 0.303862 0.112969 -0.454470

loop_
_geom_bond_atom_site_label_1
_geom_bond_atom_site_label_2
_ccdc_geom_bond_type
C15   C18   T    
C79   H37   S    
C43   C46   A    
C10   C85   T    
C36   O15   A    
Cr1   O16   S    
C2    C18   S    
C33   C45   A    
C14   C17   T    
C27   C78   A    
C92   H8    S    
C81   C84   S    
C6    C9    S    
C6    H57   S    
C53   C59   A    
C50   H35   S    
C20   O21   A    
C54   C60   A    
C25   C28   A    
C21   O22   A    
C40   H19   S    
C7    H52   S    
C59   H29   S    
C67   C88   S    
C33   C39   A    
Cr1   O13   S    
C31   C43   A    
C60   C63   A    
C82   C94   S    
C67   H31   S    
C37   C40   A    
C69   C93   S    
C25   H13   S    
C34   C77   S    
C53   C56   A    
C79   H40   S    
Cr3   O12   S    
C10   C94   S    
C11   C86   T    
Cr1   O7    S    
C83   H44   S    
C30   C57   A    
Cr2   O11   S    
Cr1   O10   S    
C84   C96   S    
C80   C89   S    
C98   O28   D    
C8    H53   S    
C6    H12   S    
C36   C76   S    
C33   C72   A    
C93   H3    S    
C23   O6    A    
C28   C55   A    
C31   C70   A    
C66   C72   A    
C37   H16   S    
C7    C88   S    
C9    H54   S    
C28   C40   A    
Cr4   O17   S    
C64   C73   A    
C68   H5    S    
C32   C38   A    
C39   C42   A    
Cr4   O23   S    
C19   O18   A    
Cr2   O8    S    
C12   C87   T    
C44   C47   A    
C5    H11   S    
C56   C71   A    
C58   C61   A    
C81   H39   S    
C4    H10   S    
C63   C66   A    
C9    H51   S    
C69   H33   S    
C27   C30   A    
C48   C75   A    
C60   H30   S    
C80   C83   S    
C79   C88   S    
C5    C95   S    
C69   H6    S    
C42   H21   S    
C32   C71   A    
C81   H42   S    
C26   C77   A    
C50   C53   A    
Cr1   O1    S    
C83   H47   S    
C47   C74   A    
C38   C41   A    
Cr2   O14   S    
C3    O2    A    
C19   C48   S    
C20   O19   A    
C43   C97   S    
C4    C7    S    
C65   C71   A    
C92   C95   S    
C65   C74   A    
C31   C37   A    
C24   O26   A    
Cr6   O23   S    
C41   H20   S    
C61   C64   A    
Cr5   O23   S    
C64   C70   A    
C14   C89   S    
C22   O24   A    
C80   H41   S    
C44   C98   S    
Cr4   O24   S    
Cr3   O3    S    
C22   O5    A    
C45   C99   S    
C4    H55   S    
C73   H22   S    
C83   C95   S    
C67   C91   S    
C68   C89   S    
C32   C44   A    
C49   C76   A    
C61   H25   S    
C22   C87   S    
Cr5   O25   S    
C52   C58   A    
C93   H9    S    
C7    H49   S    
C81   C90   S    
C49   H34   S    
C1    O3    A    
C93   C96   S    
C6    C96   S    
C35   O10   A    
C4    C94   S    
C24   O4    A    
C38   H17   S    
C97   O27   D    
C69   C90   S    
C50   C77   A    
C19   O20   A    
Cr2   O2    S    
C34   O13   A    
Cr3   O9    S    
C45   C48   A    
C11   C95   S    
C34   O12   A    
C59   C62   A    
C35   C78   S    
C62   C65   A    
C29   C41   A    
Cr6   O22   S    
C1    C17   S    
Cr5   O5    S    
C30   C42   A    
C49   C52   A    
C91   H1    S    
C8    H50   S    
C9    C90   S    
C79   C82   S    
C82   H46   S    
C52   C55   A    
C67   H4    S    
C29   C56   A    
C84   H45   S    
Cr6   O26   S    
C35   O14   A    
C36   O11   A    
C51   C54   A    
C99   H60   S    
C25   C76   A    
C75   H24   S    
C68   H32   S    
C51   C78   A    
C23   O25   A    
Cr5   O21   S    
C80   H38   S    
C91   C94   S    
C62   H26   S    
Cr2   O16   S    
C91   H7    S    
Cr3   O15   S    
C1    O7    A    
C58   H28   S    
Cr6   O19   S    
C66   C75   A    
C13   C88   S    
Cr6   O6    S    
C68   C92   S    
Cr4   O4    S    
C63   H27   S    
C57   C72   A    
C98   H59   S    
C21   O17   A    
C26   H14   S    
C55   C70   A    
Cr5   O18   S    
C92   H2    S    
C74   H23   S    
C51   H36   S    
Cr3   O16   S    
C82   H43   S    
C26   C29   A    
C2    O1    A    
C5    H56   S    
C23   C85   S    
C13   C16   T    
C5    C8    S    
C12   C96   S    
C8    C89   S    
C27   H15   S    
C21   C47   S    
C97   H58   S    
Cr4   O20   S    
C24   C86   S    
C2    O8    A    
C46   C73   A    
C20   C46   S    
C3    C16   S    
C39   H18   S    
C99   O29   D    
C3    O9    A    
C15   C90   S    
C54   C57   A    
C84   H48   S    
