data_mof_unit_12896.cif
_audit_creation_date              2012-12-10T17:21:12-0500
_audit_creation_method            fapswitch 2.2
_symmetry_space_group_name_H-M    P1
_symmetry_Int_Tables_number       1
_space_group_crystal_system       triclinic
_cell_length_a                    10.356141
_cell_length_b                    11.032762
_cell_length_c                    10.97959
_cell_angle_alpha                 89.994152
_cell_angle_beta                  93.784712
_cell_angle_gamma                 82.462623
_cell_volume                      1240.89286903

loop_
_atom_site_label
_atom_site_type_symbol
_atom_type_description
_atom_site_fract_x
_atom_site_fract_y
_atom_site_fract_z
_atom_type_partial_charge
C1    C     C_R   0.445166 0.507404 0.268384 0.958075
C2    C     C_3   0.495159 0.883314 0.506936 -0.163204
C3    C     C_3   0.522142 0.932815 0.644122 -0.073812
C4    C     C_3   0.356613 0.948913 0.448518 0.342359
C5    C     C_2   0.412741 0.493329 0.138529 -0.029821
C6    C     C_2   0.497674 0.515885 0.057459 0.146808
C7    C     C_2   0.588161 0.460611 0.861051 0.001869
C8    C     C_2   0.487394 0.471407 0.933168 -0.217387
C9    C     C_2   0.065743 0.513643 0.477278 -0.012574
C10   C     C_2   0.923037 0.514839 0.507659 0.155557
C11   C     C_R   0.499506 0.259451 0.501166 0.856976
C12   C     C_R   0.554641 0.478230 0.730251 0.859133
C13   C     C_R   0.500976 0.742970 0.505006 0.909284
C14   C     C_3   0.615035 0.060994 0.426499 0.308464
C15   C     C_3   0.612561 0.920225 0.431489 -0.186235
C16   C     C_3   0.519076 0.079144 0.648245 0.234261
C17   C     C_3   0.364637 0.091719 0.444643 -0.148491
C18   C     C_3   0.500927 0.124577 0.505517 -0.184681
H1    H     H_    0.389550 0.466983 0.893684 0.181418
H2    H     H_    0.091231 0.483795 0.386816 0.138657
H3    H     H_    0.880956 0.393534 0.380367 0.184226
H4    H     H_    0.700306 0.882505 0.487882 0.199763
H5    H     H_    0.622714 0.889600 0.666468 0.171766
H6    H     H_    0.294327 0.138322 0.504790 0.176397
N1    N     N_2   0.157300 0.551950 0.551120 -0.090238
N2    N     N_2   0.842730 0.448000 0.448950 -0.214660
O1    O     O_R   0.568940 0.489540 0.307530 -0.573784
O2    O     O_R   0.348880 0.522880 0.340350 -0.587063
O3    O     O_R   0.610030 0.298130 0.483570 -0.568095
O4    O     O_R   0.389960 0.331470 0.516390 -0.649146
O5    O     O_R   0.651120 0.477120 0.659650 -0.652627
O6    O     O_R   0.431060 0.510460 0.692470 -0.656452
O7    O     O_R   0.610040 0.668530 0.483610 -0.644206
O8    O     O_R   0.389970 0.701870 0.516430 -0.601972
Zn1   Zn    Zn3+2 0.646940 0.477740 0.478080 0.966891
Zn2   Zn    Zn3+2 0.353060 0.522260 0.521920 0.933829
I1    I     I_    0.817701 0.092543 0.472784 -0.497284
C19   C     C_3   0.236355 0.927449 0.526465 -0.358521
C20   C     C_3   0.112451 0.896721 0.457337 -0.797350
H7    H     H_    0.080471 0.959883 0.380239 0.292756
H8    H     H_    0.124805 0.800661 0.425299 0.289772
H9    H     H_    0.034066 0.906843 0.520981 0.255215
H10   H     H_    0.259807 0.854522 0.594629 0.231787
H11   H     H_    0.203278 0.006158 0.583395 0.168518
C21   C     C_3   0.402616 0.147817 0.723925 -0.440629
C22   C     C_3   0.408348 0.138442 0.865721 -0.840652
H12   H     H_    0.505518 0.103648 0.909350 0.279782
H13   H     H_    0.379839 0.229957 0.905007 0.269620
H14   H     H_    0.336860 0.079966 0.895964 0.262576
H15   H     H_    0.399811 0.246767 0.708781 0.229078
H16   H     H_    0.305764 0.125947 0.692816 0.189561
C23   C     C_3   0.451828 0.887938 0.754171 -0.425212
C24   C     C_3   0.461133 0.753179 0.776920 -0.852646
H17   H     H_    0.378789 0.718301 0.726759 0.285015
H18   H     H_    0.558815 0.708025 0.755566 0.257570
H19   H     H_    0.445263 0.736519 0.873747 0.281566
H20   H     H_    0.502459 0.918994 0.837688 0.265446
H21   H     H_    0.348323 0.927200 0.755117 0.225042
I2    I     I_    0.612325 0.659837 0.085500 -0.495167
C25   C     C_3   0.731516 0.448162 0.910141 -0.327628
C26   C     C_3   0.814222 0.332798 0.870557 -0.898494
H22   H     H_    0.782478 0.253677 0.916704 0.276421
H23   H     H_    0.808718 0.322034 0.770230 0.279932
H24   H     H_    0.917916 0.336582 0.901455 0.272799
H25   H     H_    0.775320 0.529282 0.881081 0.220251
H26   H     H_    0.741040 0.442236 0.011106 0.262842
I3    I     I_    0.236735 0.419781 0.087772 -0.486674
C27   C     C_3   0.872692 0.599937 0.607287 -0.277164
C28   C     C_3   0.903970 0.730142 0.595150 -0.975246
H27   H     H_    0.004961 0.742042 0.625183 0.265181
H28   H     H_    0.887103 0.760534 0.499251 0.283753
H29   H     H_    0.839774 0.789090 0.652986 0.244917
H30   H     H_    0.770770 0.611557 0.607420 0.282050
H31   H     H_    0.894164 0.558775 0.699113 0.173329
I4    I     I_    0.611930 0.146679 0.243588 -0.389498
C29   C     C_3   0.151306 0.529437 0.682967 -0.124911
C30   C     C_3   0.145638 0.394745 0.713617 -0.860066
H32   H     H_    0.042964 0.376106 0.712028 0.243953
H33   H     H_    0.195014 0.334526 0.645668 0.268917
H34   H     H_    0.192158 0.371791 0.805938 0.257032
H35   H     H_    0.232523 0.562589 0.734148 0.199212
H36   H     H_    0.080121 0.589493 0.730490 0.154557
C31   C     C_3   0.634459 0.859116 0.305726 -0.276130
C32   C     C_3   0.777620 0.835536 0.271872 -0.762362
H37   H     H_    0.838976 0.900921 0.312372 0.280587
H38   H     H_    0.821386 0.741674 0.300129 0.258384
H39   H     H_    0.782463 0.843296 0.171558 0.277852
H40   H     H_    0.597640 0.771006 0.303852 0.259500
H41   H     H_    0.575908 0.910319 0.230539 0.258925
C33   C     C_3   0.646060 0.122732 0.717198 -0.339972
C34   C     C_3   0.750781 0.027935 0.780377 -0.886611
H42   H     H_    0.708950 0.969393 0.845252 0.267353
H43   H     H_    0.804163 0.972982 0.711879 0.268328
H44   H     H_    0.825595 0.073412 0.832460 0.264197
H45   H     H_    0.693918 0.182029 0.660923 0.233621
H46   H     H_    0.620011 0.191612 0.787518 0.220422
C35   C     C_3   0.310056 0.157603 0.321442 -0.309072
C36   C     C_3   0.159920 0.173826 0.302959 -0.785148
H47   H     H_    0.111732 0.179551 0.390500 0.258937
H48   H     H_    0.124030 0.259546 0.252172 0.264495
H49   H     H_    0.126994 0.098511 0.247381 0.280216
H50   H     H_    0.338812 0.250422 0.317114 0.240215
H51   H     H_    0.350322 0.110644 0.240943 0.258163
I5    I     I_    0.320225 0.867346 0.264857 -0.424495

loop_
_geom_bond_atom_site_label_1
_geom_bond_atom_site_label_2
_ccdc_geom_bond_type
H3    N2    S    
C11   C18   S    
C16   C33   S    
C28   H29   S    
C14   C18   S    
C3    H5    S    
C32   H39   S    
C5    I3    S    
C35   C36   S    
C9    N1    D    
C7    C8    D    
C20   H8    S    
C21   C22   S    
C19   H11   S    
C22   H14   S    
C1    C5    S    
O6    Zn2   S    
C32   H38   S    
C5    C6    D    
C24   H19   S    
C21   H16   S    
C27   H31   S    
C26   H23   S    
C28   H28   S    
C2    C13   S    
C15   H4    S    
C11   O4    A    
C27   C28   S    
C1    O2    A    
C9    C10   S    
C35   H50   S    
C30   H32   S    
C10   N2    D    
C30   H33   S    
C31   H40   S    
C25   H26   S    
C12   O6    A    
C28   H27   S    
C20   H9    S    
C24   H18   S    
C7    C12   S    
C31   H41   S    
C22   H13   S    
C17   H6    S    
C8    H1    S    
C33   H45   S    
C29   C30   S    
C29   H36   S    
C34   H42   S    
C6    C8    S    
O1    Zn1   S    
C27   H30   S    
C24   H17   S    
C25   C26   S    
C16   C21   S    
C26   H24   S    
C2    C4    S    
C13   O7    A    
C34   H43   S    
C9    H2    S    
C31   C32   S    
C17   C18   S    
C32   H37   S    
C2    C15   S    
O2    Zn2   S    
C35   H51   S    
C23   H21   S    
C4    C17   S    
C4    C19   S    
C25   H25   S    
C36   H48   S    
C12   O5    A    
O5    Zn1   S    
C7    C25   S    
C20   H7    S    
C23   C24   S    
C30   H34   S    
C22   H12   S    
C6    I2    S    
C29   H35   S    
C15   C31   S    
C3    C23   S    
C33   H46   S    
C10   C27   S    
C36   H49   S    
O3    Zn1   S    
O4    Zn2   S    
N1    C29   S    
C14   I4    S    
C2    C3    S    
C13   O8    A    
C14   I1    S    
C33   C34   S    
C19   C20   S    
C21   H15   S    
C4    I5    S    
O7    Zn1   S    
O8    Zn2   S    
C26   H22   S    
C23   H20   S    
N1    Zn2   S    
N2    Zn1   S    
C19   H10   S    
C11   O3    A    
C16   C18   S    
C36   H47   S    
C1    O1    A    
C14   C15   S    
C17   C35   S    
C3    C16   S    
C34   H44   S    
