data_mof_unit_32099.cif
_audit_creation_date              2012-10-26T20:59:12-0400
_audit_creation_method            fapswitch 2.2
_symmetry_space_group_name_H-M    P1
_symmetry_Int_Tables_number       1
_space_group_crystal_system       triclinic
_cell_length_a                    15.912592
_cell_length_b                    9.088347
_cell_length_c                    7.791092
_cell_angle_alpha                 89.996433
_cell_angle_beta                  90.058865
_cell_angle_gamma                 89.993363
_cell_volume                      1126.74055871

loop_
_atom_site_label
_atom_site_type_symbol
_atom_type_description
_atom_site_fract_x
_atom_site_fract_y
_atom_site_fract_z
_atom_type_partial_charge
C1    C     C_1   0.500000 0.065386 0.500004 -0.016456
C2    C     C_3   0.972666 0.616326 0.588011 0.002257
C3    C     C_1   0.250100 0.500075 0.499583 0.050672
C4    C     C_1   0.749900 0.499925 0.500417 0.050672
C5    C     C_3   0.029421 0.493356 0.662972 -0.167775
C6    C     C_3   0.970579 0.506644 0.337028 -0.167775
C7    C     C_3   0.083375 0.500133 0.498187 0.050151
C8    C     C_3   0.916625 0.499867 0.501813 0.050151
C9    C     C_1   0.174812 0.500119 0.499014 0.067625
C10   C     C_1   0.825188 0.499881 0.500985 0.067625
C11   C     C_2   0.055047 0.251586 0.311794 0.230180
C12   C     C_1   0.500000 0.934613 0.499995 -0.016456
C13   C     C_2   0.944953 0.748414 0.688206 0.230180
C14   C     C_2   0.945095 0.237263 0.659807 0.230270
C15   C     C_2   0.054905 0.762737 0.340193 0.230270
C16   C     C_R   0.500001 0.220051 0.500003 0.557408
C17   C     C_R   0.499999 0.779949 0.499997 0.557408
C18   C     C_R   0.339486 0.500020 0.499886 0.550485
C19   C     C_R   0.660514 0.499980 0.500114 0.550486
C20   C     C_3   0.972726 0.376981 0.574720 0.002548
C21   C     C_3   0.027274 0.623019 0.425280 0.002548
C22   C     C_3   0.027334 0.383674 0.411989 0.002257
Cu1   Cu    Cu3+1 0.500010 0.500000 0.669080 1.078097
Cu2   Cu    Cu3+1 0.499990 0.500000 0.330920 1.078097
H1    H     H_    0.946412 0.512073 0.203399 0.126835
H2    H     H_    0.053588 0.487927 0.796601 0.126836
H3    H     H_    0.008329 0.178009 0.257804 0.114706
H4    H     H_    0.991671 0.821991 0.742196 0.114706
H5    H     H_    0.991856 0.159608 0.705239 0.115157
H6    H     H_    0.008144 0.840392 0.294761 0.115157
N1    N     N_1   0.499990 0.500000 0.076820 -0.068678
N2    N     N_1   0.500010 0.500000 0.923180 -0.068678
O1    O     O_R   0.500000 0.288400 0.642760 -0.494753
O2    O     O_2   0.870437 0.774076 0.709440 -0.472001
O3    O     O_2   0.870597 0.209944 0.678267 -0.472661
O4    O     O_2   0.129403 0.790056 0.321733 -0.472661
O5    O     O_R   0.500000 0.711600 0.357240 -0.494753
O6    O     O_R   0.500000 0.288400 0.357240 -0.494612
O7    O     O_R   0.500000 0.711600 0.642760 -0.494612
O8    O     O_R   0.379080 0.500000 0.642760 -0.503666
O9    O     O_R   0.620920 0.500000 0.357240 -0.503666
O10   O     O_R   0.379070 0.500000 0.357190 -0.485788
O11   O     O_R   0.620930 0.500000 0.642810 -0.485788
O12   O     O_2   0.129562 0.225924 0.290560 -0.472001

loop_
_geom_bond_atom_site_label_1
_geom_bond_atom_site_label_2
_ccdc_geom_bond_type
C12   C17   S    
C13   O2    D    
Cu2   O6    S    
Cu1   Cu2   S    
C5    C7    S    
C13   H4    S    
C3    C9    T    
C16   O1    A    
C7    C22   S    
Cu2   O10   S    
C11   C22   S    
N1    N2    T    
C11   H3    S    
Cu1   N2    S    
C2    C21   S    
Cu2   O5    S    
Cu2   N1    S    
C11   O12   D    
C1    C16   S    
C17   O5    A    
Cu2   O9    S    
C4    C19   S    
C8    C20   S    
C1    C12   T    
C15   H6    S    
Cu1   O7    S    
C19   O11   A    
C7    C9    S    
C18   O10   A    
C2    C5    S    
C20   C22   S    
C14   H5    S    
C4    C10   T    
Cu1   O8    S    
C6    H1    S    
C5    H2    S    
C14   C20   S    
C15   O4    D    
C15   C21   S    
Cu1   O11   S    
C3    C18   S    
C8    C10   S    
C17   O7    A    
C14   O3    D    
C5    C20   S    
C2    C13   S    
C18   O8    A    
C6    C8    S    
C7    C21   S    
C6    C21   S    
C2    C8    S    
C19   O9    A    
C16   O6    A    
Cu1   O1    S    
C6    C22   S    
