data_mof_unit_33273.cif
_audit_creation_date              2012-12-10T17:35:35-0500
_audit_creation_method            fapswitch 2.2
_symmetry_space_group_name_H-M    P1
_symmetry_Int_Tables_number       1
_space_group_crystal_system       triclinic
_cell_length_a                    10.709295
_cell_length_b                    12.326346
_cell_length_c                    13.116027
_cell_angle_alpha                 116.357202
_cell_angle_beta                  77.236814
_cell_angle_gamma                 101.134529
_cell_volume                      1504.10456739

loop_
_atom_site_label
_atom_site_type_symbol
_atom_type_description
_atom_site_fract_x
_atom_site_fract_y
_atom_site_fract_z
_atom_type_partial_charge
C1    C     C_R   0.510460 0.855314 0.286352 0.782566
C2    C     C_3   0.122424 0.001215 0.499879 0.144610
C3    C     C_3   0.044202 0.019885 0.620035 -0.376111
C4    C     C_3   0.070188 0.878363 0.408156 -0.365027
C5    C     C_R   0.348208 0.278927 0.033702 -0.197547
C6    C     C_R   0.457501 0.228403 0.838004 -0.105173
C7    C     C_R   0.587027 0.817362 0.082434 -0.164780
C8    C     C_R   0.609262 0.739090 0.966573 -0.117426
C9    C     C_R   0.565473 0.615859 0.929719 -0.174019
C10   C     C_R   0.492644 0.568857 0.008430 0.100025
C11   C     C_R   0.456864 0.652174 0.124115 0.090681
C12   C     C_R   0.740012 0.999830 0.499953 0.759123
C13   C     C_R   0.455110 0.442146 0.977115 0.084230
C14   C     C_R   0.377238 0.402922 0.059519 0.128604
C15   C     C_R   0.328342 0.487791 0.167113 -0.202796
C16   C     C_R   0.364530 0.610825 0.197781 -0.186512
C17   C     C_R   0.494448 0.352886 0.867288 -0.279145
C18   C     C_R   0.389731 0.191246 0.924852 0.155316
C19   C     C_R   0.514231 0.774623 0.162791 -0.103587
C20   C     C_R   0.704531 0.344163 0.324815 -0.257910
C21   C     C_R   0.319612 0.754973 0.639872 0.115030
C22   C     C_R   0.281071 0.657701 0.670672 -0.232610
C23   C     C_R   0.481332 0.145054 0.714511 0.818302
C24   C     C_R   0.350252 0.556757 0.618745 -0.188221
C25   C     C_R   0.458447 0.550898 0.533322 -0.008944
C26   C     C_R   0.494707 0.653452 0.505339 0.252974
C27   C     C_R   0.530473 0.446897 0.473677 -0.067693
C28   C     C_R   0.634207 0.445679 0.384317 0.126023
C29   C     C_R   0.665844 0.545744 0.356023 0.073531
C30   C     C_R   0.599354 0.647637 0.417610 -0.220638
C31   C     C_R   0.503477 0.342636 0.498038 0.032817
C32   C     C_R   0.673166 0.245457 0.353300 0.061118
C33   C     C_R   0.260169 0.000571 0.500111 0.750356
C34   C     C_3   0.959962 0.104625 0.470497 -0.365285
C35   C     C_3   0.102833 0.105619 0.471240 -0.369637
C36   C     C_3   0.900069 0.020292 0.620359 -0.369489
C37   C     C_3   0.925671 0.877509 0.409370 -0.365416
C38   C     C_3   0.878302 0.000446 0.500072 0.134599
Cu1   Cu    Cu3+1 0.529690 0.098270 0.475420 0.929892
Cu2   Cu    Cu3+1 0.470310 0.901730 0.524580 0.937920
H1    H     H_    0.927989 0.194443 0.534305 0.176028
H2    H     H_    0.083787 0.801236 0.425633 0.178882
H3    H     H_    0.842752 0.947095 0.644115 0.179628
H4    H     H_    0.055796 0.945755 0.642660 0.173701
H5    H     H_    0.262365 0.458952 0.228313 0.147574
H6    H     H_    0.292775 0.249933 0.098864 0.156998
H7    H     H_    0.554068 0.378038 0.801986 0.161134
H8    H     H_    0.629791 0.911073 0.109466 0.156158
H9    H     H_    0.589221 0.560704 0.838933 0.126904
H10   H     H_    0.664996 0.773328 0.905279 0.147433
H11   H     H_    0.946866 0.092343 0.383952 0.169042
H12   H     H_    0.318010 0.672607 0.279726 0.168846
H13   H     H_    0.727293 0.167419 0.307352 0.121717
H14   H     H_    0.784131 0.339786 0.256687 0.177973
H15   H     H_    0.426712 0.335898 0.564235 0.119240
H16   H     H_    0.263533 0.831503 0.678632 0.146056
H17   H     H_    0.315305 0.483938 0.645533 0.132725
H18   H     H_    0.196664 0.660202 0.734476 0.156069
H19   H     H_    0.632297 0.720041 0.391893 0.222297
H20   H     H_    0.158275 0.094847 0.385387 0.179466
H21   H     H_    0.138766 0.195332 0.536196 0.166568
H22   H     H_    0.867121 0.108640 0.686718 0.161646
H23   H     H_    0.080766 0.107564 0.687059 0.159465
H24   H     H_    0.870481 0.801765 0.430151 0.193213
H25   H     H_    0.909233 0.860593 0.322403 0.175711
H26   H     H_    0.124381 0.864093 0.321122 0.162751
N1    N     N_R   0.574690 0.246280 0.438200 -0.178743
N2    N     N_R   0.426100 0.754320 0.561190 -0.200183
O1    O     O_R   0.537340 0.972510 0.318130 -0.577622
O2    O     O_R   0.487200 0.806530 0.359650 -0.599737
O3    O     O_R   0.707380 0.082980 0.479220 -0.589319
O4    O     O_R   0.657240 0.917000 0.520740 -0.597513
O5    O     O_R   0.512800 0.193470 0.640350 -0.592625
O6    O     O_R   0.462660 0.027490 0.681870 -0.545914
O7    O     O_R   0.342760 0.083000 0.479260 -0.587930
O8    O     O_R   0.292620 0.917020 0.520780 -0.602282
I1    I     I_    0.345707 0.009090 0.907350 -0.433694
I2    I     I_    0.811289 0.550957 0.217350 -0.471416

loop_
_geom_bond_atom_site_label_1
_geom_bond_atom_site_label_2
_ccdc_geom_bond_type
C2    C35   S    
C7    C8    A    
C31   N1    A    
C11   C19   A    
C34   H11   S    
C29   C30   A    
Cu2   O2    S    
C28   C29   A    
C15   C16   A    
C34   C35   S    
C33   O7    A    
C29   I2    S    
C8    C9    A    
C37   H25   S    
Cu1   O7    S    
C9    C10   A    
C12   O4    A    
C21   C22   A    
C34   H1    S    
C23   O5    A    
C36   H22   S    
C6    C18   A    
C3    H4    S    
C1    C19   S    
C27   C31   A    
C17   H7    S    
C9    H9    S    
C24   C25   A    
C20   H14   S    
Cu1   Cu2   S    
C24   H17   S    
C5    C18   A    
C20   C28   A    
C25   C26   A    
C1    O1    A    
Cu2   O8    S    
C35   H20   S    
C2    C4    S    
C37   C38   S    
C11   C16   A    
C33   O8    A    
C30   H19   S    
Cu1   O1    S    
C35   H21   S    
C5    C14   A    
C32   N1    A    
C2    C33   S    
C12   O3    A    
C26   C30   A    
C7    C19   A    
C21   N2    A    
C22   C24   A    
C15   H5    S    
C23   O6    A    
C8    H10   S    
C32   H13   S    
C37   H24   S    
C20   C32   A    
C6    C17   A    
Cu2   O4    S    
C34   C38   S    
Cu1   N1    S    
C16   H12   S    
C10   C13   A    
C22   H18   S    
C21   H16   S    
C3    H23   S    
C25   C27   A    
C5    H6    S    
C1    O2    A    
C13   C17   A    
C26   N2    A    
C7    H8    S    
C36   C38   S    
C2    C3    S    
C4    H26   S    
C4    H2    S    
C3    C36   S    
C18   I1    S    
C6    C23   S    
Cu2   O6    S    
Cu1   O5    S    
C12   C38   S    
C10   C11   A    
C4    C37   S    
Cu2   N2    S    
C27   C28   A    
Cu1   O3    S    
C14   C15   A    
C36   H3    S    
C31   H15   S    
C13   C14   A    
