data_mof_unit_41627.cif
_audit_creation_date              2012-12-10T17:40:57-0500
_audit_creation_method            fapswitch 2.2
_symmetry_space_group_name_H-M    P1
_symmetry_Int_Tables_number       1
_space_group_crystal_system       triclinic
_cell_length_a                    14.881439
_cell_length_b                    15.319791
_cell_length_c                    9.86199
_cell_angle_alpha                 89.458814
_cell_angle_beta                  91.294052
_cell_angle_gamma                 90.159363
_cell_volume                      2247.66065479

loop_
_atom_site_label
_atom_site_type_symbol
_atom_type_description
_atom_site_fract_x
_atom_site_fract_y
_atom_site_fract_z
_atom_type_partial_charge
C1    C     C_R   0.392096 0.870712 0.500480 0.889533
C2    C     C_R   0.387148 0.126307 0.497815 0.881372
C3    C     C_R   0.892056 0.370735 0.500475 0.889455
C4    C     C_R   0.887288 0.626407 0.497839 0.881417
C5    C     C_R   0.282708 0.223693 0.372118 0.201457
C6    C     C_R   0.311547 0.751102 0.382137 0.199657
C7    C     C_R   0.783575 0.724415 0.371873 0.201371
C8    C     C_R   0.811389 0.251233 0.382085 0.199981
C9    C     C_R   0.710811 0.778350 0.385349 -0.251001
C10   C     C_R   0.735459 0.200318 0.384722 -0.243033
C11   C     C_R   0.209975 0.277610 0.385856 -0.250859
C12   C     C_R   0.235602 0.700192 0.384756 -0.243031
C13   C     C_R   0.701145 0.827945 0.501677 -0.172435
C14   C     C_R   0.690254 0.186198 0.506055 -0.180304
C15   C     C_R   0.200864 0.327704 0.501745 -0.172066
C16   C     C_R   0.190335 0.686139 0.506059 -0.180255
C17   C     C_R   0.336092 0.992607 0.135651 -0.198048
C18   C     C_R   0.836076 0.492961 0.135660 -0.197549
C19   C     C_R   0.253998 0.984307 0.063720 0.248394
C20   C     C_R   0.753945 0.485017 0.063729 0.248385
C21   C     C_R   0.255028 0.985700 0.922732 -0.284713
C22   C     C_R   0.754986 0.486316 0.922739 -0.284549
C23   C     C_R   0.335543 0.993493 0.854841 -0.175611
C24   C     C_R   0.835531 0.493764 0.854841 -0.175581
C25   C     C_R   0.418949 0.996394 0.925110 0.163484
C26   C     C_R   0.918940 0.496554 0.925111 0.163209
C27   C     C_R   0.419048 0.996276 0.069753 0.099078
C28   C     C_R   0.919039 0.496452 0.069755 0.099183
C29   C     C_R   0.577429 0.004221 0.074331 -0.111709
C30   C     C_R   0.077439 0.504043 0.074331 -0.111699
C31   C     C_R   0.618414 0.122772 0.501427 0.875188
C32   C     C_R   0.624359 0.884208 0.501478 0.874967
C33   C     C_R   0.118440 0.622757 0.501427 0.874936
C34   C     C_R   0.124291 0.384162 0.501490 0.875039
C35   C     C_R   0.577360 0.004450 0.930927 -0.133492
C36   C     C_R   0.077371 0.504267 0.930925 -0.133435
C37   C     C_R   0.406192 0.266259 0.700712 -0.157812
C38   C     C_R   0.359603 0.767906 0.753321 -0.134720
C39   C     C_R   0.905773 0.765846 0.701878 -0.157816
C40   C     C_R   0.859553 0.267929 0.753286 -0.134684
C41   C     C_R   0.407065 0.327570 0.804110 -0.150627
C42   C     C_R   0.318086 0.754641 0.876792 -0.137308
C43   C     C_R   0.906232 0.826784 0.805796 -0.151020
C44   C     C_R   0.818050 0.254665 0.876768 -0.137370
C45   C     C_R   0.840372 0.890702 0.807974 -0.156432
C46   C     C_R   0.727842 0.231575 0.878603 -0.156390
C47   C     C_R   0.341185 0.391472 0.806394 -0.156063
C48   C     C_R   0.227872 0.731564 0.878601 -0.156316
C49   C     C_R   0.773407 0.893274 0.707032 -0.165936
C50   C     C_R   0.681676 0.214075 0.757176 -0.169117
C51   C     C_R   0.273803 0.393671 0.706060 -0.166428
C52   C     C_R   0.181718 0.714066 0.757161 -0.169039
C53   C     C_R   0.768833 0.829018 0.604658 0.107537
C54   C     C_R   0.725826 0.218940 0.630916 0.096749
C55   C     C_R   0.268889 0.329099 0.604187 0.107421
C56   C     C_R   0.225890 0.718902 0.630920 0.096687
C57   C     C_R   0.336593 0.265316 0.600275 0.077097
C58   C     C_R   0.310786 0.758100 0.629402 0.070305
C59   C     C_R   0.836555 0.765240 0.600823 0.077213
C60   C     C_R   0.810717 0.258142 0.629378 0.070223
C61   C     C_R   0.335938 0.206394 0.490133 -0.220782
C62   C     C_R   0.342686 0.788995 0.503790 -0.198150
C63   C     C_R   0.836283 0.706653 0.490246 -0.221128
C64   C     C_R   0.842593 0.289057 0.503760 -0.198125
H1    H     H_    0.192636 0.981132 0.864426 0.153075
H2    H     H_    0.692584 0.481899 0.864430 0.152897
H3    H     H_    0.329128 0.997159 0.747398 0.226803
H4    H     H_    0.829132 0.497234 0.747386 0.226878
H5    H     H_    0.640405 0.008674 0.879123 0.139638
H6    H     H_    0.140428 0.508319 0.879111 0.139791
H7    H     H_    0.463141 0.223238 0.696997 0.151508
H8    H     H_    0.430016 0.785894 0.755424 0.158419
H9    H     H_    0.962764 0.722868 0.698333 0.151785
H10   H     H_    0.929970 0.285900 0.755378 0.158434
H11   H     H_    0.460938 0.327421 0.879772 0.134397
H12   H     H_    0.355207 0.765157 0.970620 0.147666
H13   H     H_    0.959798 0.826356 0.881953 0.134515
H14   H     H_    0.855180 0.265181 0.970586 0.147699
H15   H     H_    0.842657 0.940072 0.885824 0.134244
H16   H     H_    0.693901 0.225803 0.974265 0.142906
H17   H     H_    0.343754 0.441096 0.883845 0.134360
H18   H     H_    0.193916 0.725808 0.974252 0.142957
H19   H     H_    0.728765 0.948446 0.707596 0.159314
H20   H     H_    0.611262 0.199402 0.765330 0.156237
H21   H     H_    0.229063 0.448774 0.706683 0.159271
H22   H     H_    0.111295 0.699422 0.765285 0.156185
H23   H     H_    0.640567 0.007653 0.130611 0.143474
H24   H     H_    0.140584 0.507332 0.130613 0.143600
N1    N     N_R   0.498810 1.000000 0.142780 -0.113151
N2    N     N_R   0.998810 0.500000 0.142780 -0.113181
N3    N     N_R   0.498740 0.000000 0.857170 -0.120429
N4    N     N_R   0.998740 0.500000 0.857170 -0.120490
O1    O     O_R   0.408390 0.908380 0.614690 -0.639404
O2    O     O_R   0.408390 0.091620 0.614690 -0.641203
O3    O     O_R   0.908390 0.408380 0.614690 -0.639407
O4    O     O_R   0.908390 0.591620 0.614690 -0.641357
O5    O     O_R   0.408370 0.908380 0.385360 -0.636861
O6    O     O_R   0.408370 0.091620 0.385360 -0.630491
O7    O     O_R   0.908370 0.408380 0.385360 -0.636822
O8    O     O_R   0.908370 0.591620 0.385360 -0.630214
O9    O     O_R   0.591620 0.091610 0.614640 -0.642872
O10   O     O_R   0.591620 0.908390 0.614640 -0.629048
O11   O     O_R   0.091620 0.591610 0.614640 -0.642890
O12   O     O_R   0.091620 0.408390 0.614640 -0.629052
O13   O     O_R   0.591610 0.091610 0.385310 -0.621007
O14   O     O_R   0.591610 0.908390 0.385310 -0.624575
O15   O     O_R   0.091610 0.591610 0.385310 -0.621071
O16   O     O_R   0.091610 0.408390 0.385310 -0.624448
Zn1   Zn    Zn3+2 0.500010 0.000000 0.653130 0.910879
Zn2   Zn    Zn3+2 0.000010 0.500000 0.653130 0.910755
Zn3   Zn    Zn3+2 0.499980 0.000000 0.346870 0.919835
Zn4   Zn    Zn3+2 0.999980 0.500000 0.346870 0.919859
N5    N     N_2   0.305385 0.189894 0.241661 -0.282901
H25   H     H_    0.372139 0.199175 0.219222 0.249449
C65   C     C_3   0.247130 0.205427 0.124048 -0.803005
H26   H     H_    0.275518 0.173119 0.034326 0.255254
H27   H     H_    0.242556 0.276491 0.101328 0.239003
H28   H     H_    0.179341 0.177381 0.140792 0.248076
N6    N     N_2   0.356462 0.760058 0.256914 -0.308207
H29   H     H_    0.347501 0.818828 0.207250 0.247954
C66   C     C_3   0.446539 0.724809 0.254646 -0.769642
H30   H     H_    0.473141 0.730817 0.150711 0.222656
H31   H     H_    0.445678 0.654588 0.283819 0.241926
H32   H     H_    0.492036 0.760635 0.325341 0.246636
N7    N     N_2   0.806736 0.690936 0.241423 -0.282681
H33   H     H_    0.873612 0.700127 0.219663 0.249058
C67   C     C_3   0.748925 0.706681 0.123390 -0.802369
H34   H     H_    0.777605 0.674424 0.033833 0.255286
H35   H     H_    0.744524 0.777777 0.100844 0.238798
H36   H     H_    0.681031 0.678694 0.139474 0.248045
N8    N     N_2   0.856244 0.260238 0.256818 -0.308162
H37   H     H_    0.847295 0.319038 0.207233 0.247911
C68   C     C_3   0.946286 0.224921 0.254413 -0.769991
H38   H     H_    0.972912 0.231091 0.150513 0.222656
H39   H     H_    0.945354 0.154654 0.283290 0.241936
H40   H     H_    0.991801 0.260583 0.325284 0.246468
H41   H     H_    0.662058 0.783899 0.302900 0.184854
H42   H     H_    0.712515 0.171211 0.290260 0.179079
H43   H     H_    0.160856 0.282855 0.303854 0.184504
H44   H     H_    0.212689 0.671046 0.290308 0.179123
H45   H     H_    0.333643 0.997812 0.242305 0.236001
H46   H     H_    0.833665 0.497951 0.242339 0.235820
N9    N     N_2   0.169634 0.974304 0.129252 -0.304588
H47   H     H_    0.113810 0.996049 0.075089 0.219895
C69   C     C_3   0.164288 0.980633 0.275286 -0.808437
H48   H     H_    0.093877 0.969274 0.306121 0.237344
H49   H     H_    0.185296 0.046643 0.309232 0.256943
H50   H     H_    0.206825 0.929831 0.325581 0.245087
N10   N     N_2   0.669543 0.475346 0.129267 -0.304647
H51   H     H_    0.613783 0.497052 0.074909 0.219878
C70   C     C_3   0.664165 0.482237 0.275229 -0.808436
H52   H     H_    0.593681 0.471348 0.306080 0.237344
H53   H     H_    0.685504 0.548266 0.308628 0.256990
H54   H     H_    0.706406 0.431393 0.326010 0.244981

loop_
_geom_bond_atom_site_label_1
_geom_bond_atom_site_label_2
_ccdc_geom_bond_type
C58   C62   A    
C46   H16   S    
C40   C60   A    
O15   Zn4   S    
C13   C32   S    
C33   O15   A    
N2    Zn4   S    
C14   C31   S    
C30   N2    A    
N4    Zn2   S    
C1    C62   S    
C51   H21   S    
C29   N1    A    
C69   H48   S    
C53   C59   A    
C50   H20   S    
C54   C60   A    
C3    C64   S    
C2    O6    A    
C4    C63   S    
C50   C54   A    
O11   Zn2   S    
C31   O9    A    
C19   C21   A    
C24   C26   A    
C5    C11   A    
N10   C70   S    
C6    C12   A    
O5    Zn3   S    
O9    Zn1   S    
C65   H26   S    
C20   N10   S    
C17   H45   S    
C70   H54   S    
C23   H3    S    
C9    C13   A    
C22   H2    S    
C66   H32   S    
C11   H43   S    
C38   C58   A    
C9    H41   S    
C12   C16   A    
C48   H18   S    
C65   H27   S    
C68   H40   S    
C42   H12   S    
C70   H52   S    
C12   H44   S    
C45   C49   A    
C56   C58   A    
C15   C34   S    
C18   C20   A    
C2    C61   S    
C5    N5    S    
C36   N4    A    
C47   H17   S    
O13   Zn3   S    
C32   O14   A    
C31   O13   A    
C11   C15   A    
C67   H35   S    
C69   H49   S    
C44   C46   A    
C46   C50   A    
C13   C53   A    
O14   Zn3   S    
N6    C66   S    
C21   C23   A    
C4    O4    A    
C36   H6    S    
C38   H8    S    
C25   N3    A    
C29   H23   S    
C17   C27   A    
C18   H46   S    
C18   C28   A    
C10   C14   A    
C1    O5    A    
C47   C51   A    
O4    Zn2   S    
C34   O12   A    
O16   Zn4   S    
C15   C55   A    
C44   H14   S    
C16   C56   A    
C3    O7    A    
C16   C33   S    
C41   H11   S    
C2    O2    A    
C65   H28   S    
C39   C59   A    
C8    N8    S    
C41   C47   A    
C5    C61   A    
C45   H15   S    
C42   C48   A    
C7    N7    S    
C43   C45   A    
C7    C63   A    
C66   H30   S    
C8    C64   A    
C39   H9    S    
C8    C10   A    
C14   C54   A    
C20   C22   A    
O8    Zn4   S    
C37   H7    S    
N7    H33   S    
C22   C24   A    
C43   H13   S    
C30   H24   S    
N8    H37   S    
C6    N6    S    
C69   H50   S    
N7    C67   S    
N5    H25   S    
N9    C69   S    
C29   C35   A    
C19   N9    S    
O6    Zn3   S    
C21   H1    S    
C33   O11   A    
C59   C63   A    
N8    C68   S    
O3    Zn2   S    
C39   C43   A    
N6    H29   S    
C57   C61   A    
C32   O10   A    
C25   C27   A    
N1    Zn3   S    
O2    Zn1   S    
C26   C28   A    
C4    O8    A    
C30   C36   A    
C6    C62   A    
C60   C64   A    
C34   O16   A    
C49   H19   S    
C55   C57   A    
N9    H47   S    
C67   H36   S    
N10   H51   S    
O12   Zn2   S    
N3    Zn1   S    
C68   H38   S    
C52   C56   A    
C49   C53   A    
O7    Zn4   S    
C52   H22   S    
C17   C19   A    
C3    O3    A    
C40   H10   S    
C27   N1    A    
C51   C55   A    
C70   H53   S    
C37   C41   A    
C66   H31   S    
C24   H4    S    
C38   C42   A    
C7    C9    A    
C48   C52   A    
C23   C25   A    
C35   H5    S    
C1    O1    A    
C40   C44   A    
C68   H39   S    
O10   Zn1   S    
C28   N2    A    
C10   H42   S    
C26   N4    A    
C37   C57   A    
C67   H34   S    
O1    Zn1   S    
N5    C65   S    
C35   N3    A    
