data_mof_unit_50009.cif
_audit_creation_date              2012-10-26T18:47:34-0400
_audit_creation_method            fapswitch 2.2
_symmetry_space_group_name_H-M    P1
_symmetry_Int_Tables_number       1
_space_group_crystal_system       triclinic
_cell_length_a                    10.815304
_cell_length_b                    12.979807
_cell_length_c                    11.753291
_cell_angle_alpha                 99.197831
_cell_angle_beta                  93.488791
_cell_angle_gamma                 91.442346
_cell_volume                      1624.68076248

loop_
_atom_site_label
_atom_site_type_symbol
_atom_type_description
_atom_site_fract_x
_atom_site_fract_y
_atom_site_fract_z
_atom_type_partial_charge
C1    C     C_R   0.498305 0.299389 0.479068 0.566342
C2    C     C_R   0.489620 0.982702 0.652969 -0.071337
C3    C     C_R   0.507844 0.125272 0.357950 -0.099582
C4    C     C_R   0.492406 0.874737 0.642054 -0.100167
C5    C     C_R   0.493856 0.138457 0.565303 -0.080083
C6    C     C_R   0.506374 0.861546 0.434697 -0.079224
C7    C     C_R   0.495876 0.030519 0.554990 0.036022
C8    C     C_R   0.504426 0.969487 0.445018 0.036543
C9    C     C_R   0.389921 0.395427 0.024860 -0.139496
C10   C     C_R   0.610065 0.604585 0.975137 -0.139427
C11   C     C_R   0.400565 0.405976 0.145650 0.006747
C12   C     C_R   0.501734 0.700611 0.520931 0.566649
C13   C     C_R   0.599415 0.594036 0.854345 0.006799
C14   C     C_R   0.548326 0.545473 0.155585 0.386456
C15   C     C_R   0.451678 0.454524 0.844412 0.386460
C16   C     C_R   0.262559 0.497463 0.500106 0.581513
C17   C     C_R   0.737445 0.502533 0.499897 0.581713
C18   C     C_R   0.540311 0.538037 0.033160 0.000114
C19   C     C_R   0.459685 0.461967 0.966838 0.000132
C20   C     C_R   0.159674 0.218664 0.191934 -0.091996
C21   C     C_R   0.841213 0.780231 0.809519 -0.092196
C22   C     C_R   0.120501 0.310776 0.256070 -0.156731
C23   C     C_R   0.871314 0.502234 0.499314 0.021965
C24   C     C_R   0.880301 0.688387 0.744785 -0.156762
C25   C     C_R   0.112811 0.319411 0.375966 0.038963
C26   C     C_R   0.887264 0.680211 0.624843 0.039101
C27   C     C_R   0.144347 0.233906 0.431032 0.234460
C28   C     C_R   0.855058 0.765892 0.570345 0.234122
C29   C     C_R   0.185778 0.142625 0.366485 -0.038600
C30   C     C_R   0.813664 0.856882 0.635494 -0.038887
C31   C     C_R   0.193087 0.134866 0.247082 0.232402
C32   C     C_R   0.807067 0.864185 0.754925 0.232311
C33   C     C_R   0.926693 0.414978 0.438916 0.085309
C34   C     C_R   0.128697 0.497755 0.500706 0.021840
C35   C     C_R   0.073322 0.585015 0.561086 0.085265
C36   C     C_R   0.944089 0.587268 0.561034 0.008550
C37   C     C_R   0.055936 0.412644 0.439139 0.008371
C38   C     C_R   0.500546 0.813838 0.532890 0.003123
C39   C     C_R   0.499615 0.186166 0.467107 0.002982
C40   C     C_R   0.510720 0.017309 0.347045 -0.070224
Cl1   Cl    Cl    0.240534 0.018983 0.165854 -0.554600
Cl2   Cl    Cl    0.759506 0.979677 0.836838 -0.554261
Cl3   Cl    Cl    0.344546 0.363589 0.762723 -0.520138
Cl4   Cl    Cl    0.655480 0.636391 0.237265 -0.519784
Cl5   Cl    Cl    0.123151 0.235553 0.578327 -0.487471
Cl6   Cl    Cl    0.875328 0.764858 0.423000 -0.487545
Cu1   Cu    Cu3+1 0.509250 0.507730 0.615930 1.067388
Cu2   Cu    Cu3+1 0.490750 0.492270 0.384070 1.067502
H1    H     H_    0.650802 0.646728 0.811472 0.133936
H2    H     H_    0.789176 0.922771 0.593672 0.183066
H3    H     H_    0.512483 0.815015 0.350162 0.186336
H4    H     H_    0.487715 0.184985 0.649837 0.186140
H5    H     H_    0.487740 0.839054 0.718995 0.172817
H6    H     H_    0.512498 0.160955 0.281007 0.172610
H7    H     H_    0.517443 0.971362 0.262266 0.175621
H8    H     H_    0.482934 0.028650 0.737750 0.175405
H9    H     H_    0.349144 0.353292 0.188509 0.133633
H10   H     H_    0.327649 0.334443 0.978365 0.178854
H11   H     H_    0.672326 0.665577 0.021632 0.178857
H12   H     H_    0.164061 0.212633 0.099331 0.172677
H13   H     H_    0.837379 0.785893 0.902134 0.172908
H14   H     H_    0.093544 0.374698 0.211962 0.154889
H15   H     H_    0.907762 0.624313 0.788447 0.155213
H16   H     H_    0.209705 0.076863 0.408733 0.183291
I1    I     I_    0.815938 0.281811 0.353338 -0.238079
I2    I     I_    0.184067 0.718263 0.646487 -0.238149
N1    N     N_R   0.523180 0.519350 0.790130 -0.224230
N2    N     N_R   0.476820 0.480650 0.209870 -0.224178
O1    O     O_R   0.506570 0.354460 0.582000 -0.455061
O2    O     O_R   0.493430 0.645540 0.418000 -0.454937
O3    O     O_R   0.490940 0.341410 0.386200 -0.524668
O4    O     O_R   0.509060 0.658590 0.613800 -0.524702
O5    O     O_R   0.327460 0.506540 0.597900 -0.425149
O6    O     O_R   0.672540 0.493460 0.402100 -0.425084
O7    O     O_R   0.311830 0.493480 0.402100 -0.521308
O8    O     O_R   0.688170 0.506520 0.597900 -0.521338

loop_
_geom_bond_atom_site_label_1
_geom_bond_atom_site_label_2
_ccdc_geom_bond_type
C4    H5    S    
C27   C29   A    
C34   C37   A    
C14   C18   A    
C2    C7    A    
C33   I1    S    
C7    C8    A    
C15   C19   A    
C28   Cl6   S    
C1    O3    A    
C24   C26   A    
Cu1   O8    S    
C18   C19   A    
C3    H6    S    
C16   O7    A    
C34   C35   A    
Cu1   O1    S    
C16   C34   S    
C9    C19   A    
C35   C36   A    
C23   C33   A    
C22   C25   A    
C17   O8    A    
C6    C38   A    
C5    H4    S    
C6    H3    S    
C20   H12   S    
C21   H13   S    
C25   C37   S    
C27   Cl5   S    
C30   H2    S    
C29   H16   S    
C3    C39   A    
Cu2   O7    S    
Cu1   N1    S    
C21   C32   A    
C16   O5    A    
Cu2   O6    S    
Cu1   O5    S    
Cu2   O2    S    
C5    C7    A    
C6    C8    A    
C35   I2    S    
C33   C37   A    
C2    C4    A    
C22   H14   S    
Cu1   Cu2   S    
C40   H7    S    
C15   N1    A    
C17   C23   S    
Cu2   N2    S    
C9    C11   A    
C13   H1    S    
C26   C36   S    
C20   C22   A    
C3    C40   A    
C24   H15   S    
C5    C39   A    
C17   O6    A    
Cu2   O3    S    
C11   N2    A    
C14   Cl4   S    
C13   N1    A    
C12   O2    A    
C9    H10   S    
C14   N2    A    
C31   Cl1   S    
C4    C38   A    
C10   C13   A    
C25   C27   A    
C26   C28   A    
C28   C30   A    
C10   H11   S    
C15   Cl3   S    
C29   C31   A    
C2    H8    S    
C30   C32   A    
C10   C18   A    
C12   C38   S    
C12   O4    A    
C1    O1    A    
Cu1   O4    S    
C1    C39   S    
C23   C36   A    
C21   C24   A    
C32   Cl2   S    
C8    C40   A    
C11   H9    S    
C20   C31   A    
