data_mof_unit_23461.cif
_audit_creation_date              2012-12-10T20:55:47-0500
_audit_creation_method            fapswitch 2.2
_symmetry_space_group_name_H-M    P1
_symmetry_Int_Tables_number       1
_space_group_crystal_system       triclinic
_cell_length_a                    15.816211
_cell_length_b                    15.030235
_cell_length_c                    10.820466
_cell_angle_alpha                 89.926873
_cell_angle_beta                  90.252532
_cell_angle_gamma                 89.658463
_cell_volume                      2572.18311542

loop_
_atom_site_label
_atom_site_type_symbol
_atom_type_description
_atom_site_fract_x
_atom_site_fract_y
_atom_site_fract_z
_atom_type_partial_charge
C1    C     C_1   0.250824 0.501047 0.512358 -0.071809
C2    C     C_R   0.422666 0.047353 0.499048 0.331390
C3    C     C_R   0.954255 0.582635 0.533364 0.282158
C4    C     C_R   0.046280 0.422828 0.563724 0.282620
C5    C     C_R   0.042344 0.583443 0.516365 0.292473
C6    C     C_R   0.958383 0.418701 0.544831 0.293554
C7    C     C_R   0.338815 0.500261 0.500887 0.871479
C8    C     C_R   0.661254 0.499682 0.500057 0.863329
C9    C     C_R   0.499285 0.500349 0.259342 0.922425
C10   C     C_R   0.498460 0.499812 0.740912 0.901149
C11   C     C_R   0.913242 0.499634 0.534661 -0.254224
C12   C     C_1   0.749491 0.498744 0.510190 -0.080676
C13   C     C_R   0.087364 0.503387 0.536570 -0.258921
C14   C     C_1   0.500041 0.807152 0.500575 0.493603
C15   C     C_1   0.500025 0.192860 0.500926 0.372251
C16   C     C_1   0.824162 0.498279 0.521477 0.248856
C17   C     C_1   0.176313 0.502370 0.524003 0.246808
C18   C     C_R   0.549187 0.659747 0.106254 0.399118
C19   C     C_R   0.522677 0.332673 0.898081 0.396966
C20   C     C_R   0.451674 0.662681 0.890321 0.398709
C21   C     C_R   0.423915 0.351088 0.110408 0.382467
C22   C     C_R   0.528652 0.742693 0.051521 0.201138
C23   C     C_R   0.493963 0.499572 0.873606 -0.071144
C24   C     C_R   0.487732 0.256049 0.953631 0.191583
C25   C     C_R   0.474801 0.744301 0.945705 0.193575
C26   C     C_R   0.429064 0.267313 0.051365 0.102634
C27   C     C_R   0.484968 0.581473 0.938296 -0.176995
C28   C     C_R   0.471454 0.423382 0.062712 -0.159708
C29   C     C_R   0.511335 0.580889 0.059797 -0.185661
C30   C     C_R   0.497472 0.418320 0.941548 -0.168512
C31   C     C_3   0.682612 0.613460 0.156511 -0.130880
C32   C     C_3   0.661193 0.358094 0.849806 -0.107162
C33   C     C_3   0.316224 0.625955 0.838784 -0.120800
C34   C     C_R   0.494887 0.501540 0.127072 -0.071479
C35   C     C_3   0.303010 0.419324 0.177357 -0.133546
C36   C     C_R   0.499885 0.905219 0.501191 -0.313877
C37   C     C_R   0.499894 0.094823 0.501722 -0.318948
C38   C     C_R   0.424342 0.953718 0.477492 0.294958
C39   C     C_R   0.577002 0.046266 0.503514 0.296146
C40   C     C_R   0.575330 0.952768 0.524986 0.298930
H1    H     H_    0.210536 0.712976 0.367715 0.417248
H2    H     H_    0.783729 0.865662 0.503453 0.432417
H3    H     H_    0.780338 0.137341 0.578648 0.428253
H4    H     H_    0.215698 0.869475 0.499680 0.425400
H5    H     H_    0.732554 0.618841 0.228393 0.213384
H6    H     H_    0.706810 0.645687 0.071027 0.176637
H7    H     H_    0.671423 0.541440 0.140354 0.109928
H8    H     H_    0.679465 0.331467 0.942331 0.171008
H9    H     H_    0.658604 0.431966 0.851679 0.111080
H10   H     H_    0.711554 0.338721 0.783913 0.231824
H11   H     H_    0.293518 0.660380 0.923602 0.170234
H12   H     H_    0.806706 0.261829 0.410651 0.423514
H13   H     H_    0.323014 0.553308 0.855884 0.115753
H14   H     H_    0.267081 0.634867 0.766258 0.218946
H15   H     H_    0.272638 0.399408 0.088560 0.171264
H16   H     H_    0.324361 0.489485 0.172224 0.117487
H17   H     H_    0.254004 0.415748 0.250178 0.200041
H18   H     H_    0.764572 0.699651 0.615662 0.412632
H19   H     H_    0.221919 0.313315 0.727262 0.412140
H20   H     H_    0.452512 0.158900 0.250599 0.337954
H21   H     H_    0.363435 0.891004 0.724306 0.408392
H22   H     H_    0.602316 0.150163 0.744701 0.401356
H23   H     H_    0.639964 0.883157 0.278287 0.407598
H24   H     H_    0.222887 0.138263 0.405496 0.428119
N1    N     N_1   0.500000 0.270550 0.500000 -0.047220
N2    N     N_1   0.500000 0.729450 0.500000 -0.038550
O1    O     O_R   0.378020 0.573650 0.500040 -0.584659
O2    O     O_2   0.128978 0.728203 0.582453 -0.240866
O3    O     O_3   0.179012 0.656643 0.376940 -0.572561
O4    O     O_2   0.963488 0.242764 0.485366 -0.175379
O5    O     O_2   0.868579 0.289282 0.652380 -0.254110
O6    O     O_3   0.825290 0.323660 0.425680 -0.553328
O7    O     O_2   0.946387 0.755300 0.609809 -0.145272
O8    O     O_2   0.861022 0.712061 0.429813 -0.259305
O9    O     O_3   0.812083 0.663750 0.649213 -0.549003
O10   O     O_2   0.051894 0.271897 0.702518 -0.153039
O11   O     O_2   0.140275 0.277697 0.516627 -0.227346
O12   O     O_R   0.621980 0.426350 0.499960 -0.582271
O13   O     O_3   0.187038 0.366920 0.710141 -0.579253
O14   O     O_2   0.283121 0.215028 0.158839 -0.189556
O15   O     O_2   0.338142 0.120730 0.995326 -0.116577
O16   O     O_3   0.414611 0.116892 0.207391 -0.416360
O17   O     O_2   0.374032 0.886918 0.971570 -0.158405
O18   O     O_2   0.506727 0.909677 0.860221 -0.160730
O19   O     O_3   0.384963 0.831109 0.746794 -0.479770
O20   O     O_2   0.524348 0.084813 0.008955 -0.116201
O21   O     O_2   0.455429 0.114346 0.810461 -0.240161
O22   O     O_3   0.614702 0.149978 0.834346 -0.434689
O23   O     O_R   0.621980 0.573650 0.499960 -0.592715
O24   O     O_2   0.633069 0.881373 0.028510 -0.165325
O25   O     O_2   0.500656 0.908373 0.139497 -0.167332
O26   O     O_3   0.619927 0.823729 0.252346 -0.475825
O27   O     O_2   0.263588 0.041616 0.588495 -0.213463
O28   O     O_2   0.339636 0.180549 0.617058 -0.260476
O29   O     O_3   0.284930 0.144348 0.397558 -0.425280
O30   O     O_2   0.715881 0.960664 0.666740 -0.173254
O31   O     O_2   0.635899 0.822805 0.674486 -0.278564
O32   O     O_3   0.724652 0.853205 0.478564 -0.497474
O33   O     O_2   0.733388 0.035368 0.405561 -0.221196
O34   O     O_R   0.378020 0.426350 0.500040 -0.574575
O35   O     O_2   0.656508 0.174394 0.373776 -0.301382
O36   O     O_3   0.718658 0.143657 0.591615 -0.497946
O37   O     O_2   0.283927 0.961960 0.334542 -0.168790
O38   O     O_2   0.363533 0.822976 0.330597 -0.282091
O39   O     O_3   0.274713 0.856890 0.525497 -0.492533
O40   O     O_3   0.609063 0.656509 0.199998 -0.522976
O41   O     O_3   0.584023 0.321897 0.808119 -0.564818
O42   O     O_3   0.392402 0.662932 0.795636 -0.524319
O43   O     O_3   0.370241 0.361610 0.210392 -0.548293
O44   O     O_R   0.499990 0.573670 0.316780 -0.580716
O45   O     O_R   0.500010 0.426330 0.683220 -0.580946
O46   O     O_R   0.500010 0.573670 0.683220 -0.579994
O47   O     O_R   0.499990 0.426330 0.316780 -0.591944
O48   O     O_2   0.039418 0.743577 0.397730 -0.164365
S1    S     S_3+6 0.096750 0.681823 0.468831 0.104887
S2    S     S_3+6 0.664394 0.896768 0.591126 0.119189
S3    S     S_3+6 0.673409 0.100479 0.464439 0.080529
S4    S     S_3+6 0.335225 0.898317 0.412061 0.119870
S5    S     S_3+6 0.904606 0.314840 0.529164 0.101527
S6    S     S_3+6 0.893970 0.682534 0.553902 0.111800
S7    S     S_3+6 0.105860 0.330581 0.623096 0.128164
S8    S     S_3+6 0.362739 0.179032 0.102025 0.204429
S9    S     S_3+6 0.435365 0.846163 0.881975 0.170745
S10   S     S_3+6 0.519301 0.148311 0.901915 0.170594
S11   S     S_3+6 0.570457 0.842227 0.117051 0.164883
S12   S     S_3+6 0.325585 0.104138 0.530048 0.141959
Zn1   Zn    Zn3+2 0.500000 0.598370 0.500000 1.120643
Zn2   Zn    Zn3+2 0.500000 0.401630 0.500000 1.105393

loop_
_geom_bond_atom_site_label_1
_geom_bond_atom_site_label_2
_ccdc_geom_bond_type
C21   C26   A    
C27   C29   A    
O29   S12   S    
O22   S10   S    
O12   Zn2   S    
O26   S11   S    
O48   S1    D    
O47   Zn2   S    
O14   S8    D    
H4    O39   S    
O18   S9    D    
O13   S7    S    
O10   S7    D    
C24   C26   A    
H2    O32   S    
C14   C36   S    
O21   S10   D    
C20   C25   A    
C15   N1    T    
C24   S10   S    
N2    Zn1   S    
C4    C13   A    
O27   S12   D    
C15   C37   S    
O46   Zn1   S    
C1    C7    S    
H20   O16   S    
C12   C16   T    
C22   C25   A    
H23   O26   S    
C10   O46   A    
C23   C27   A    
C23   C30   A    
C5    C13   A    
C35   O43   S    
O44   Zn1   S    
C28   C34   A    
O7    S6    D    
C18   C22   A    
C5    S1    S    
C8    O12   A    
C32   H8    S    
C33   O42   S    
H18   O9    S    
O38   S4    D    
O28   S12   D    
C33   H13   S    
C7    O34   A    
C35   H15   S    
N1    Zn2   S    
C36   C40   A    
C3    C11   A    
C4    C6    A    
H19   O13   S    
C6    C11   A    
C22   S11   S    
C39   S3    S    
H22   O22   S    
C29   C34   A    
C31   H6    S    
C18   O40   S    
H12   O6    S    
O1    Zn1   S    
O33   S3    D    
C11   C16   S    
C2    C38   A    
O32   S2    S    
O4    S5    D    
C8    C12   S    
C14   N2    T    
C10   O45   A    
C18   C29   A    
O31   S2    D    
C25   S9    S    
C32   H10   S    
O36   S3    S    
H21   O19   S    
C2    S12   S    
C21   C28   A    
O20   S10   D    
C9    C34   S    
C31   O40   S    
O39   S4    S    
O37   S4    D    
C6    S5    S    
C39   C40   A    
H1    O3    S    
O23   Zn1   S    
C33   H14   S    
O3    S1    S    
O25   S11   D    
C35   H16   S    
O34   Zn2   S    
O9    S6    S    
H24   O29   S    
C3    C5    A    
C21   O43   S    
C9    O44   A    
C20   C27   A    
O5    S5    D    
C10   C23   S    
C33   H11   S    
O8    S6    D    
C1    C17   T    
C13   C17   S    
O15   S8    D    
C35   H17   S    
C9    O47   A    
C36   C38   A    
C19   C24   A    
H3    O36   S    
O35   S3    D    
C37   C39   A    
C32   O41   S    
C2    C37   A    
C40   S2    S    
O6    S5    S    
C28   C30   A    
O24   S11   D    
C4    S7    S    
O19   S9    S    
C32   H9    S    
O11   S7    D    
C3    S6    S    
O2    S1    D    
C7    O1    A    
C38   S4    S    
C31   H5    S    
O45   Zn2   S    
O30   S2    D    
C31   H7    S    
C8    O23   A    
C26   S8    S    
O17   S9    D    
C19   C30   A    
O16   S8    S    
C20   O42   S    
C19   O41   S    
