data_mof_unit_44546.cif
_audit_creation_date              2013-03-05T15:44:38-0500
_audit_creation_method            fapswitch 2.2
_symmetry_space_group_name_H-M    P1
_symmetry_Int_Tables_number       1
_space_group_crystal_system       triclinic
_cell_length_a                    19.045707
_cell_length_b                    11.149406
_cell_length_c                    18.799474
_cell_angle_alpha                 89.757849
_cell_angle_beta                  89.154621
_cell_angle_gamma                 89.770529
_cell_volume                      3991.53551467

loop_
_atom_site_label
_atom_site_type_symbol
_atom_site_description
_atom_site_fract_x
_atom_site_fract_y
_atom_site_fract_z
_atom_type_partial_charge
O1    O     O_R   0.787540 0.042690 0.170470 -0.494385
O2    O     O_R   0.212460 0.042690 0.829530 -0.499645
O3    O     O_R   0.287540 0.542690 0.170470 -0.495350
O4    O     O_R   0.712460 0.542690 0.829530 -0.498270
O5    O     O_R   0.765660 0.292160 0.175050 -0.454350
O6    O     O_R   0.234340 0.292160 0.824950 -0.451575
O7    O     O_R   0.265660 0.792160 0.175050 -0.454631
O8    O     O_R   0.734340 0.792160 0.824950 -0.455020
C1    C     C_R   0.732186 0.376660 0.146486 0.601404
C2    C     C_R   0.267871 0.376315 0.853602 0.599760
C3    C     C_R   0.232186 0.876662 0.146487 0.600106
C4    C     C_R   0.767865 0.876325 0.853596 0.598343
O9    O     O_R   0.670190 0.408980 0.168550 -0.446116
O10   O     O_R   0.329810 0.408980 0.831450 -0.445013
O11   O     O_R   0.170190 0.908980 0.168550 -0.445070
O12   O     O_R   0.829810 0.908980 0.831450 -0.445680
O13   O     O_R   0.556580 0.251450 0.175160 -0.531259
O14   O     O_R   0.443420 0.251450 0.824840 -0.528821
O15   O     O_R   0.056580 0.751450 0.175160 -0.530223
O16   O     O_R   0.943420 0.751450 0.824840 -0.531987
C5    C     C_R   0.531608 0.156254 0.146760 0.555268
C6    C     C_R   0.468651 0.155773 0.852973 0.560641
C7    C     C_R   0.031600 0.656254 0.146767 0.556999
C8    C     C_R   0.968641 0.655774 0.852982 0.556089
O17   O     O_R   0.545920 0.049510 0.170320 -0.432915
O18   O     O_R   0.454080 0.049510 0.829680 -0.428184
O19   O     O_R   0.045920 0.549510 0.170320 -0.432790
O20   O     O_R   0.954080 0.549510 0.829680 -0.433818
O21   O     O_R   0.681390 0.957840 0.176710 -0.476195
O22   O     O_R   0.318610 0.957840 0.823290 -0.479045
O23   O     O_R   0.181390 0.457840 0.176710 -0.475660
O24   O     O_R   0.818610 0.457840 0.823290 -0.483089
C9    C     C_R   0.740318 0.975695 0.145194 0.579300
C10   C     C_R   0.259656 0.975111 0.854820 0.569693
C11   C     C_R   0.240331 0.475651 0.145210 0.577248
C12   C     C_R   0.759651 0.475093 0.854814 0.571606
O25   O     O_R   0.787500 0.044280 0.330990 -0.520230
O26   O     O_R   0.212500 0.044280 0.669010 -0.527019
O27   O     O_R   0.287500 0.544280 0.330990 -0.533316
O28   O     O_R   0.712500 0.544280 0.669010 -0.514516
O29   O     O_R   0.765610 0.293630 0.323860 -0.497945
O30   O     O_R   0.234390 0.293630 0.676140 -0.436545
O31   O     O_R   0.265610 0.793630 0.323860 -0.492706
O32   O     O_R   0.734390 0.793630 0.676140 -0.475771
C13   C     C_R   0.709731 0.333295 0.360203 0.543622
C14   C     C_R   0.290668 0.334101 0.640271 0.544439
C15   C     C_R   0.210060 0.834176 0.360541 0.549875
C16   C     C_R   0.771678 0.874249 0.646620 0.616685
O33   O     O_R   0.670140 0.410570 0.329080 -0.374583
O34   O     O_R   0.329860 0.410570 0.670920 -0.420162
O35   O     O_R   0.170140 0.910570 0.329080 -0.377028
O36   O     O_R   0.829860 0.910570 0.670920 -0.460122
O37   O     O_R   0.556540 0.252920 0.323970 -0.493712
O38   O     O_R   0.443460 0.252920 0.676030 -0.509969
O39   O     O_R   0.056540 0.752920 0.323970 -0.492602
O40   O     O_R   0.943460 0.752920 0.676030 -0.531528
C17   C     C_R   0.533788 0.154200 0.354307 0.535416
C18   C     C_R   0.467638 0.156992 0.646889 0.565573
C19   C     C_R   0.034277 0.654945 0.355135 0.535416
C20   C     C_R   0.969472 0.658365 0.648003 0.593066
O41   O     O_R   0.545870 0.051100 0.330840 -0.453759
O42   O     O_R   0.454130 0.051100 0.669160 -0.430561
O43   O     O_R   0.045870 0.551100 0.330840 -0.449703
O44   O     O_R   0.954130 0.551100 0.669160 -0.411010
O45   O     O_R   0.681340 0.959300 0.325510 -0.445357
O46   O     O_R   0.318660 0.959300 0.674490 -0.448207
O47   O     O_R   0.181340 0.459300 0.325510 -0.437676
O48   O     O_R   0.818660 0.459300 0.674490 -0.440103
C21   C     C_R   0.741706 0.972409 0.354213 0.590149
C22   C     C_R   0.257593 0.966842 0.647721 0.539786
C23   C     C_R   0.242349 0.469909 0.353333 0.575459
C24   C     C_R   0.758668 0.470501 0.646206 0.571728
Cr1   Cr    Cr6+3 0.772000 0.169640 0.250110 1.129835
Cr2   Cr    Cr6+3 0.228000 0.169640 0.749890 1.148466
Cr3   Cr    Cr6+3 0.272000 0.669640 0.250110 1.127550
Cr4   Cr    Cr6+3 0.728000 0.669640 0.749890 1.161840
Cr5   Cr    Cr6+3 0.614960 0.323350 0.249260 1.138693
Cr6   Cr    Cr6+3 0.385040 0.323350 0.750740 1.133827
Cr7   Cr    Cr6+3 0.114960 0.823350 0.249260 1.142884
Cr8   Cr    Cr6+3 0.885040 0.823350 0.750740 1.110674
Cr9   Cr    Cr6+3 0.616670 0.010620 0.250840 1.185592
Cr10  Cr    Cr6+3 0.383330 0.010620 0.749160 1.196660
Cr11  Cr    Cr6+3 0.116670 0.510620 0.250840 1.190859
Cr12  Cr    Cr6+3 0.883330 0.510620 0.749160 1.207202
O49   O     O_3   0.667880 0.167870 0.250070 -0.356902
O50   O     O_3   0.332120 0.167870 0.749930 -0.358938
O51   O     O_3   0.167880 0.667870 0.250070 -0.355555
O52   O     O_3   0.832120 0.667870 0.749930 -0.337147
C25   C     C_R   0.499960 0.166352 0.924699 -0.032907
C26   C     C_R   0.500994 0.167381 0.074609 -0.032972
C27   C     C_R   0.999926 0.666363 0.924719 -0.032068
C28   C     C_R   0.000963 0.667382 0.074628 -0.032916
C29   C     C_R   0.503090 0.277010 0.961283 -0.031289
C30   C     C_R   0.499345 0.277679 0.036866 -0.032657
C31   C     C_R   0.003039 0.777024 0.961309 -0.030324
C32   C     C_R   0.999298 0.777681 0.036892 -0.032956
C33   C     C_R   0.494802 0.060256 0.036797 0.151403
C34   C     C_R   0.505229 0.059590 0.963419 0.148506
C35   C     C_R   0.994769 0.560260 0.036816 0.151080
C36   C     C_R   0.005196 0.559600 0.963438 0.149356
C37   C     C_R   0.512279 0.386774 0.924857 -0.072714
C38   C     C_R   0.491507 0.388498 0.072009 -0.074338
C39   C     C_R   0.012215 0.886800 0.924891 -0.073226
C40   C     C_R   0.991455 0.888490 0.072045 -0.073961
C41   C     C_R   0.008983 0.994844 0.961373 -0.029312
C42   C     C_R   0.996042 0.995703 0.034346 -0.025537
C43   C     C_R   0.509055 0.494824 0.961329 -0.029017
C44   C     C_R   0.496105 0.495702 0.034300 -0.025894
C45   C     C_R   0.694245 0.873089 0.039760 -0.086764
C46   C     C_R   0.305842 0.871989 0.960734 -0.087709
C47   C     C_R   0.194262 0.373045 0.039779 -0.086751
C48   C     C_R   0.805831 0.371963 0.960727 -0.087977
H1    H     H_    0.655761 0.831790 0.074590 0.253743
H2    H     H_    0.344187 0.829836 0.926107 0.254029
H3    H     H_    0.155760 0.331778 0.074603 0.253893
H4    H     H_    0.844175 0.329813 0.926100 0.253551
C49   C     C_R   0.691309 0.854899 0.966179 0.155504
C50   C     C_R   0.308963 0.854517 0.034452 0.156333
C51   C     C_R   0.191326 0.354870 0.966197 0.155739
C52   C     C_R   0.808961 0.354508 0.034446 0.155977
C53   C     C_R   0.740666 0.919945 0.922187 0.022780
C54   C     C_R   0.259588 0.920308 0.077981 0.022983
C55   C     C_R   0.240697 0.419901 0.922213 0.021373
C56   C     C_R   0.759586 0.420299 0.077975 0.023461
C57   C     C_R   0.780745 0.010873 0.952539 0.165054
C58   C     C_R   0.219578 0.011590 0.047273 0.163411
C59   C     C_R   0.280812 0.510774 0.952582 0.164863
C60   C     C_R   0.719573 0.511573 0.047265 0.163895
C61   C     C_R   0.789143 0.012449 0.025489 -0.157277
C62   C     C_R   0.210905 0.012753 0.974356 -0.157950
C63   C     C_R   0.289212 0.512314 0.025528 -0.157207
C64   C     C_R   0.710895 0.512728 0.974349 -0.157942
H5    H     H_    0.826185 0.072138 0.048065 0.210971
H6    H     H_    0.173577 0.072440 0.951534 0.210464
H7    H     H_    0.326274 0.571972 0.048109 0.211030
H8    H     H_    0.673570 0.572420 0.951527 0.210376
C65   C     C_R   0.745469 0.944746 0.069859 -0.062929
C66   C     C_R   0.254583 0.944260 0.930300 -0.063081
C67   C     C_R   0.245501 0.444659 0.069887 -0.063164
C68   C     C_R   0.754572 0.444231 0.930293 -0.062494
C69   C     C_R   0.533593 0.053673 0.473103 0.167598
C70   C     C_R   0.534417 0.071379 0.546574 0.197649
C71   C     C_R   0.035333 0.558907 0.475411 0.194388
C72   C     C_R   0.038864 0.576908 0.548825 0.210235
C73   C     C_R   0.494027 0.165410 0.574609 -0.005643
C74   C     C_R   0.510466 0.149737 0.428198 -0.029999
C75   C     C_R   0.001788 0.673494 0.578022 0.004120
C76   C     C_R   0.012921 0.654818 0.430456 -0.014651
C77   C     C_R   0.459573 0.244871 0.529035 -0.125171
C78   C     C_R   0.471404 0.242894 0.456593 -0.118388
C79   C     C_R   0.974765 0.764332 0.533738 -0.114632
C80   C     C_R   0.981420 0.755714 0.460406 -0.098852
C81   C     C_R   0.766316 0.034305 0.474060 -0.158547
C82   C     C_R   0.174595 0.909699 0.556743 -0.132594
C83   C     C_R   0.295175 0.498643 0.466840 -0.142994
C84   C     C_R   0.677624 0.396681 0.557496 -0.107705
C85   C     C_R   0.769342 0.016331 0.546576 0.196390
C86   C     C_R   0.160401 0.899361 0.484379 0.184202
C87   C     C_R   0.320852 0.462514 0.531308 0.156573
C88   C     C_R   0.661135 0.386777 0.485520 0.181316
C89   C     C_R   0.756322 0.901925 0.573578 0.013770
C90   C     C_R   0.216554 0.855970 0.438067 -0.041922
C91   C     C_R   0.286276 0.360918 0.564052 -0.052411
C92   C     C_R   0.717896 0.358911 0.436323 -0.039740
C93   C     C_R   0.742383 0.805615 0.527616 -0.095867
C94   C     C_R   0.282226 0.829469 0.468111 -0.154761
C95   C     C_R   0.248012 0.282108 0.520819 -0.121528
C96   C     C_R   0.786966 0.360784 0.460698 -0.112115
C97   C     C_R   0.741271 0.822971 0.454022 0.220250
C98   C     C_R   0.295488 0.851057 0.539597 0.170629
C99   C     C_R   0.239096 0.307746 0.448237 0.219619
C100  C     C_R   0.801356 0.395123 0.529247 0.239222
C101  C     C_R   0.750944 0.939546 0.427850 -0.003208
C102  C     C_R   0.242206 0.899942 0.582750 -0.027627
C103  C     C_R   0.257607 0.421939 0.423501 -0.005639
C104  C     C_R   0.746467 0.411713 0.578500 0.007372
N1    N     N_R   0.473082 0.954888 0.074111 0.128350
O53   O     O_R   0.514198 0.861722 0.075510 -0.204760
O54   O     O_R   0.425987 0.967940 0.124464 -0.284875
N2    N     N_R   0.525767 0.953019 0.926883 0.128273
O55   O     O_R   0.483923 0.861367 0.926697 -0.206283
O56   O     O_R   0.572300 0.963947 0.875810 -0.271844
N3    N     N_R   0.973069 0.454884 0.074132 0.128230
O57   O     O_R   0.014197 0.361732 0.075520 -0.204726
O58   O     O_R   0.925986 0.467919 0.124498 -0.282949
N4    N     N_R   0.025756 0.453040 0.926906 0.128368
O59   O     O_R   0.983918 0.361383 0.926694 -0.207625
O60   O     O_R   0.072310 0.463989 0.875854 -0.274696
H9    H     H_    0.775107 0.123622 0.453557 0.137517
H10   H     H_    0.133424 0.939212 0.592995 0.198911
H11   H     H_    0.309588 0.586595 0.447624 0.173938
H12   H     H_    0.636323 0.410445 0.596874 0.198812
N5    N     N_R   0.789384 0.112826 0.591817 0.069658
O61   O     O_R   0.750683 0.141255 0.646848 -0.277367
O62   O     O_R   0.852376 0.156297 0.585710 -0.258221
N6    N     N_R   0.091638 0.945116 0.463386 0.098437
O63   O     O_R   0.069050 0.944749 0.398857 -0.262416
O64   O     O_R   0.052298 0.001535 0.509766 -0.288917
N7    N     N_R   0.383325 0.527033 0.555354 0.123103
O65   O     O_R   0.424242 0.488688 0.605324 -0.235948
O66   O     O_R   0.410804 0.608039 0.513450 -0.217793
N8    N     N_R   0.589691 0.420848 0.467186 0.090260
O67   O     O_R   0.571299 0.449511 0.403280 -0.234930
O68   O     O_R   0.546383 0.453266 0.517790 -0.263766
H13   H     H_    0.736115 0.715644 0.548795 0.172867
H14   H     H_    0.325148 0.795702 0.435428 0.202229
H15   H     H_    0.227570 0.199156 0.542912 0.167253
H16   H     H_    0.831234 0.348673 0.424515 0.206305
N9    N     N_R   0.728607 0.723660 0.407538 0.113408
O69   O     O_R   0.757026 0.719599 0.344215 -0.285067
O70   O     O_R   0.690800 0.633854 0.429646 -0.249880
N10   N     N_R   0.364129 0.828299 0.566602 0.119535
O71   O     O_R   0.372136 0.763566 0.623732 -0.214860
O72   O     O_R   0.419106 0.863644 0.530898 -0.239784
N11   N     N_R   0.208632 0.221352 0.401815 0.106047
O73   O     O_R   0.230535 0.211124 0.336218 -0.281237
O74   O     O_R   0.159553 0.150759 0.425373 -0.211006
N12   N     N_R   0.869458 0.439684 0.542486 0.096743
O75   O     O_R   0.921444 0.365526 0.550960 -0.185579
O76   O     O_R   0.881714 0.550896 0.526230 -0.399358
H17   H     H_    0.524093 0.390281 0.868471 0.160901
H18   H     H_    0.479512 0.393723 0.128278 0.160685
H19   H     H_    0.024030 0.890327 0.868507 0.157077
H20   H     H_    0.979467 0.893698 0.128316 0.161909
H21   H     H_    0.014839 0.078021 0.932270 0.240258
H22   H     H_    0.991082 0.079531 0.062526 0.245977
H23   H     H_    0.514916 0.577992 0.932218 0.241125
H24   H     H_    0.491140 0.579539 0.062471 0.245925
N13   N     N_R   0.636291 0.775508 0.941219 0.083679
O77   O     O_R   0.623340 0.755193 0.874764 -0.240782
O78   O     O_R   0.591597 0.731368 0.986911 -0.292622
N14   N     N_R   0.364055 0.774908 0.060161 0.086160
O79   O     O_R   0.377906 0.757428 0.126825 -0.238869
O80   O     O_R   0.408231 0.728553 0.014763 -0.293228
N15   N     N_R   0.136292 0.275519 0.941229 0.084000
O81   O     O_R   0.123341 0.255221 0.874772 -0.242234
O82   O     O_R   0.091592 0.231382 0.986916 -0.292645
N16   N     N_R   0.864067 0.274932 0.060155 0.086037
O83   O     O_R   0.877902 0.257413 0.126820 -0.238895
O84   O     O_R   0.908247 0.228587 0.014758 -0.293169
N17   N     N_R   0.813163 0.100620 0.908385 0.082101
O85   O     O_R   0.881114 0.103703 0.901988 -0.292450
O86   O     O_R   0.775577 0.155019 0.860711 -0.310619
N18   N     N_R   0.187816 0.102169 0.091156 0.082167
O87   O     O_R   0.120012 0.105320 0.099222 -0.291761
O88   O     O_R   0.226228 0.156106 0.137851 -0.307851
N19   N     N_R   0.313231 0.600549 0.908453 0.082702
O89   O     O_R   0.381179 0.603580 0.902009 -0.289901
O90   O     O_R   0.275627 0.655074 0.860846 -0.320662
N20   N     N_R   0.687831 0.602176 0.091143 0.081768
O91   O     O_R   0.620030 0.605344 0.099233 -0.292945
O92   O     O_R   0.726265 0.656132 0.137812 -0.307524
N21   N     N_R   0.546393 0.935108 0.445589 0.142636
O93   O     O_R   0.497880 0.881342 0.409646 -0.215402
O94   O     O_R   0.600253 0.873172 0.465736 -0.270121
N22   N     N_R   0.569965 0.989228 0.593239 0.100376
O95   O     O_R   0.610992 0.031419 0.641764 -0.300293
O96   O     O_R   0.550489 0.877688 0.597605 -0.166379
N23   N     N_R   0.045596 0.440107 0.448182 0.142065
O97   O     O_R   0.994237 0.385652 0.416955 -0.220190
O98   O     O_R   0.101616 0.379858 0.463467 -0.268156
N24   N     N_R   0.074834 0.493937 0.594716 0.100831
O99   O     O_R   0.117461 0.535089 0.642160 -0.315950
O100  O     O_R   0.057401 0.381300 0.597256 -0.175395
H25   H     H_    0.421103 0.305093 0.549318 0.174220
H26   H     H_    0.448370 0.311120 0.422866 0.185120
H27   H     H_    0.944445 0.838425 0.555403 0.185559
H28   H     H_    0.960238 0.826086 0.427058 0.194640

loop_
_geom_bond_atom_site_label_1
_geom_bond_atom_site_label_2
_geom_bond_distance
_ccdc_geom_bond_type
C18   O42   1.276894 A    
C86   C90   1.451821 A    
Cr11  O51   2.009581 S    
O4    C12   1.267240 A    
C37   C43   1.389372 A    
C29   C30   1.421695 A    
C26   C30   1.417643 A    
O39   C19   1.306622 A    
O20   Cr12  2.089385 S    
C48   C68   1.391399 A    
O15   C7    1.286121 A    
C31   C32   1.421693 A    
C77   H25   1.059728 S    
N11   O73   1.301312 A    
C72   N24   1.440484 S    
C46   C50   1.400749 A    
O29   Cr1   1.964189 S    
C40   C42   1.389487 A    
C33   C34   1.390846 A    
C18   C73   1.444632 S    
C70   N22   1.439686 S    
O27   Cr3   2.084366 S    
C22   C102  1.467698 S    
C81   H9    1.079104 S    
C80   H28   1.082666 S    
C42   H22   1.079415 S    
O7    C3    1.258347 A    
O5    C1    1.258347 A    
N8    O68   1.301294 A    
C85   N5    1.430790 S    
C77   C78   1.377354 A    
C88   C92   1.445986 A    
C79   H27   1.083452 S    
C47   C51   1.400873 A    
C13   C92   1.471031 S    
C82   C86   1.396253 A    
O25   C21   1.258891 A    
N11   O74   1.296190 A    
C88   N8    1.457124 S    
N21   O93   1.302284 A    
C34   N2    1.425430 S    
C64   H8    1.065441 S    
C48   H4    1.078772 S    
C76   C80   1.390117 A    
C58   C62   1.383133 A    
N20   O92   1.301692 A    
C71   C72   1.398126 A    
C81   C101  1.405114 A    
C28   C32   1.417608 A    
C1    C56   1.464524 S    
O23   Cr11  1.938623 S    
N18   O87   1.298367 A    
C45   C65   1.391615 A    
N17   O85   1.298552 A    
O30   C14   1.336846 A    
C49   N13   1.458469 S    
O32   Cr4   1.956611 S    
C1    O9    1.295946 A    
O44   Cr12  2.055032 S    
C73   C77   1.398240 A    
C49   C53   1.439106 A    
C11   C67   1.460832 S    
C90   C94   1.409679 A    
C15   C90   1.485614 S    
C3    O11   1.295935 A    
O41   Cr9   2.055453 S    
O11   Cr7   2.066133 S    
C4    C53   1.466698 S    
C4    O12   1.298245 A    
O21   C9    1.277284 A    
C9    C65   1.460904 S    
N5    O62   1.299073 A    
C43   H23   1.080064 S    
O47   C23   1.287361 A    
N15   O81   1.298027 A    
C96   H16   1.083854 S    
C57   N17   1.433276 S    
C82   H10   1.082433 S    
C20   C75   1.453664 S    
C41   H21   1.080066 S    
C27   C36   1.396680 A    
O3    Cr3   2.081841 S    
C46   H2    1.078785 S    
C26   C33   1.398761 A    
C35   N3    1.425367 S    
O2    Cr2   2.074836 S    
C45   H1    1.078886 S    
C56   C60   1.396962 A    
C99   N11   1.432698 S    
C19   C76   1.467469 S    
Cr6   O50   2.008937 S    
C48   C52   1.400757 A    
C87   N7    1.470704 S    
O42   Cr10  2.055032 S    
Cr5   O49   2.001847 S    
N7    O65   1.299286 A    
O18   Cr10  2.089385 S    
C74   C78   1.379860 A    
C17   C74   1.452851 S    
O5    Cr1   1.964482 S    
N15   O82   1.297243 A    
C70   C73   1.398180 A    
C39   H19   1.080958 S    
C62   H6    1.065440 S    
C69   C70   1.396403 A    
C21   C101  1.443609 S    
C72   C75   1.395380 A    
C60   C64   1.383129 A    
O13   Cr5   1.970221 S    
C31   C39   1.410106 A    
O6    Cr2   1.973429 S    
C59   C63   1.383180 A    
C5    C26   1.488805 S    
N19   O90   1.301671 A    
C93   C97   1.396652 A    
C71   C76   1.428046 A    
O24   Cr12  1.938045 S    
N9    O69   1.301317 A    
N16   O84   1.297090 A    
C38   C44   1.389504 A    
O30   Cr2   1.956611 S    
N8    O67   1.294790 A    
O22   C10   1.276218 A    
C83   C87   1.371885 A    
O48   Cr12  1.969374 S    
Cr12  O52   2.002860 S    
C92   C96   1.399650 A    
C71   N23   1.433665 S    
N6    O64   1.303421 A    
C2    C55   1.466724 S    
C2    O10   1.298210 A    
C50   N14   1.458156 S    
N21   O94   1.294668 A    
O16   Cr8   1.961787 S    
C15   O35   1.287315 A    
C16   C89   1.440079 S    
C44   H24   1.079413 S    
O26   Cr2   2.094545 S    
N1    O54   1.302636 A    
N20   O91   1.298367 A    
Cr10  O50   2.002860 S    
C25   C34   1.396678 A    
C99   C103  1.398314 A    
C10   C66   1.460575 S    
C25   C29   1.416952 A    
C60   N20   1.433108 S    
Cr4   O52   1.983069 S    
O40   C20   1.275639 A    
N22   O96   1.301081 A    
O48   C24   1.272819 A    
N17   O86   1.301696 A    
C95   H15   1.083671 S    
C54   C58   1.396976 A    
C91   C95   1.411517 A    
N3    O57   1.298751 A    
C29   C37   1.410092 A    
C53   C57   1.400009 A    
N13   O77   1.298034 A    
C57   C61   1.383249 A    
O46   Cr10  1.969374 S    
O39   Cr7   1.943919 S    
C36   N4    1.425411 S    
C33   N1    1.425368 S    
C35   C36   1.390826 A    
O3    C11   1.270271 A    
C79   C80   1.386246 A    
C97   N9    1.436793 S    
N22   O95   1.300629 A    
N14   O80   1.297090 A    
C13   O33   1.287164 A    
C61   C65   1.391663 A    
C39   C41   1.389394 A    
O7    Cr3   1.964482 S    
O47   Cr11  1.963051 S    
Cr2   O50   1.983069 S    
C47   C67   1.391625 A    
O15   Cr7   1.970221 S    
C12   C68   1.460583 S    
Cr1   O49   1.983228 S    
Cr7   O51   2.001847 S    
C50   C54   1.438361 A    
C83   H11   1.078745 S    
C69   C74   1.432967 A    
N1    O53   1.298749 A    
C61   H5    1.065700 S    
C84   H12   1.083121 S    
C46   C66   1.391408 A    
Cr3   O51   1.983228 S    
O26   C22   1.276725 A    
N10   O72   1.297121 A    
O21   Cr9   1.938623 S    
C94   C98   1.393215 A    
O28   C24   1.272657 A    
C7    O19   1.297440 A    
C14   C91   1.466027 S    
C32   C40   1.409931 A    
O8    Cr4   1.973429 S    
C89   C93   1.409614 A    
O37   Cr5   1.943919 S    
C87   C91   1.443534 A    
C45   C49   1.400881 A    
C3    C54   1.464502 S    
C59   N19   1.433251 S    
C43   C44   1.390300 A    
N4    O60   1.302659 A    
N23   O97   1.301838 A    
C62   C66   1.393232 A    
C8    C27   1.487747 S    
C85   C89   1.392696 A    
C55   C59   1.400057 A    
O34   Cr6   2.080355 S    
C100  N12   1.416639 S    
N2    O55   1.298442 A    
C38   H18   1.080670 S    
O31   Cr3   1.964189 S    
O14   Cr6   1.961787 S    
O38   C18   1.284384 A    
C96   C100  1.377606 A    
C83   C103  1.391097 A    
C7    C28   1.488771 S    
N18   O88   1.301692 A    
C5    O17   1.297452 A    
C78   H26   1.083776 S    
C84   C104  1.385929 A    
O37   C17   1.309862 A    
O22   Cr10  1.938045 S    
N2    O56   1.302668 A    
O14   C6    1.283435 A    
C19   O43   1.263857 A    
C63   H7    1.065771 S    
C8    O20   1.297351 A    
N6    O63   1.293146 A    
N23   O98   1.293774 A    
O17   Cr9   2.084483 S    
O6    C2    1.263951 A    
N24   O100  1.300780 A    
N19   O89   1.298552 A    
O24   C12   1.276231 A    
C17   O41   1.252239 A    
N24   O99   1.301152 A    
C98   C102  1.399991 A    
C51   C55   1.439118 A    
C64   C68   1.393233 A    
C86   N6    1.462646 S    
C41   C42   1.390293 A    
C14   O34   1.279844 A    
O25   Cr1   2.084366 S    
O40   Cr8   1.945116 S    
C51   N15   1.458480 S    
C95   C99   1.405562 A    
N12   O76   1.297058 A    
C20   O44   1.291977 A    
O1    Cr1   2.081841 S    
N3    O58   1.302638 A    
C69   N21   1.440124 S    
Cr8   O52   2.008937 S    
O32   C16   1.268673 A    
O29   C13   1.331289 A    
O33   Cr5   2.090194 S    
O9    Cr5   2.066133 S    
C58   N18   1.433124 S    
O2    C10   1.267244 A    
N12   O75   1.298580 A    
O46   C22   1.276391 A    
O31   C15   1.332861 A    
O45   C21   1.286349 A    
C75   C79   1.408919 A    
N16   O83   1.298275 A    
N14   O79   1.298277 A    
N9    O70   1.298920 A    
C6    C25   1.487730 S    
C23   C103  1.454192 S    
O23   C11   1.277282 A    
O10   Cr6   2.068162 S    
C37   H17   1.080971 S    
C81   C85   1.379083 A    
C84   C88   1.398494 A    
O16   C8    1.283416 A    
C24   C104  1.456268 S    
O35   Cr7   2.090194 S    
O4    Cr4   2.074836 S    
C63   C67   1.391647 A    
C52   C56   1.438357 A    
O1    C9    1.270279 A    
C27   C31   1.417006 A    
O19   Cr11  2.084483 S    
C100  C104  1.398487 A    
C16   O36   1.273073 A    
C82   C102  1.387824 A    
C98   N10   1.430753 S    
N10   O71   1.301947 A    
C30   C38   1.409935 A    
N13   O78   1.297240 A    
N5    O61   1.300940 A    
C6    O18   1.297320 A    
O28   Cr4   2.094545 S    
O43   Cr11  2.055453 S    
N7    O66   1.302228 A    
C97   C101  1.399703 A    
O45   Cr9   1.963051 S    
C47   H3    1.078889 S    
C94   H14   1.082673 S    
O12   Cr8   2.068162 S    
N4    O59   1.298438 A    
O36   Cr8   2.080355 S    
C93   H13   1.084069 S    
C40   H20   1.080673 S    
Cr9   O49   2.009581 S    
O8    C4    1.263918 A    
C28   C35   1.398737 A    
C52   N16   1.458148 S    
O38   Cr6   1.945116 S    
O27   C23   1.263163 A    
O13   C5    1.286122 A    
