data_mof_unit_58951.cif
_audit_creation_date              2012-10-26T20:22:32-0400
_audit_creation_method            fapswitch 2.2
_symmetry_space_group_name_H-M    P1
_symmetry_Int_Tables_number       1
_space_group_crystal_system       triclinic
_cell_length_a                    9.575368
_cell_length_b                    10.828314
_cell_length_c                    17.410483
_cell_angle_alpha                 91.982086
_cell_angle_beta                  87.578948
_cell_angle_gamma                 90.636899
_cell_volume                      1802.43277761

loop_
_atom_site_label
_atom_site_type_symbol
_atom_type_description
_atom_site_fract_x
_atom_site_fract_y
_atom_site_fract_z
_atom_type_partial_charge
C1    C     C_R   0.500473 0.737754 0.500062 0.542939
C2    C     C_R   0.074277 0.424336 0.449226 0.111266
C3    C     C_R   0.073628 0.574297 0.550176 0.025062
C4    C     C_R   0.926372 0.425702 0.449824 0.025062
C5    C     C_R   0.483759 0.497824 0.649387 0.544089
C6    C     C_R   0.516240 0.502175 0.350613 0.544090
C7    C     C_R   0.479663 0.499741 0.733194 0.032252
C8    C     C_R   0.520333 0.500251 0.266806 0.032255
C9    C     C_R   0.581282 0.437870 0.773974 -0.011681
C10   C     C_R   0.418715 0.562128 0.226028 -0.011683
C11   C     C_R   0.580081 0.452618 0.853868 -0.085784
C12   C     C_R   0.499527 0.262246 0.499938 0.542940
C13   C     C_R   0.419907 0.547370 0.146134 -0.085786
C14   C     C_R   0.477905 0.524962 0.893402 0.028280
C15   C     C_R   0.522073 0.475007 0.106599 0.028288
C16   C     C_R   0.376637 0.583798 0.852732 -0.124178
C17   C     C_R   0.623339 0.416158 0.147268 -0.124173
C18   C     C_R   0.376820 0.570584 0.773151 -0.143362
C19   C     C_R   0.623165 0.429386 0.226849 -0.143357
C20   C     C_2   0.476764 0.543132 0.977137 -0.137839
C21   C     C_2   0.523209 0.456833 0.022864 -0.137837
C22   C     C_3   0.689834 0.354802 0.734398 -0.382317
C23   C     C_R   0.626730 0.937682 0.503718 -0.144209
C24   C     C_3   0.310169 0.645203 0.265604 -0.382317
C25   C     C_3   0.858433 0.664042 0.609504 -0.361289
C26   C     C_3   0.141567 0.335947 0.390503 -0.361289
C27   C     C_R   0.373270 0.062317 0.496283 -0.144208
C28   C     C_R   0.626192 0.065449 0.503726 -0.142620
C29   C     C_R   0.373808 0.934550 0.496274 -0.142620
C30   C     C_R   0.499443 0.128304 0.500007 0.018553
C31   C     C_R   0.500557 0.871695 0.499993 0.018553
C32   C     C_R   0.925722 0.575662 0.550775 0.111265
Cu1   Cu    Cu3+1 0.359340 0.499980 0.500000 0.915599
Cu2   Cu    Cu3+1 0.640660 0.500020 0.500000 0.915598
H1    H     H_    0.701104 0.381193 0.257446 0.114814
H2    H     H_    0.274336 0.109094 0.493244 0.127419
H3    H     H_    0.725002 0.114710 0.506756 0.127950
H4    H     H_    0.274998 0.885290 0.493245 0.127950
H5    H     H_    0.129461 0.633695 0.590018 0.113829
H6    H     H_    0.870539 0.366302 0.409983 0.113830
H7    H     H_    0.745186 0.299957 0.776250 0.107665
H8    H     H_    0.639223 0.288520 0.693876 0.144983
H9    H     H_    0.769586 0.410882 0.702843 0.160224
H10   H     H_    0.254822 0.700048 0.223753 0.107666
H11   H     H_    0.230413 0.589128 0.297160 0.160227
H12   H     H_    0.298878 0.618767 0.742554 0.114822
H13   H     H_    0.360782 0.711482 0.306126 0.144981
H14   H     H_    0.882890 0.635592 0.668096 0.094556
H15   H     H_    0.901936 0.758389 0.601050 0.080511
H16   H     H_    0.745292 0.671820 0.607765 0.204179
H17   H     H_    0.098084 0.241603 0.398973 0.080519
H18   H     H_    0.117091 0.364370 0.331912 0.094544
H19   H     H_    0.254707 0.328183 0.392233 0.204179
H20   H     H_    0.565189 0.370550 0.998725 0.115010
H21   H     H_    0.434783 0.629415 0.001276 0.115011
H22   H     H_    0.297567 0.640329 0.882645 0.104274
H23   H     H_    0.702400 0.359606 0.117355 0.104265
H24   H     H_    0.338456 0.590019 0.115267 0.101765
H25   H     H_    0.661531 0.409974 0.884737 0.101768
H26   H     H_    0.725664 0.890906 0.506757 0.127419
N1    N     N_R   0.147930 0.499970 0.499980 -0.227222
N2    N     N_R   0.852070 0.500030 0.500020 -0.227223
O1    O     O_R   0.381260 0.680340 0.500000 -0.512094
O2    O     O_R   0.618740 0.319660 0.500000 -0.512095
O3    O     O_R   0.618830 0.680370 0.500010 -0.516656
O4    O     O_R   0.381170 0.319630 0.499990 -0.516654
O5    O     O_R   0.367440 0.500000 0.613600 -0.505370
O6    O     O_R   0.632560 0.500000 0.386400 -0.505368
O7    O     O_R   0.605010 0.500030 0.613600 -0.520610
O8    O     O_R   0.394990 0.499970 0.386400 -0.520611

loop_
_geom_bond_atom_site_label_1
_geom_bond_atom_site_label_2
_ccdc_geom_bond_type
C29   H4    S    
C22   H8    S    
C2    C4    A    
C16   H22   S    
C15   C17   A    
C26   H18   S    
C27   H2    S    
C27   C29   A    
C5    C7    S    
C1    O3    A    
C22   H9    S    
Cu2   O7    S    
C2    N1    A    
C5    O5    A    
C21   H20   S    
Cu1   O1    S    
C7    C18   A    
Cu1   N1    S    
Cu1   O4    S    
C25   C32   S    
C6    O6    A    
Cu1   Cu2   S    
C3    H5    S    
C28   C30   A    
C2    C26   S    
Cu2   N2    S    
C19   H1    S    
C23   C28   A    
C27   C30   A    
C29   C31   A    
C9    C11   A    
C25   H14   S    
C23   H26   S    
C12   O4    A    
C28   H3    S    
C20   H21   S    
C11   H25   S    
C24   H11   S    
C18   H12   S    
Cu2   O3    S    
C16   C18   A    
C17   C19   A    
C24   H10   S    
Cu2   O2    S    
C25   H15   S    
C13   C15   A    
C1    C31   S    
Cu1   O8    S    
C3    C32   A    
C12   O2    A    
C11   C14   A    
C14   C16   A    
C9    C22   S    
C22   H7    S    
C3    N1    A    
C32   N2    A    
C8    C19   A    
C26   H19   S    
C4    N2    A    
C15   C21   S    
C20   C21   D    
Cu1   O5    S    
C14   C20   S    
C7    C9    A    
Cu2   O6    S    
C6    O8    A    
C25   H16   S    
C1    O1    A    
C6    C8    S    
C13   H24   S    
C10   C24   S    
C26   H17   S    
C24   H13   S    
C12   C30   S    
C5    O7    A    
C8    C10   A    
C4    H6    S    
C17   H23   S    
C10   C13   A    
C23   C31   A    
