data_mof_unit_59557.cif
_audit_creation_date              2013-03-05T15:43:08-0500
_audit_creation_method            fapswitch 2.2
_symmetry_space_group_name_H-M    P1
_symmetry_Int_Tables_number       1
_space_group_crystal_system       triclinic
_cell_length_a                    6.95373
_cell_length_b                    13.751417
_cell_length_c                    18.10219
_cell_angle_alpha                 111.866351
_cell_angle_beta                  94.869722
_cell_angle_gamma                 90.387334
_cell_volume                      1599.28302519

loop_
_atom_site_label
_atom_site_type_symbol
_atom_site_description
_atom_site_fract_x
_atom_site_fract_y
_atom_site_fract_z
_atom_type_partial_charge
O1    O     O_R   0.484560 0.544530 0.414330 -0.558701
O2    O     O_R   0.197040 0.638810 0.585080 -0.561014
O3    O     O_R   0.026800 0.455470 0.585670 -0.557861
C1    C     C_R   0.373744 0.679000 0.609607 0.805896
O4    O     O_R   0.155000 0.556150 0.414940 -0.559585
O5    O     O_R   0.984450 0.372220 0.414320 -0.566387
C2    C     C_R   0.318271 0.564975 0.386708 0.845075
O6    O     O_R   0.526900 0.627780 0.585680 -0.562052
O7    O     O_3   0.339170 0.439750 0.499990 -0.285048
V1    V     V_3+5 0.064350 0.511180 0.500000 1.105482
O8    O     O_R   0.654880 0.361190 0.414920 -0.567472
C3    C     C_R   0.817515 0.324792 0.386474 0.823943
O9    O     O_R   0.696930 0.443850 0.585060 -0.561642
C4    C     C_R   0.868658 0.406162 0.590901 0.808262
V2    V     V_3+5 0.564340 0.488820 0.500000 1.104404
O10   O     O_3   0.839390 0.560250 0.500010 -0.287140
C5    C     C_R   0.043341 0.846799 0.816798 -0.110762
C6    C     C_R   0.894340 0.361937 0.652861 -0.128512
C7    C     C_R   0.918851 0.797385 0.678271 -0.056616
C8    C     C_R   0.972639 0.770005 0.743657 -0.085870
C9    C     C_R   0.056026 0.951453 0.824547 -0.121967
C10   C     C_R   0.002566 0.981419 0.758678 0.063183
C11   C     C_R   0.933703 0.902011 0.684928 0.047945
C12   C     C_R   0.011166 0.087548 0.764272 0.002148
C13   C     C_R   0.948528 0.113568 0.696577 0.053679
C14   C     C_R   0.883571 0.031193 0.624289 -0.093591
C15   C     C_R   0.877183 0.927556 0.618729 -0.116748
C16   C     C_R   0.084342 0.168246 0.835405 -0.087917
C17   C     C_R   0.085391 0.271257 0.842839 -0.020615
C18   C     C_R   0.009647 0.300224 0.780555 -0.053979
C19   C     C_R   0.950211 0.221336 0.704314 0.034526
C20   C     C_R   0.997100 0.406997 0.791946 0.302908
C21   C     C_R   0.930988 0.434891 0.728720 -0.099047
C22   C     C_R   0.900222 0.254503 0.639276 -0.147879
H1    H     H_    0.823886 0.866821 0.562266 0.065350
H2    H     H_    0.869734 0.200000 0.578490 0.044948
H3    H     H_    0.915597 0.516741 0.737599 0.104220
H4    H     H_    0.152608 0.327139 0.898245 0.191099
H5    H     H_    0.956225 0.689002 0.737512 0.080656
H6    H     H_    0.832289 0.044643 0.571196 0.066067
H7    H     H_    0.147338 0.155032 0.886988 0.119720
H8    H     H_    0.114714 0.222745 0.307879 0.115674
H9    H     H_    0.833650 0.035841 0.194410 0.111105
C23   C     C_2   0.134419 0.036777 0.183514 -0.214434
C24   C     C_2   0.972171 0.078063 0.217101 -0.085368
H10   H     H_    0.675776 0.179372 0.295620 0.066757
C25   C     C_2   0.813954 0.221787 0.318785 -0.216977
C26   C     C_2   0.976198 0.180518 0.285188 -0.084005
H11   H     H_    0.272595 0.079199 0.206673 0.069963
C27   C     C_R   0.410071 0.783648 0.676488 -0.100218
C28   C     C_R   0.541758 0.473445 0.827149 -0.108661
C29   C     C_R   0.536881 0.878843 0.813914 -0.045032
C30   C     C_R   0.478081 0.785078 0.751640 -0.069149
C31   C     C_R   0.407333 0.880074 0.664368 -0.101079
C32   C     C_R   0.468170 0.978454 0.728092 0.059743
C33   C     C_R   0.531601 0.974619 0.803074 -0.018941
C34   C     C_R   0.467504 0.079886 0.720790 0.002412
C35   C     C_R   0.523457 0.176061 0.789172 -0.064691
C36   C     C_R   0.579558 0.165026 0.863459 0.324489
C37   C     C_R   0.587480 0.066148 0.868126 -0.138894
C38   C     C_R   0.408967 0.087608 0.646987 -0.071883
C39   C     C_R   0.395547 0.183478 0.638920 -0.095982
C40   C     C_R   0.442823 0.277124 0.703381 0.049599
C41   C     C_R   0.514495 0.277100 0.779354 0.040398
C42   C     C_R   0.416397 0.371283 0.691149 -0.067214
C43   C     C_R   0.460360 0.467730 0.752567 -0.067121
C44   C     C_R   0.571365 0.378629 0.840045 -0.088754
H12   H     H_    0.642482 0.388853 0.897285 0.167776
H13   H     H_    0.431775 0.538413 0.741363 0.069178
H14   H     H_    0.344538 0.184267 0.580850 0.057487
H15   H     H_    0.587597 0.876385 0.871376 0.113444
H16   H     H_    0.488431 0.712830 0.762152 0.050694
H17   H     H_    0.359264 0.875174 0.604916 0.037359
H18   H     H_    0.368866 0.020064 0.593562 0.062895
H19   H     H_    0.357768 0.370336 0.633483 0.110463
H20   H     H_    0.333705 0.666879 0.195125 0.115049
H21   H     H_    0.615330 0.590803 0.307247 0.114730
C45   C     C_2   0.315312 0.602035 0.319248 -0.220996
C46   C     C_2   0.476970 0.610768 0.285137 -0.082626
H22   H     H_    0.771766 0.636233 0.205835 0.073256
C47   C     C_2   0.633762 0.655903 0.183202 -0.195541
C48   C     C_2   0.472107 0.646970 0.217245 -0.073376
O11   O     O_R   0.421600 0.630430 0.917010 -0.502541
O12   O     O_R   0.793840 0.702190 0.087630 -0.553259
O13   O     O_R   0.964010 0.886170 0.088190 -0.573317
C49   C     C_R   0.630647 0.693171 0.115848 0.847289
O14   O     O_R   0.751460 0.619510 0.917500 -0.498662
O15   O     O_R   0.921330 0.802900 0.916840 -0.568520
C50   C     C_R   0.575236 0.579550 0.892614 0.846278
O16   O     O_R   0.464290 0.713700 0.088350 -0.565582
O17   O     O_3   0.609200 0.818520 0.002630 -0.308460
V3    V     V_3+5 0.884140 0.747190 0.002530 1.212488
O18   O     O_R   0.251150 0.814630 0.917340 -0.568761
C51   C     C_R   0.075420 0.819307 0.887702 0.865288
O19   O     O_R   0.293530 0.897310 0.087470 -0.571101
C52   C     C_R   0.130870 0.933745 0.115844 0.825011
V4    V     V_3+5 0.384070 0.769710 0.002370 1.177774
O20   O     O_3   0.109180 0.698190 0.002460 -0.180037
N1    N     N_R   0.055222 0.491038 0.865617 0.068074
O21   O     O_R   0.088792 0.581930 0.861802 -0.364368
O22   O     O_R   0.020375 0.486721 0.933873 -0.359980
H23   H     H_    0.631935 0.061421 0.925589 0.114257
N2    N     N_R   0.616725 0.251784 0.937655 0.060854
O23   O     O_R   0.786845 0.265318 0.976845 -0.357517
O24   O     O_R   0.472087 0.299624 0.974882 -0.382586
H24   H     H_    0.177368 0.621756 0.296603 0.070198
H25   H     H_    0.863225 0.736786 0.622461 0.128211
H26   H     H_    0.101579 0.006984 0.883594 0.058327

loop_
_geom_bond_atom_site_label_1
_geom_bond_atom_site_label_2
_geom_bond_distance
_ccdc_geom_bond_type
C23   H11   1.086800 S    
C13   C19   1.435555 A    
C32   C33   1.411277 A    
C40   C42   1.403290 A    
O18   C51   1.304092 A    
O19   C52   1.307222 A    
C4    C6    1.461273 S    
O2    C1    1.314464 A    
C7    C8    1.393311 A    
C1    O6    1.295821 A    
C47   C48   1.353005 D    
V3    O20   1.707865 S    
C23   C24   1.353845 D    
C14   C15   1.390945 A    
C39   C40   1.392072 A    
C16   C17   1.372024 A    
O12   C49   1.306817 A    
O5    C3    1.293247 A    
C18   C19   1.426280 A    
O13   C52   1.293084 A    
C43   H13   1.080758 S    
V2    O10   2.144150 S    
C16   H7    1.074650 S    
C5    C8    1.396734 A    
C39   H14   1.084533 S    
C31   C32   1.444578 A    
O8    V2    2.003705 S    
C25   C26   1.353822 D    
C17   H4    1.075359 S    
O1    V2    2.011053 S    
C11   C15   1.396197 A    
O7    V1    2.154568 S    
O16   V4    2.019464 S    
C47   C49   1.486885 S    
C36   C37   1.394556 A    
C9    C10   1.422168 A    
C3    C25   1.486579 S    
C37   H23   1.085289 S    
O13   V3    1.999362 S    
V4    O20   2.144169 S    
H21   C46   1.086873 S    
C35   C41   1.466025 A    
O11   C50   1.298450 A    
O15   C51   1.287853 A    
C27   C30   1.394814 A    
C44   H12   1.068427 S    
C41   C44   1.445298 A    
O15   V3    2.002630 S    
C12   C13   1.434411 A    
C49   O16   1.294978 A    
H20   C48   1.086881 S    
O17   V3    2.154523 S    
O4    C2    1.306811 A    
C8    H5    1.081675 S    
C45   C46   1.353005 D    
C28   C44   1.420955 A    
C15   H1    1.084078 S    
C35   C36   1.430840 A    
C21   H3    1.083487 S    
C33   C37   1.390534 A    
C1    C27   1.498624 S    
C28   C43   1.392805 A    
C7    C11   1.400697 A    
C17   C18   1.394218 A    
C23   C52   1.486668 S    
C31   H17   1.076629 S    
H9    C24   1.086863 S    
N1    O21   1.297916 A    
O9    V2    2.019740 S    
C19   C22   1.430951 A    
N2    O24   1.300879 A    
H8    C26   1.086862 S    
O17   V4    1.698086 S    
C6    C22   1.405944 A    
O3    C4    1.316596 A    
C2    C45   1.486894 S    
N1    O22   1.301611 A    
O6    V2    1.998120 S    
C32   C34   1.449258 A    
C10   C12   1.425297 A    
O2    V1    2.006757 S    
O18   V4    2.019782 S    
O14   V3    2.006769 S    
C29   C30   1.390117 A    
C24   C26   1.484934 S    
H10   C25   1.086792 S    
O1    C2    1.295026 A    
C12   C16   1.401848 A    
H22   C47   1.086853 S    
O5    V1    1.999366 S    
C46   C48   1.486046 S    
O8    C3    1.307367 A    
O19   V4    2.003631 S    
C34   C38   1.405627 A    
C38   H18   1.075816 S    
C42   H19   1.083342 S    
C20   N1    1.425336 S    
C45   H24   1.086863 S    
C36   N2    1.427376 S    
C20   C21   1.381483 A    
O14   C50   1.311223 A    
C13   C14   1.410006 A    
O4    V1    2.004860 S    
C27   C31   1.422353 A    
O3    V1    2.002777 S    
V1    O10   1.707814 S    
C28   C50   1.499367 S    
C18   C20   1.408978 A    
C14   H6    1.077120 S    
C34   C35   1.457608 A    
C22   H2    1.077691 S    
O7    V2    1.700748 S    
C38   C39   1.382318 A    
C6    C21   1.366772 A    
C5    C9    1.394428 A    
C9    H26   1.075743 S    
C40   C41   1.422582 A    
C42   C43   1.388168 A    
O11   V4    1.998709 S    
N2    O23   1.301352 A    
C29   H15   1.082389 S    
C10   C11   1.415100 A    
C5    C51   1.467684 S    
O12   V3    2.004846 S    
O9    C4    1.316628 A    
C30   H16   1.080692 S    
C29   C33   1.402299 A    
C7    H25   1.080229 S    
