data_mof_unit_68027.cif
_audit_creation_date              2012-12-11T14:03:34-0500
_audit_creation_method            fapswitch 2.2
_symmetry_space_group_name_H-M    P1
_symmetry_Int_Tables_number       1
_space_group_crystal_system       triclinic
_cell_length_a                    7.149014
_cell_length_b                    11.590333
_cell_length_c                    19.055429
_cell_angle_alpha                 90.929841
_cell_angle_beta                  92.458307
_cell_angle_gamma                 89.668026
_cell_volume                      1577.2410696

loop_
_atom_site_label
_atom_site_type_symbol
_atom_type_description
_atom_site_fract_x
_atom_site_fract_y
_atom_site_fract_z
_atom_type_partial_charge
O1    O     O_R   0.330540 0.606360 0.598870 -0.535892
O2    O     O_R   0.669460 0.106360 0.401130 -0.535270
O3    O     O_R   0.026770 0.620470 0.750430 -0.554088
O4    O     O_R   0.973230 0.120470 0.249570 -0.556082
O5    O     O_R   0.856460 0.393640 0.750930 -0.565147
O6    O     O_R   0.143540 0.893640 0.249070 -0.551368
C1    C     C_R   0.197843 0.648440 0.773555 0.692031
C2    C     C_R   0.803059 0.144661 0.225157 0.679215
O7    O     O_R   0.000920 0.620350 0.599420 -0.540167
O8    O     O_R   0.999080 0.120350 0.400580 -0.541111
O9    O     O_R   0.830430 0.393520 0.598850 -0.512190
O10   O     O_R   0.169570 0.893520 0.401150 -0.515674
C3    C     C_R   0.168047 0.645535 0.574269 0.665140
C4    C     C_R   0.831862 0.145567 0.425526 0.676062
O11   O     O_R   0.356570 0.606480 0.750960 -0.551728
O12   O     O_R   0.643430 0.106480 0.249040 -0.549151
O13   O     O_3   0.176990 0.425580 0.674890 -0.383513
O14   O     O_3   0.823010 0.925580 0.325110 -0.384562
V1    V     V_3+5 0.902170 0.513810 0.674910 1.447070
V2    V     V_3+5 0.097830 0.013810 0.325090 1.461776
O15   O     O_R   0.500800 0.379530 0.599380 -0.530493
O16   O     O_R   0.499200 0.879530 0.400620 -0.527813
C5    C     C_R   0.667163 0.353577 0.574785 0.810200
C6    C     C_R   0.332740 0.853180 0.425119 0.810651
O17   O     O_R   0.526650 0.379650 0.750390 -0.544543
O18   O     O_R   0.473350 0.879650 0.249610 -0.562830
C7    C     C_R   0.698359 0.361958 0.777459 0.785139
C8    C     C_R   0.301708 0.850406 0.227156 0.734876
V3    V     V_3+5 0.402160 0.486190 0.674900 1.467261
V4    V     V_3+5 0.597840 0.986190 0.325100 1.461576
O19   O     O_3   0.677210 0.574420 0.674910 -0.397391
O20   O     O_3   0.322790 0.074420 0.325090 -0.392606
C9    C     C_R   0.748459 0.100943 0.887006 -0.072961
C10   C     C_R   0.267614 0.583378 0.113192 -0.153346
H1    H     H_    0.710737 0.012793 0.878315 0.186512
H2    H     H_    0.253841 0.492473 0.121774 0.204738
C11   C     C_R   0.721147 0.288366 0.839661 -0.210238
C12   C     C_R   0.285559 0.775727 0.163618 -0.247432
C13   C     C_R   0.820402 0.345166 0.196765 -0.186395
C14   C     C_R   0.181200 0.848667 0.817708 -0.241085
C15   C     C_R   0.845453 0.434872 0.152316 0.430793
C16   C     C_R   0.216369 0.932669 0.870029 0.484092
C17   C     C_R   0.826663 0.419245 0.078074 -0.173903
C18   C     C_R   0.286295 0.899604 0.936783 -0.087770
C19   C     C_R   0.804248 0.303189 0.046341 -0.009637
C20   C     C_R   0.267118 0.783751 0.959202 -0.044536
C21   C     C_R   0.810279 0.212195 0.097514 -0.008443
C22   C     C_R   0.246823 0.700244 0.903409 -0.002529
C23   C     C_R   0.784605 0.266244 0.970605 0.056355
C24   C     C_R   0.269517 0.746594 0.032620 0.079961
C25   C     C_R   0.799056 0.143720 0.954680 0.049570
C26   C     C_R   0.265684 0.624994 0.044258 0.098603
C27   C     C_R   0.847904 0.062628 0.007484 0.046627
C28   C     C_R   0.242976 0.545544 0.986280 -0.010813
C29   C     C_R   0.839108 0.098251 0.076942 -0.175996
C30   C     C_R   0.253469 0.584298 0.918486 -0.195766
C31   C     C_R   0.748106 0.338424 0.909020 0.373407
C32   C     C_R   0.265474 0.823754 0.094180 0.401204
C33   C     C_R   0.721969 0.169024 0.829080 -0.096988
C34   C     C_R   0.281386 0.655089 0.172532 -0.069734
C35   C     C_R   0.796929 0.234780 0.170971 -0.123199
C36   C     C_R   0.214085 0.733323 0.832399 -0.138768
H3    H     H_    0.829235 0.361760 0.253033 0.124493
H4    H     H_    0.130038 0.872712 0.765623 0.123919
H5    H     H_    0.856722 0.033606 0.116948 0.160728
H6    H     H_    0.255073 0.520887 0.876117 0.138727
C37   C     C_2   0.827286 0.221269 0.489839 0.185692
C38   C     C_2   0.172914 0.719844 0.509389 0.188178
C39   C     C_2   0.667157 0.272733 0.513226 -0.300445
C40   C     C_2   0.331960 0.773018 0.486719 -0.290239
C41   C     C_2   0.694968 0.109656 0.758559 0.687793
O21   O     O_2   0.640457 0.162258 0.706452 -0.582661
O22   O     O_R   0.731689 0.991221 0.752093 -0.668638
H7    H     H_    0.708943 0.960615 0.702323 0.305997
C42   C     C_2   0.289106 0.598366 0.243169 0.747880
O23   O     O_2   0.316391 0.654456 0.297452 -0.594648
O24   O     O_R   0.268537 0.478635 0.247401 -0.657128
H8    H     H_    0.276414 0.450398 0.297536 0.306212
C43   C     C_2   0.480398 0.242931 0.482452 0.784889
O25   O     O_2   0.383771 0.315771 0.452300 -0.549343
O26   O     O_R   0.414815 0.130922 0.490287 -0.657744
H9    H     H_    0.294637 0.116507 0.462253 0.318256
C44   C     C_2   0.518266 0.744139 0.517691 0.789831
O27   O     O_2   0.611801 0.817376 0.549708 -0.550570
O28   O     O_R   0.587780 0.632680 0.507512 -0.657298
H10   H     H_    0.709321 0.619251 0.534777 0.318877
C45   C     C_2   0.880911 0.934094 0.995563 0.823508
O29   O     O_2   0.889841 0.870147 0.046022 -0.549901
O30   O     O_R   0.882701 0.882049 0.929407 -0.681110
H11   H     H_    0.888306 0.795066 0.932184 0.300685
C46   C     C_2   0.230096 0.417731 0.991651 0.688296
O31   O     O_2   0.140264 0.362893 0.946885 -0.580085
O32   O     O_R   0.344360 0.357976 0.039051 -0.695085
H12   H     H_    0.407410 0.292887 0.013127 0.316004
O33   O     O_3   0.697867 0.452562 0.916030 -0.576045
C47   C     C_3   0.825486 0.529851 0.886914 0.070146
H13   H     H_    0.905398 0.574691 0.928542 0.173395
H14   H     H_    0.932312 0.489561 0.854307 0.128270
C48   C     C_3   0.718000 0.624880 0.849227 -0.633016
H15   H     H_    0.612130 0.662751 0.883578 0.237302
H16   H     H_    0.811446 0.695060 0.834165 0.195003
H17   H     H_    0.651503 0.588365 0.801480 0.240420
O34   O     O_3   0.213800 0.940201 0.083485 -0.560436
C49   C     C_3   0.290692 0.023113 0.132147 0.071536
H18   H     H_    0.194967 0.035931 0.174585 0.168258
H19   H     H_    0.435661 0.000647 0.150280 0.152897
C50   C     C_3   0.300029 0.142003 0.102091 -0.610348
H20   H     H_    0.195686 0.153272 0.058113 0.269086
H21   H     H_    0.274980 0.209031 0.143148 0.201140
H22   H     H_    0.443636 0.154718 0.084737 0.234564
C51   C     C_2   0.799373 0.532475 0.044044 0.822098
O35   O     O_2   0.912443 0.608643 0.052409 -0.537540
O36   O     O_R   0.626798 0.565973 0.019344 -0.644122
H23   H     H_    0.549899 0.495903 0.020600 0.295858
C52   C     C_2   0.407547 0.983432 0.974873 0.802077
O37   O     O_2   0.400940 0.085498 0.960346 -0.548887
O38   O     O_R   0.531753 0.947852 0.027979 -0.674012
H24   H     H_    0.558803 0.862295 0.026836 0.270722
O39   O     O_3   0.893015 0.540383 0.183169 -0.547974
C53   C     C_3   0.730845 0.608067 0.191943 0.058627
H25   H     H_    0.675170 0.593271 0.244258 0.128144
H26   H     H_    0.617426 0.586852 0.152917 0.122533
C54   C     C_3   0.778662 0.734964 0.184011 -0.526757
H27   H     H_    0.666479 0.780276 0.153268 0.183110
H28   H     H_    0.797386 0.776626 0.236040 0.193361
H29   H     H_    0.909820 0.745267 0.156355 0.277098
O40   O     O_3   0.155412 0.045576 0.862973 -0.525037
C55   C     C_3   0.203003 0.092549 0.798990 0.056880
H30   H     H_    0.086686 0.076353 0.759991 0.141489
H31   H     H_    0.335861 0.056648 0.779214 0.119518
C56   C     C_3   0.225757 0.221363 0.810146 -0.564056
H32   H     H_    0.337662 0.239400 0.850853 0.247698
H33   H     H_    0.262093 0.260891 0.760590 0.192055
H34   H     H_    0.093527 0.260240 0.827122 0.230951
O41   O     O_3   0.991561 0.230651 0.530314 -0.530165
C57   C     C_3   0.016548 0.126799 0.567674 0.112495
H35   H     H_    0.064169 0.055851 0.532691 0.123061
H36   H     H_    0.885396 0.098760 0.592199 0.134950
C58   C     C_3   0.162417 0.145603 0.626257 -0.602818
H37   H     H_    0.099031 0.201849 0.666232 0.204133
H38   H     H_    0.204986 0.061373 0.648908 0.147536
H39   H     H_    0.287922 0.188722 0.607328 0.261519
O42   O     O_3   0.012942 0.721888 0.466017 -0.530735
C59   C     C_3   0.999344 0.613210 0.431081 0.124220
H40   H     H_    0.944481 0.547037 0.466297 0.121710
H41   H     H_    0.136871 0.582047 0.412188 0.147929
C60   C     C_3   0.867523 0.622568 0.367338 -0.601135
H42   H     H_    0.930586 0.679977 0.329024 0.230665
H43   H     H_    0.847431 0.535440 0.343248 0.163726
H44   H     H_    0.729892 0.658192 0.381966 0.240132

loop_
_geom_bond_atom_site_label_1
_geom_bond_atom_site_label_2
_ccdc_geom_bond_type
C45   O29   D    
O32   H12   S    
C15   C17   A    
O22   H7    S    
C5    C39   S    
O33   C47   S    
O4    C2    A    
C56   H34   S    
V1    O19   S    
C55   H30   S    
C49   H19   S    
O26   H9    S    
C6    C40   S    
O41   C57   S    
C13   C15   A    
O28   H10   S    
O9    V1    S    
C17   C51   S    
C60   H43   S    
O3    C1    A    
C57   C58   S    
C58   H39   S    
C54   H28   S    
O12   V4    S    
C52   O37   D    
C47   C48   S    
C14   C36   A    
C38   O42   S    
O7    C3    A    
O13   V1    S    
O5    C7    A    
O7    V1    S    
O6    C8    A    
C51   O36   S    
C60   H42   S    
C18   C52   S    
C18   C20   A    
C52   O38   S    
C47   H14   S    
C24   C26   A    
C4    C37   S    
O3    V1    S    
O14   V4    S    
C8    C12   S    
C14   C16   A    
C10   H2    S    
C53   C54   S    
C2    C35   S    
C19   C21   A    
C2    O12   A    
C12   C32   A    
C10   C34   A    
C50   H21   S    
C16   C18   A    
C59   C60   S    
C49   H18   S    
C29   H5    S    
C26   C28   A    
O11   V3    S    
C20   C22   A    
C27   C29   A    
O17   V3    S    
C13   C35   A    
C28   C30   A    
C24   C32   A    
C54   H27   S    
C60   H44   S    
C59   H41   S    
O8    C4    A    
O8    V2    S    
C46   O31   D    
C43   O26   S    
C57   H35   S    
C54   H29   S    
C1    O11   A    
C23   C25   A    
O24   H8    S    
O15   V3    S    
C9    C25   A    
C37   C39   D    
C37   O41   S    
C42   O23   D    
C1    C36   S    
C46   O32   S    
C17   C19   A    
C22   C36   A    
C44   O27   D    
C19   C23   A    
C50   H20   S    
C47   H13   S    
O10   V2    S    
O1    V3    S    
C27   C45   S    
C15   O39   S    
O39   C53   S    
C40   C44   S    
C42   O24   S    
C11   C33   A    
C16   O40   S    
C12   C34   A    
C57   H36   S    
C48   H16   S    
O18   V4    S    
O15   C5    A    
C50   H22   S    
O16   C6    A    
C39   C43   S    
O1    C3    A    
C56   H32   S    
C55   C56   S    
O6    V2    S    
C53   H25   S    
C53   H26   S    
C21   C29   A    
O36   H23   S    
V2    O20   S    
C22   C30   A    
O10   C6    A    
O16   V4    S    
C51   O35   D    
C44   O28   S    
C10   C26   A    
C59   H40   S    
C56   H33   S    
C55   H31   S    
C21   C35   A    
C23   C31   A    
C58   H37   S    
O40   C55   S    
O5    V1    S    
O17   C7    A    
C13   H3    S    
C20   C24   A    
C34   C42   S    
O18   C8    A    
C14   H4    S    
C48   H15   S    
O2    V4    S    
C45   O30   S    
C41   O21   D    
V3    O19   S    
O13   V3    S    
V4    O20   S    
C58   H38   S    
C7    C11   S    
C30   H6    S    
O9    C5    A    
C9    H1    S    
O14   V2    S    
O2    C4    A    
C43   O25   D    
O4    V2    S    
C28   C46   S    
C48   H17   S    
C9    C33   A    
C31   O33   S    
C41   O22   S    
O34   C49   S    
C38   C40   D    
C32   O34   S    
C25   C27   A    
O30   H11   S    
O38   H24   S    
C49   C50   S    
C11   C31   A    
O42   C59   S    
C33   C41   S    
C3    C38   S    
