data_mof_unit_27436.cif
_audit_creation_date              2012-12-10T17:09:54-0500
_audit_creation_method            fapswitch 2.2
_symmetry_space_group_name_H-M    P1
_symmetry_Int_Tables_number       1
_space_group_crystal_system       triclinic
_cell_length_a                    10.928252
_cell_length_b                    12.998049
_cell_length_c                    11.778416
_cell_angle_alpha                 100.102458
_cell_angle_beta                  95.765583
_cell_angle_gamma                 91.23932
_cell_volume                      1637.48770656

loop_
_atom_site_label
_atom_site_type_symbol
_atom_type_description
_atom_site_fract_x
_atom_site_fract_y
_atom_site_fract_z
_atom_type_partial_charge
C1    C     C_R   0.501334 0.299721 0.478621 0.874821
C2    C     C_R   0.080576 0.562472 0.611249 -0.241918
C3    C     C_R   0.131035 0.525311 0.504560 -0.179060
C4    C     C_R   0.052289 0.496447 0.401440 0.591740
C5    C     C_R   0.926124 0.495591 0.403169 -0.223297
C6    C     C_R   0.873304 0.523345 0.506946 -0.117529
C7    C     C_R   0.488011 0.813910 0.529757 -0.375569
C8    C     C_R   0.510663 0.187436 0.467214 -0.228170
C9    C     C_R   0.597275 0.025385 0.382201 0.459325
C10   C     C_R   0.584222 0.133020 0.388471 0.494325
C11   C     C_R   0.449721 0.135527 0.539982 -0.224445
C12   C     C_R   0.263205 0.508683 0.500681 0.847988
C13   C     C_R   0.462428 0.028648 0.536454 -0.150144
C14   C     C_R   0.540543 0.973054 0.460080 -0.223164
C15   C     C_R   0.557767 0.866708 0.462491 0.562232
C16   C     C_R   0.398860 0.867274 0.592977 0.269808
C17   C     C_R   0.395168 0.976281 0.605947 0.431611
C18   C     C_R   0.419033 0.378569 0.019041 -0.303930
C19   C     C_R   0.418103 0.394915 0.140282 0.757725
C20   C     C_R   0.534290 0.553171 0.160261 0.749766
C21   C     C_R   0.529713 0.543343 0.037107 -0.259911
C22   C     C_R   0.473296 0.453961 0.964915 -0.240349
C23   C     C_R   0.497985 0.700733 0.520923 0.935153
C24   C     C_R   0.470815 0.442861 0.840929 0.609587
C25   C     C_R   0.566504 0.611939 0.862226 0.560095
C26   C     C_R   0.578197 0.621941 0.985466 0.294028
C27   C     C_R   0.738218 0.507772 0.502481 0.858236
C28   C     C_R   0.152792 0.603213 0.719133 0.475095
C29   C     C_R   0.101644 0.610651 0.823705 0.285805
C30   C     C_R   0.975114 0.597908 0.821480 0.289514
C31   C     C_R   0.903175 0.600565 0.717176 0.358357
C32   C     C_R   0.950685 0.561234 0.611272 -0.179385
Cu1   Cu    Cu3+1 0.509250 0.507730 0.615930 1.072850
Cu2   Cu    Cu3+1 0.490750 0.492270 0.384070 1.118572
H1    H     H_    0.391273 0.179078 0.598694 0.237850
H2    H     H_    0.376115 0.307036 0.968836 0.190156
H3    H     H_    0.869419 0.468447 0.322086 0.197764
N1    N     N_R   0.523180 0.519350 0.790130 -0.266377
N2    N     N_R   0.476820 0.480650 0.209890 -0.300172
O1    O     O_R   0.506570 0.354460 0.582000 -0.569099
O2    O     O_R   0.490940 0.341410 0.386200 -0.493049
O3    O     O_R   0.327470 0.506530 0.597920 -0.537410
O4    O     O_R   0.311840 0.493480 0.402120 -0.519421
O5    O     O_R   0.509060 0.658590 0.613800 -0.491522
O6    O     O_R   0.493430 0.645540 0.418000 -0.524638
O7    O     O_R   0.688160 0.506520 0.597880 -0.553777
O8    O     O_R   0.672530 0.493470 0.402080 -0.570466
F1    F     F_    0.096597 0.462946 0.298167 -0.623942
O9    O     O_3   0.312744 0.029254 0.674574 -0.567837
C33   C     C_3   0.367144 0.049404 0.790351 -0.287422
H4    H     H_    0.456106 0.095055 0.799184 0.164048
H5    H     H_    0.380372 0.975629 0.824856 0.163894
H6    H     H_    0.304297 0.097162 0.844423 0.189503
F2    F     F_    0.645725 0.184424 0.319131 -0.642966
O10   O     O_3   0.417325 0.353189 0.771227 -0.573679
C34   C     C_3   0.287290 0.356023 0.762720 -0.254675
H7    H     H_    0.250408 0.428481 0.810461 0.170955
H8    H     H_    0.249913 0.288135 0.795458 0.161053
H9    H     H_    0.250867 0.346544 0.670046 0.178218
O11   O     O_3   0.603449 0.695780 0.814679 -0.514661
C35   C     C_3   0.534139 0.784725 0.848329 -0.176499
H10   H     H_    0.436930 0.765041 0.859525 0.203934
H11   H     H_    0.533598 0.833448 0.780463 0.159411
H12   H     H_    0.579762 0.835303 0.927264 0.141922
O12   O     O_3   0.619590 0.715637 0.055536 -0.573558
C36   C     C_3   0.749063 0.721693 0.068212 -0.115994
H13   H     H_    0.784104 0.736796 0.987213 0.199661
H14   H     H_    0.788515 0.651302 0.096963 0.194933
H15   H     H_    0.780966 0.788718 0.137541 0.200368
F3    F     F_    0.358741 0.323043 0.187644 -0.618857
F4    F     F_    0.599221 0.633592 0.230884 -0.575623
F5    F     F_    0.267685 0.646404 0.726899 -0.620640
O13   O     O_3   0.176709 0.629191 0.927455 -0.530292
C37   C     C_3   0.178611 0.737000 0.973553 -0.203438
H16   H     H_    0.086551 0.761655 0.998053 0.169851
H17   H     H_    0.210978 0.785046 0.912052 0.162391
H18   H     H_    0.244229 0.752616 0.053388 0.175114
O14   O     O_3   0.923208 0.596106 0.922956 -0.569835
C38   C     C_3   0.869013 0.495267 0.916288 -0.263322
H19   H     H_    0.936320 0.433041 0.896750 0.165860
H20   H     H_    0.786989 0.481417 0.850753 0.158894
H21   H     H_    0.837833 0.488535 0.001455 0.178658
O15   O     O_3   0.799658 0.659117 0.721420 -0.503192
C39   C     C_3   0.824018 0.754018 0.683272 -0.226357
H22   H     H_    0.833465 0.740525 0.588751 0.171013
H23   H     H_    0.907444 0.796824 0.733125 0.120283
H24   H     H_    0.745131 0.805173 0.697653 0.190885
F6    F     F_    0.641448 0.813729 0.399365 -0.580931
O16   O     O_3   0.312774 0.813337 0.640360 -0.523734
C40   C     C_3   0.202228 0.802469 0.565068 -0.152432
H25   H     H_    0.211180 0.743174 0.486227 0.129479
H26   H     H_    0.173109 0.877541 0.539604 0.163259
H27   H     H_    0.126978 0.775742 0.610570 0.171196
O17   O     O_3   0.666431 0.972722 0.300228 -0.500226
C41   C     C_3   0.593107 0.952903 0.192316 -0.141342
H28   H     H_    0.545296 0.023039 0.171042 0.141070
H29   H     H_    0.524574 0.887879 0.190057 0.192162
H30   H     H_    0.653594 0.929726 0.123048 0.173843

loop_
_geom_bond_atom_site_label_1
_geom_bond_atom_site_label_2
_ccdc_geom_bond_type
C6    C32   A    
C21   C26   A    
C23   O6    A    
C5    H3    S    
C1    C8    S    
O13   C37   S    
C36   H14   S    
C41   H28   S    
C39   H24   S    
O10   C34   S    
C41   H30   S    
C24   O10   S    
C37   H17   S    
Cu1   O3    S    
C28   C29   A    
C39   H23   S    
C12   O4    A    
C30   C31   A    
C36   H15   S    
C29   O13   S    
C31   O15   S    
C34   H7    S    
C2    C32   A    
C18   C19   A    
C35   H11   S    
C12   O3    A    
C3    C12   S    
C1    O1    A    
C40   H26   S    
C6    C27   S    
C16   C17   A    
C37   H18   S    
C24   N1    A    
C20   F4    S    
C25   O11   S    
C9    C10   A    
C35   H10   S    
C7    C15   A    
C36   H13   S    
C16   O16   S    
C21   C22   A    
Cu1   O7    S    
Cu1   O5    S    
C28   F5    S    
Cu2   O2    S    
C33   H4    S    
Cu1   O1    S    
C37   H16   S    
Cu2   N2    S    
C33   H6    S    
C39   H22   S    
C17   O9    S    
C38   H20   S    
C20   N2    A    
O14   C38   S    
C25   C26   A    
C23   O5    A    
O11   C35   S    
C35   H12   S    
C9    C14   A    
C29   C30   A    
C25   N1    A    
C33   H5    S    
O15   C39   S    
Cu1   Cu2   S    
Cu2   O6    S    
C19   N2    A    
C27   O7    A    
C1    O2    A    
C7    C16   A    
O9    C33   S    
C22   C24   A    
C3    C4    A    
C40   H27   S    
C4    F1    S    
C27   O8    A    
C18   C22   A    
C26   O12   S    
C31   C32   A    
Cu2   O4    S    
C4    C5    A    
C38   H21   S    
C41   H29   S    
Cu1   N1    S    
C34   H9    S    
C13   C17   A    
C11   H1    S    
C2    C3    A    
C11   C13   A    
C40   H25   S    
C5    C6    A    
C8    C11   A    
C7    C23   S    
C34   H8    S    
O17   C41   S    
C10   F2    S    
C38   H19   S    
C30   O14   S    
C20   C21   A    
C8    C10   A    
O12   C36   S    
C14   C15   A    
C19   F3    S    
C2    C28   A    
Cu2   O8    S    
O16   C40   S    
C13   C14   A    
C18   H2    S    
C9    O17   S    
C15   F6    S    
