data_mof_unit_18879.cif
_audit_creation_date              2012-12-10T18:20:31-0500
_audit_creation_method            fapswitch 2.2
_symmetry_space_group_name_H-M    P1
_symmetry_Int_Tables_number       1
_space_group_crystal_system       triclinic
_cell_length_a                    14.12846
_cell_length_b                    13.612772
_cell_length_c                    14.815063
_cell_angle_alpha                 89.309793
_cell_angle_beta                  88.319801
_cell_angle_gamma                 83.489693
_cell_volume                      2829.64374251

loop_
_atom_site_label
_atom_site_type_symbol
_atom_type_description
_atom_site_fract_x
_atom_site_fract_y
_atom_site_fract_z
_atom_type_partial_charge
Br1   Br    Br    0.546066 0.699208 0.748113 -0.534607
Br2   Br    Br    0.893509 0.313119 0.720465 -0.443989
Br3   Br    Br    0.535765 0.285939 0.252204 -0.501252
Br4   Br    Br    0.409155 0.809174 0.899892 -0.471357
Br5   Br    Br    0.394722 0.217018 0.107897 -0.470566
Br6   Br    Br    0.717254 0.628861 0.349119 -0.398949
Br7   Br    Br    0.283538 0.343445 0.628166 -0.488331
Br8   Br    Br    0.880471 0.762147 0.340641 -0.400333
Br9   Br    Br    0.104743 0.374457 0.759284 -0.396474
Br10  Br    Br    0.105900 0.712209 0.299296 -0.460045
C1    C     C_R   0.501319 0.497636 0.327073 0.939226
C2    C     C_R   0.450214 0.327473 0.953485 -0.072143
C3    C     C_R   0.802390 0.444204 0.561107 -0.034175
C4    C     C_R   0.197642 0.560372 0.442268 -0.038739
C5    C     C_R   0.793154 0.563161 0.442190 0.409419
C6    C     C_R   0.205585 0.443625 0.562748 0.407552
C7    C     C_R   0.893510 0.571851 0.445207 -0.143661
C8    C     C_R   0.103728 0.450199 0.570846 -0.143611
C9    C     C_R   0.948438 0.508518 0.505328 -0.026467
C10   C     C_R   0.049698 0.507600 0.506084 -0.025591
C11   C     C_R   0.902076 0.446977 0.565923 -0.074180
C12   C     C_R   0.498493 0.500789 0.673068 0.936326
C13   C     C_R   0.096911 0.565386 0.442967 -0.073482
C14   C     C_R   0.942037 0.640337 0.391532 0.281189
C15   C     C_R   0.053248 0.402942 0.640840 0.274959
C16   C     C_R   0.516740 0.314686 0.501327 0.941308
C17   C     C_R   0.483199 0.685563 0.499799 0.929483
C18   C     C_R   0.042628 0.630991 0.385450 0.229037
C19   C     C_R   0.955187 0.394232 0.633498 0.219315
C20   C     C_1   0.470214 0.788990 0.503345 -0.109591
C21   C     C_1   0.529249 0.211835 0.508895 -0.107663
C22   C     C_2   0.457826 0.980636 0.512730 -0.037559
C23   C     C_R   0.468274 0.504897 0.954289 -0.009781
C24   C     C_2   0.540214 0.020717 0.521925 -0.021074
C25   C     C_1   0.537668 0.124644 0.515856 -0.030224
C26   C     C_1   0.461072 0.876519 0.507661 -0.025939
C27   C     C_R   0.474498 0.417607 0.813430 -0.240558
C28   C     C_R   0.492151 0.585920 0.187380 -0.248865
C29   C     C_R   0.492868 0.503510 0.768987 -0.104381
C30   C     C_R   0.501743 0.495580 0.231308 -0.093489
C31   C     C_R   0.494984 0.592643 0.813926 0.249078
C32   C     C_R   0.494080 0.406870 0.187286 0.242820
C33   C     C_R   0.474113 0.595952 0.907251 -0.000615
C34   C     C_R   0.470800 0.502123 0.048399 -0.011133
C35   C     C_R   0.471226 0.410006 0.095325 -0.008087
C36   C     C_R   0.634064 0.962872 0.538804 0.113020
C37   C     C_R   0.715399 0.981892 0.487481 -0.108264
C38   C     C_R   0.804525 0.931537 0.506385 -0.062490
C39   C     C_R   0.813214 0.861111 0.575901 -0.099643
C40   C     C_R   0.733073 0.842590 0.628019 -0.089444
C41   C     C_R   0.644108 0.894137 0.610389 -0.122380
C42   C     C_R   0.363611 0.040288 0.503072 0.130911
C43   C     C_R   0.291104 0.032774 0.568853 -0.145449
C44   C     C_R   0.203351 0.090916 0.562042 -0.090956
C45   C     C_R   0.464501 0.415874 0.906873 0.056418
C46   C     C_R   0.187064 0.156203 0.489162 -0.076399
C47   C     C_R   0.258325 0.163039 0.422670 -0.082216
C48   C     C_R   0.346141 0.105044 0.429230 -0.132932
C49   C     C_R   0.459781 0.777821 0.100232 0.132887
C50   C     C_R   0.532713 0.839516 0.090255 -0.088640
C51   C     C_R   0.527660 0.927614 0.138634 -0.079494
C52   C     C_R   0.450131 0.954428 0.197438 -0.059953
C53   C     C_R   0.377089 0.893636 0.207477 -0.119685
C54   C     C_R   0.381544 0.805749 0.158808 -0.118235
C55   C     C_R   0.437034 0.236038 0.903691 0.114415
C56   C     C_R   0.477078 0.591078 0.095371 0.055510
C57   C     C_R   0.509490 0.156359 0.901621 -0.110334
C58   C     C_R   0.498981 0.072128 0.851363 -0.095372
C59   C     C_R   0.416255 0.066972 0.802970 -0.081616
C60   C     C_R   0.343423 0.145565 0.805530 -0.081089
C61   C     C_R   0.353559 0.229836 0.855862 -0.067950
C62   C     C_R   0.460178 0.685621 0.955689 0.273820
C63   C     C_R   0.449125 0.325859 0.048150 0.276950
C64   C     C_R   0.466059 0.683298 0.049929 -0.070618
H1    H     H_    0.472006 0.351489 0.773935 0.164988
H2    H     H_    0.303060 0.983020 0.626003 0.141344
H3    H     H_    0.148140 0.085746 0.613529 0.160199
H4    H     H_    0.119335 0.201628 0.484332 0.141696
H5    H     H_    0.245673 0.213563 0.366216 0.166996
H6    H     H_    0.400782 0.111317 0.377388 0.156693
H7    H     H_    0.593445 0.819094 0.045347 0.158618
H8    H     H_    0.583988 0.974966 0.130766 0.165000
H9    H     H_    0.446651 0.022382 0.235080 0.168900
H10   H     H_    0.317093 0.914583 0.253036 0.166445
H11   H     H_    0.324655 0.759065 0.167167 0.177376
H12   H     H_    0.497161 0.651868 0.226423 0.162279
H13   H     H_    0.574322 0.160079 0.938051 0.158737
H14   H     H_    0.555179 0.011066 0.849493 0.163261
H15   H     H_    0.408628 0.002053 0.763561 0.163806
H16   H     H_    0.279357 0.141437 0.768099 0.177064
H17   H     H_    0.297170 0.290736 0.856793 0.200190
H18   H     H_    0.764763 0.398526 0.606450 0.190800
H19   H     H_    0.236059 0.604694 0.396358 0.188393
H20   H     H_    0.709845 0.035876 0.433033 0.155335
H21   H     H_    0.866885 0.946920 0.466878 0.172716
H22   H     H_    0.882157 0.821551 0.589849 0.150823
H23   H     H_    0.740132 0.789205 0.682810 0.180958
H24   H     H_    0.583252 0.881888 0.653317 0.177503
N1    N     N_R   0.750030 0.500040 0.500070 -0.142196
N2    N     N_R   0.249970 0.499960 0.499930 -0.138251
O1    O     O_R   0.580280 0.500020 0.367860 -0.562425
O2    O     O_R   0.419720 0.499980 0.632140 -0.577652
O3    O     O_R   0.419730 0.500030 0.367840 -0.623743
O4    O     O_R   0.580270 0.499970 0.632160 -0.604489
O5    O     O_R   0.591830 0.359650 0.500030 -0.620592
O6    O     O_R   0.408170 0.640350 0.499970 -0.624476
O7    O     O_R   0.431280 0.359660 0.500010 -0.569872
O8    O     O_R   0.568720 0.640340 0.499990 -0.569350
Zn1   Zn    Zn3+2 0.607200 0.499990 0.500020 1.026721
Zn2   Zn    Zn3+2 0.392800 0.500010 0.499980 1.012634

loop_
_geom_bond_atom_site_label_1
_geom_bond_atom_site_label_2
_ccdc_geom_bond_type
C23   C45   A    
C46   H4    S    
C52   H9    S    
Br3   C32   S    
N2    Zn2   S    
C33   C62   A    
C38   H21   S    
C47   H5    S    
C34   C56   A    
C9    C10   A    
Br9   C15   S    
C29   C31   A    
C43   C44   A    
O8    Zn1   S    
C49   C54   A    
C28   H12   S    
Br2   C19   S    
C22   C26   S    
C9    C11   A    
C51   H8    S    
O4    Zn1   S    
O1    Zn1   S    
N1    Zn1   S    
C12   O4    A    
C46   C47   A    
C35   C63   A    
C24   C25   S    
C22   C42   S    
Br8   C14   S    
Br6   C5    S    
C28   C56   A    
C58   C59   A    
C55   C57   A    
C60   C61   A    
C24   C36   S    
C4    H19   S    
C48   H6    S    
C44   H3    S    
C41   H24   S    
C30   C32   A    
C27   H1    S    
C49   C50   A    
C2    C63   A    
C17   C20   S    
C31   C33   A    
C60   H16   S    
C8    C15   A    
C59   H15   S    
C16   O5    A    
C15   C19   A    
C44   C46   A    
C7    C14   A    
C57   C58   A    
C23   C33   A    
C62   C64   A    
C6    N2    A    
C17   O6    A    
C55   C61   A    
C11   C19   A    
C36   C41   A    
C50   C51   A    
C32   C35   A    
C22   C24   D    
C4    C13   A    
C3    N1    A    
C52   C53   A    
C50   H7    S    
C37   C38   A    
C10   C13   A    
C40   C41   A    
C3    C11   A    
C1    O1    A    
C13   C18   A    
C49   C64   S    
C42   C48   A    
Br1   C31   S    
C38   C39   A    
O3    Zn2   S    
C3    H18   S    
C58   H14   S    
O7    Zn2   S    
C21   C25   T    
O2    Zn2   S    
C43   H2    S    
C54   H11   S    
Br4   C62   S    
C42   C43   A    
O6    Zn2   S    
Br10  C18   S    
C5    C7    A    
O5    Zn1   S    
C36   C37   A    
Br7   C6    S    
C40   H23   S    
C23   C34   A    
C34   C35   A    
C14   C18   A    
C5    N1    A    
C16   O7    A    
C4    N2    A    
C2    C55   S    
C57   H13   S    
C12   O2    A    
C20   C26   T    
C53   H10   S    
C27   C29   A    
C28   C30   A    
C1    C30   S    
C47   C48   A    
C17   O8    A    
C12   C29   S    
C7    C9    A    
C37   H20   S    
C8    C10   A    
C39   H22   S    
Br5   C63   S    
C51   C52   A    
C59   C60   A    
C2    C45   A    
C53   C54   A    
C27   C45   A    
C16   C21   S    
C61   H17   S    
C6    C8    A    
C39   C40   A    
C1    O3    A    
C56   C64   A    
