data_mof_unit_51940.cif
_audit_creation_date              2012-12-11T13:59:56-0500
_audit_creation_method            fapswitch 2.2
_symmetry_space_group_name_H-M    P1
_symmetry_Int_Tables_number       1
_space_group_crystal_system       triclinic
_cell_length_a                    11.176829
_cell_length_b                    11.271959
_cell_length_c                    18.746492
_cell_angle_alpha                 91.508635
_cell_angle_beta                  89.515529
_cell_angle_gamma                 120.171621
_cell_volume                      2041.06950758

loop_
_atom_site_label
_atom_site_type_symbol
_atom_type_description
_atom_site_fract_x
_atom_site_fract_y
_atom_site_fract_z
_atom_type_partial_charge
C1    C     C_R   0.540675 0.482770 0.851025 0.622283
C2    C     C_R   0.448244 0.587020 0.358237 0.596725
C3    C     C_R   0.060668 0.520004 0.350951 0.596862
C4    C     C_R   0.413925 0.863062 0.357959 0.589741
C5    C     C_2   0.851756 0.408276 0.563856 0.421306
C6    C     C_2   0.502367 0.490271 0.577657 0.464676
C7    C     C_2   0.496615 0.003275 0.578026 0.391931
C8    C     C_2   0.427820 0.872685 0.435036 0.409714
C9    C     C_2   0.446552 0.581819 0.435708 0.441503
C10   C     C_2   0.997438 0.500651 0.420884 0.442592
C11   C     C_2   0.912489 0.373489 0.443531 0.346384
C12   C     C_R   0.522376 0.067612 0.853521 0.622440
C13   C     C_2   0.563847 0.622870 0.472850 0.348272
C14   C     C_2   0.339112 0.886446 0.478917 0.358832
C15   C     C_2   0.369169 0.906505 0.556410 0.330129
C16   C     C_2   0.551901 0.614431 0.550906 0.309986
C17   C     C_2   0.908401 0.350856 0.521188 0.326983
C18   C     C_2   0.989904 0.503825 0.924067 0.407256
C19   C     C_2   0.503831 0.514958 0.920241 0.413602
C20   C     C_2   0.515436 0.040716 0.928101 0.398672
C21   C     C_2   0.471962 0.945062 0.070518 0.470261
C22   C     C_2   0.429766 0.570468 0.063467 0.409818
C23   C     C_R   0.937110 0.459225 0.852506 0.633765
C24   C     C_2   0.976703 0.478052 0.084824 0.374424
C25   C     C_2   0.963915 0.567795 0.045114 0.288534
C26   C     C_2   0.365206 0.446573 0.028298 0.290258
C27   C     C_2   0.595732 0.995366 0.038408 0.302447
C28   C     C_2   0.600226 0.005162 0.959954 0.316583
C29   C     C_2   0.378021 0.439846 0.949524 0.319449
C30   C     C_2   0.907397 0.516770 0.972834 0.247076
C31   C     C_3   0.840317 0.154324 0.399736 -0.069870
C32   C     C_3   0.801734 0.724334 0.462079 -0.054756
C33   C     C_3   0.251145 0.024635 0.454313 -0.098051
C34   C     C_R   0.443928 0.585064 0.141306 0.607182
C35   C     C_3   0.156415 0.835670 0.608169 -0.057570
C36   C     C_3   0.688339 0.833856 0.596006 -0.109790
C37   C     C_3   0.953189 0.186534 0.563035 -0.097349
C38   C     C_3   0.989537 0.782021 0.021308 -0.056941
C39   C     C_3   0.178932 0.251683 0.071770 -0.068797
C40   C     C_3   0.772181 0.970169 0.083940 -0.063281
C41   C     C_3   0.818477 0.063541 0.920549 -0.061637
C42   C     C_3   0.229297 0.218070 0.907889 -0.079468
C43   C     C_3   0.680298 0.398158 0.010456 -0.055363
C44   C     C_R   0.061667 0.518180 0.148254 0.615746
C45   C     C_R   0.455288 0.930889 0.145980 0.613171
C46   C     C_R   0.541142 0.478678 0.648992 0.610612
C47   C     C_R   0.517969 0.059423 0.649400 0.606501
C48   C     C_R   0.860358 0.411350 0.642131 0.627011
Cr1   Cr    Cr6+3 0.464030 0.233680 0.750360 1.048007
Cr2   Cr    Cr6+3 0.766320 0.230350 0.750360 1.025595
Cr3   Cr    Cr6+3 0.769650 0.535970 0.750360 1.063696
Cr4   Cr    Cr6+3 0.233680 0.464030 0.249640 1.049482
Cr5   Cr    Cr6+3 0.230350 0.766320 0.249640 1.094825
Cr6   Cr    Cr6+3 0.535970 0.769650 0.249640 1.029948
F1    F     F_    0.059330 0.607419 0.468638 -0.625278
F2    F     F_    0.442689 0.086378 0.967444 -0.676204
F3    F     F_    0.613365 0.609039 0.960407 -0.628019
F4    F     F_    0.119322 0.529959 0.940937 -0.599793
F5    F     F_    0.325503 0.547236 0.469710 -0.606013
F6    F     F_    0.535694 0.864901 0.462316 -0.686278
F7    F     F_    0.594788 0.083310 0.530191 -0.667949
F8    F     F_    0.454101 0.376914 0.533697 -0.614771
F9    F     F_    0.777836 0.460633 0.534404 -0.629439
F10   F     F_    0.925060 0.345973 0.060518 -0.679095
F11   F     F_    0.471928 0.687360 0.026932 -0.617119
F12   F     F_    0.352070 0.874035 0.031936 -0.556974
H1    H     H_    0.781473 0.093509 0.446078 0.201483
H2    H     H_    0.087450 0.783231 0.561758 0.216121
H3    H     H_    0.184114 0.945092 0.612526 0.084000
H4    H     H_    0.096525 0.785739 0.656644 0.157298
H5    H     H_    0.715790 0.886242 0.544346 0.158826
H6    H     H_    0.767248 0.807841 0.612932 0.088134
H7    H     H_    0.689772 0.907682 0.636674 0.156777
H8    H     H_    0.840308 0.132240 0.574550 0.131753
H9    H     H_    0.005695 0.178515 0.611092 0.157139
H10   H     H_    0.975656 0.133737 0.518744 0.085095
H11   H     H_    0.876871 0.737991 0.011679 0.179916
H12   H     H_    0.950540 0.180698 0.401483 0.110892
H13   H     H_    0.045712 0.793117 0.970420 0.165474
H14   H     H_    0.029670 0.886397 0.045061 0.128796
H15   H     H_    0.141869 0.143193 0.056059 0.106410
H16   H     H_    0.121803 0.288843 0.039216 0.194453
H17   H     H_    0.151196 0.251759 0.128621 0.181181
H18   H     H_    0.885236 0.030073 0.074840 0.097229
H19   H     H_    0.727827 0.880413 0.045864 0.200964
H20   H     H_    0.757856 0.932368 0.139086 0.160404
H21   H     H_    0.843350 0.162887 0.947464 0.180121
H22   H     H_    0.855404 0.085420 0.864739 0.155678
H23   H     H_    0.793786 0.088401 0.351361 0.173692
H24   H     H_    0.878063 0.022125 0.946394 0.103840
H25   H     H_    0.303915 0.199383 0.937552 0.199600
H26   H     H_    0.223291 0.179847 0.852153 0.153260
H27   H     H_    0.124861 0.155636 0.930764 0.092133
H28   H     H_    0.695875 0.312135 0.025477 0.175691
H29   H     H_    0.572561 0.350336 0.990697 0.188461
H30   H     H_    0.690241 0.464311 0.057684 0.156058
H31   H     H_    0.822477 0.711688 0.518284 0.144181
H32   H     H_    0.811538 0.826025 0.453478 0.071968
H33   H     H_    0.882995 0.720499 0.429405 0.206571
H34   H     H_    0.266458 0.067348 0.509689 0.140828
H35   H     H_    0.160319 0.025619 0.431603 0.132906
H36   H     H_    0.342842 0.092536 0.421558 0.196095
O1    O     O_R   0.434100 0.092480 0.829780 -0.500284
O2    O     O_R   0.362730 0.477510 0.175360 -0.489662
O3    O     O_R   0.114780 0.637270 0.175360 -0.469316
O4    O     O_R   0.522490 0.885220 0.175360 -0.540041
O5    O     O_R   0.432250 0.092620 0.670380 -0.524964
O6    O     O_R   0.907380 0.339630 0.670380 -0.508263
O7    O     O_R   0.660370 0.567750 0.670380 -0.545948
O8    O     O_R   0.092620 0.432250 0.329620 -0.522346
O9    O     O_R   0.339630 0.907380 0.329620 -0.495740
O10   O     O_R   0.567750 0.660370 0.329620 -0.489272
O11   O     O_R   0.475790 0.362860 0.676880 -0.481390
O12   O     O_R   0.907520 0.341620 0.829780 -0.520987
O13   O     O_R   0.637140 0.112930 0.676880 -0.537165
O14   O     O_R   0.887070 0.524210 0.676880 -0.500477
O15   O     O_R   0.362860 0.475790 0.323120 -0.469727
O16   O     O_R   0.112930 0.637140 0.323120 -0.498838
O17   O     O_R   0.524210 0.887070 0.323120 -0.505097
O18   O     O_3   0.666667 0.333333 0.749450 -0.300307
O19   O     O_3   0.333333 0.666667 0.250550 -0.377140
O20   O     O_3   0.827788 0.271741 0.394077 -0.565330
O21   O     O_3   0.672082 0.616696 0.438695 -0.525972
O22   O     O_3   0.224626 0.888122 0.452161 -0.578457
O23   O     O_R   0.658380 0.565900 0.829780 -0.446710
O24   O     O_3   0.274071 0.820360 0.606225 -0.533473
O25   O     O_3   0.554471 0.718161 0.593816 -0.546364
O26   O     O_3   0.009543 0.326904 0.548336 -0.522162
O27   O     O_3   0.014056 0.702918 0.069797 -0.548323
O28   O     O_3   0.324455 0.326738 0.064831 -0.602779
O29   O     O_3   0.717677 0.058850 0.077927 -0.573347
O30   O     O_3   0.676640 0.961955 0.919552 -0.554934
O31   O     O_3   0.263123 0.356917 0.906863 -0.558330
O32   O     O_3   0.770847 0.476378 0.955514 -0.583830
O33   O     O_R   0.092480 0.434100 0.170220 -0.522594
O34   O     O_R   0.341620 0.907520 0.170220 -0.454331
O35   O     O_R   0.565900 0.658380 0.170220 -0.512372
O36   O     O_R   0.477510 0.362730 0.824640 -0.532948
O37   O     O_R   0.637270 0.114780 0.824640 -0.523186
O38   O     O_R   0.885220 0.522490 0.824640 -0.495501

loop_
_geom_bond_atom_site_label_1
_geom_bond_atom_site_label_2
_ccdc_geom_bond_type
Cr1   O11   S    
C37   H8    S    
Cr6   O19   S    
C21   F12   S    
C43   O32   S    
C42   H27   S    
C27   O29   S    
C40   H18   S    
C29   O31   S    
C20   F2    S    
C25   O27   S    
C39   H16   S    
Cr1   O5    S    
C44   O3    A    
C19   F3    S    
C47   O13   A    
C2    O10   A    
C42   O31   S    
Cr2   O18   S    
C1    O23   A    
Cr2   O13   S    
C13   O21   S    
Cr6   O35   S    
C5    C17   D    
C38   H13   S    
C3    O8    A    
C43   H28   S    
C32   H31   S    
C5    F9    S    
C42   H25   S    
C40   H20   S    
C9    C13   D    
C7    F7    S    
C18   F4    S    
Cr4   O2    S    
C35   H4    S    
C30   O32   S    
C15   O24   S    
C33   O22   S    
C43   H29   S    
C4    O17   A    
C18   C30   D    
C26   O28   S    
C36   H5    S    
C4    C8    S    
C48   O14   A    
C37   O26   S    
Cr3   O38   S    
Cr5   O9    S    
C44   O33   A    
C7    C15   D    
C41   H24   S    
C21   C27   D    
C40   O29   S    
C24   F10   S    
Cr1   O36   S    
Cr2   O6    S    
C32   O21   S    
Cr5   O34   S    
C41   H21   S    
C2    O15   A    
C43   H30   S    
C21   C45   S    
C22   C34   S    
C5    C48   S    
C1    C19   S    
C14   O22   S    
Cr6   O4    S    
C18   C23   S    
Cr3   O23   S    
C38   O27   S    
C23   O38   A    
C24   C25   D    
C39   H15   S    
C12   O1    A    
C36   H7    S    
Cr5   O16   S    
C20   C28   D    
C31   H23   S    
C34   O2    A    
C33   H36   S    
Cr2   O12   S    
C7    C47   S    
C40   H19   S    
C35   O24   S    
C31   H1    S    
C22   F11   S    
C3    O16   A    
Cr4   O19   S    
Cr4   O8    S    
C12   C20   S    
Cr3   O18   S    
C12   O37   A    
Cr6   O10   S    
C10   F1    S    
C38   H11   S    
C4    O9    A    
C47   O5    A    
C24   C44   S    
C33   H35   S    
C46   O7    A    
C11   O20   S    
C19   C29   D    
C27   C28   S    
C45   O4    A    
C31   H12   S    
C25   C30   S    
C41   H22   S    
C11   C17   S    
C45   O34   A    
C8    C14   D    
C6    C46   S    
C46   O11   A    
Cr2   O37   S    
C37   H10   S    
C31   O20   S    
Cr1   O1    S    
C41   O30   S    
C17   O26   S    
C39   O28   S    
C34   O35   A    
Cr3   O14   S    
C32   H33   S    
C33   H34   S    
C6    F8    S    
C39   H17   S    
C3    C10   S    
Cr5   O19   S    
Cr4   O15   S    
C23   O12   A    
C48   O6    A    
C38   H14   S    
C35   H2    S    
C32   H32   S    
C42   H26   S    
C37   H9    S    
C16   O25   S    
C10   C11   D    
C6    C16   D    
Cr1   O18   S    
Cr5   O3    S    
C35   H3    S    
C26   C29   S    
Cr3   O7    S    
C22   C26   D    
C13   C16   S    
C36   O25   S    
Cr4   O33   S    
C14   C15   S    
C28   O30   S    
Cr6   O17   S    
C2    C9    S    
C9    F5    S    
C8    F6    S    
C1    O36   A    
C36   H6    S    
