data_mof_unit_37188.cif
_audit_creation_date              2013-03-05T15:39:29-0500
_audit_creation_method            fapswitch 2.2
_symmetry_space_group_name_H-M    P1
_symmetry_Int_Tables_number       1
_space_group_crystal_system       triclinic
_cell_length_a                    16.921191
_cell_length_b                    16.921329
_cell_length_c                    16.921328
_cell_angle_alpha                 67.004237
_cell_angle_beta                  67.003896
_cell_angle_gamma                 67.003378
_cell_volume                      3940.27065523

loop_
_atom_site_label
_atom_site_type_symbol
_atom_site_description
_atom_site_fract_x
_atom_site_fract_y
_atom_site_fract_z
_atom_type_partial_charge
O1    O     O_R   0.124540 0.978640 0.385460 -0.584097
O2    O     O_R   0.875460 0.021360 0.614540 -0.577949
O3    O     O_R   0.978640 0.385460 0.124540 -0.584099
O4    O     O_R   0.021360 0.614540 0.875460 -0.577950
O5    O     O_R   0.385460 0.124540 0.978640 -0.584099
O6    O     O_R   0.614540 0.875460 0.021360 -0.577938
O7    O     O_R   0.614540 0.021360 0.875460 -0.584107
O8    O     O_R   0.385460 0.978640 0.124540 -0.577936
O9    O     O_R   0.875460 0.614540 0.021360 -0.584089
O10   O     O_R   0.124540 0.385460 0.978640 -0.577936
O11   O     O_R   0.021360 0.875460 0.614540 -0.584098
O12   O     O_R   0.978640 0.124540 0.385460 -0.577942
C1    C     C_R   0.596533 0.018212 0.601245 0.149304
C2    C     C_R   0.398757 0.981786 0.403466 0.149316
C3    C     C_R   0.018116 0.601269 0.596570 0.149275
C4    C     C_R   0.981733 0.403481 0.398775 0.149320
C5    C     C_R   0.601281 0.596583 0.018079 0.149117
C6    C     C_R   0.403483 0.398778 0.981719 0.149410
Cu1   Cu    Cu3+1 0.995180 0.995180 0.424630 1.011172
Cu2   Cu    Cu3+1 0.004820 0.004820 0.575370 1.011141
Cu3   Cu    Cu3+1 0.995180 0.424630 0.995180 1.011151
Cu4   Cu    Cu3+1 0.004820 0.575370 0.004820 1.011105
Cu5   Cu    Cu3+1 0.424630 0.995180 0.995180 1.011124
Cu6   Cu    Cu3+1 0.575370 0.004820 0.004820 1.011106
C7    C     C_R   0.030380 0.828859 0.564123 0.794531
C8    C     C_R   0.978077 0.170029 0.432302 0.818907
C9    C     C_R   0.828858 0.564121 0.030385 0.794507
C10   C     C_R   0.170029 0.432303 0.978072 0.818906
C11   C     C_R   0.564121 0.030386 0.828859 0.794520
C12   C     C_R   0.432301 0.978079 0.170028 0.818911
C13   C     C_R   0.435880 0.171140 0.969610 0.794544
C14   C     C_R   0.567705 0.829976 0.021908 0.818901
C15   C     C_R   0.969612 0.435880 0.171141 0.794539
C16   C     C_R   0.021916 0.567701 0.829974 0.818905
C17   C     C_R   0.171141 0.969613 0.435879 0.794546
C18   C     C_R   0.829972 0.021921 0.567699 0.818909
O13   O     O_R   0.013780 0.867370 0.487190 -0.576490
O14   O     O_R   0.986220 0.132630 0.512810 -0.569732
O15   O     O_R   0.867370 0.487190 0.013780 -0.576493
O16   O     O_R   0.132630 0.512810 0.986220 -0.569777
O17   O     O_R   0.487190 0.013780 0.867370 -0.576511
O18   O     O_R   0.512810 0.986220 0.132630 -0.569735
O19   O     O_R   0.512810 0.132630 0.986220 -0.576518
O20   O     O_R   0.487190 0.867370 0.013780 -0.569750
O21   O     O_R   0.986220 0.512810 0.132630 -0.576489
O22   O     O_R   0.013780 0.487190 0.867370 -0.569735
O23   O     O_R   0.132630 0.986220 0.512810 -0.576495
O24   O     O_R   0.867370 0.013780 0.487190 -0.569722
C19   C     C_R   0.546527 0.007620 0.550306 0.106508
C20   C     C_R   0.449696 0.992379 0.453471 0.106506
C21   C     C_R   0.007481 0.550337 0.546585 0.106498
C22   C     C_R   0.992278 0.453497 0.449735 0.106465
C23   C     C_R   0.550344 0.546604 0.007430 0.106442
C24   C     C_R   0.453498 0.449745 0.992250 0.106291
C25   C     C_R   0.581317 0.016062 0.456716 -0.092561
C26   C     C_R   0.407173 0.009316 0.538648 -0.095043
C27   C     C_R   0.015886 0.456754 0.581392 -0.092384
C28   C     C_R   0.009204 0.538679 0.407226 -0.095155
C29   C     C_R   0.456786 0.581478 0.015698 -0.092100
C30   C     C_R   0.538633 0.407216 0.009277 -0.095004
C31   C     C_R   0.543286 0.983938 0.418683 -0.092557
C32   C     C_R   0.461350 0.990685 0.592826 -0.094958
C33   C     C_R   0.418752 0.543365 0.983656 -0.092118
C34   C     C_R   0.592839 0.461371 0.990621 -0.095000
C35   C     C_R   0.983799 0.418713 0.543332 -0.092390
C36   C     C_R   0.990548 0.592858 0.461409 -0.095024
C37   C     C_R   0.552143 0.041577 0.682257 -0.121835
C38   C     C_R   0.429510 0.996735 0.309945 -0.112630
C39   C     C_R   0.041509 0.682266 0.552164 -0.121690
C40   C     C_R   0.996703 0.309957 0.429521 -0.112648
C41   C     C_R   0.682261 0.552167 0.041512 -0.121775
C42   C     C_R   0.309960 0.429528 0.996684 -0.112751
C43   C     C_R   0.317745 0.958421 0.447855 -0.121839
C44   C     C_R   0.690055 0.003262 0.570492 -0.112639
C45   C     C_R   0.447867 0.317750 0.958386 -0.121748
C46   C     C_R   0.570560 0.690105 0.003129 -0.113119
C47   C     C_R   0.958389 0.447864 0.317752 -0.121853
C48   C     C_R   0.003187 0.570523 0.690088 -0.112867
H1    H     H_    0.480689 0.053076 0.710119 0.155429
H2    H     H_    0.484883 0.025373 0.271290 0.157042
H3    H     H_    0.052983 0.710127 0.480711 0.155498
H4    H     H_    0.025335 0.271307 0.484898 0.157043
H5    H     H_    0.710111 0.480711 0.053023 0.155435
H6    H     H_    0.271312 0.484912 0.025308 0.156973
H7    H     H_    0.289884 0.946923 0.519309 0.155410
H8    H     H_    0.728711 0.974624 0.515119 0.157067
H9    H     H_    0.519322 0.289884 0.946902 0.155389
H10   H     H_    0.515272 0.728809 0.974376 0.156877
H11   H     H_    0.946885 0.519319 0.289890 0.155389
H12   H     H_    0.974507 0.515183 0.728765 0.156995
C49   C     C_R   0.600268 0.046085 0.731006 -0.125953
C50   C     C_R   0.391804 0.971282 0.265948 -0.108372
C51   C     C_R   0.046062 0.731006 0.600273 -0.125971
C52   C     C_R   0.971271 0.265952 0.391806 -0.108366
C53   C     C_R   0.731003 0.600271 0.046070 -0.125976
C54   C     C_R   0.265954 0.391809 0.971261 -0.108335
C55   C     C_R   0.268995 0.953914 0.399731 -0.125941
C56   C     C_R   0.734051 0.028718 0.608196 -0.108365
C57   C     C_R   0.399735 0.268995 0.953900 -0.125939
C58   C     C_R   0.608216 0.734065 0.028676 -0.108332
C59   C     C_R   0.953905 0.399733 0.268995 -0.125948
C60   C     C_R   0.028693 0.608204 0.734060 -0.108338
C61   C     C_R   0.686724 0.055117 0.687156 -0.092673
C62   C     C_R   0.312844 0.944883 0.313274 -0.092684
C63   C     C_R   0.055113 0.687152 0.686722 -0.092658
C64   C     C_R   0.944880 0.313274 0.312841 -0.092662
C65   C     C_R   0.687149 0.686720 0.055120 -0.092631
C66   C     C_R   0.313276 0.312842 0.944873 -0.092660
C67   C     C_2   0.432750 0.941571 0.688961 0.335684
H13   H     H_    0.362723 0.946225 0.723475 0.058578
O25   O     O_2   0.487881 0.890277 0.729304 -0.516148
C68   C     C_2   0.604388 0.932375 0.353129 0.348415
H14   H     H_    0.666793 0.946674 0.309206 0.060325
O26   O     O_2   0.588122 0.868910 0.351413 -0.504805
C69   C     C_2   0.941396 0.688989 0.432822 0.335742
H15   H     H_    0.945906 0.723471 0.362794 0.058626
O27   O     O_2   0.890207 0.729358 0.487970 -0.516149
C70   C     C_2   0.932264 0.353125 0.604395 0.348389
H16   H     H_    0.946592 0.309149 0.666770 0.060370
O28   O     O_2   0.868799 0.351423 0.588118 -0.504793
C71   C     C_2   0.688991 0.432694 0.941576 0.335689
H17   H     H_    0.723484 0.362637 0.946302 0.058555
O29   O     O_2   0.729378 0.487788 0.890259 -0.516098
C72   C     C_2   0.353154 0.604358 0.932111 0.348303
H18   H     H_    0.309050 0.666683 0.946480 0.060366
O30   O     O_2   0.351555 0.588056 0.868612 -0.504744
C73   C     C_2   0.311035 0.058433 0.567244 0.335804
H19   H     H_    0.276515 0.053786 0.637278 0.058582
O31   O     O_2   0.270697 0.109724 0.512104 -0.516010
C74   C     C_2   0.646869 0.067628 0.395616 0.348442
H20   H     H_    0.690787 0.053336 0.333207 0.060326
O32   O     O_2   0.648586 0.131088 0.411888 -0.504798
C75   C     C_2   0.567163 0.311097 0.058483 0.335827
H21   H     H_    0.637175 0.276563 0.053942 0.058579
O33   O     O_2   0.511984 0.270795 0.109737 -0.516050
C76   C     C_2   0.395727 0.647294 0.066963 0.348213
H22   H     H_    0.333746 0.691824 0.051989 0.060097
O34   O     O_2   0.411597 0.648675 0.130828 -0.504408
C77   C     C_2   0.058348 0.567276 0.311098 0.335933
H23   H     H_    0.053701 0.637314 0.276578 0.058615
O35   O     O_2   0.109665 0.512133 0.270770 -0.515916
C78   C     C_2   0.067356 0.395677 0.647026 0.348391
H24   H     H_    0.052806 0.333438 0.691190 0.060245
O36   O     O_2   0.130980 0.411799 0.648590 -0.504641
C79   C     C_1   0.723613 0.095557 0.721117 0.333862
N1    N     N_1   0.752773 0.128088 0.748127 -0.251640
C80   C     C_1   0.278884 0.904443 0.276385 0.333814
N2    N     N_1   0.251876 0.871910 0.247226 -0.251531
C81   C     C_1   0.095580 0.721098 0.723597 0.333825
N3    N     N_1   0.128132 0.748097 0.752746 -0.251675
C82   C     C_1   0.904450 0.276380 0.278875 0.333861
N4    N     N_1   0.871926 0.247216 0.251861 -0.251651
C83   C     C_1   0.721087 0.723589 0.095601 0.333761
N5    N     N_1   0.748078 0.752732 0.128165 -0.251640
C84   C     C_1   0.276379 0.278873 0.904448 0.333849
N6    N     N_1   0.247214 0.251857 0.871929 -0.251621

loop_
_geom_bond_atom_site_label_1
_geom_bond_atom_site_label_2
_geom_bond_distance
_ccdc_geom_bond_type
C28   C77   1.487980 S    
C38   H2    1.081135 S    
O6    C14   1.298374 A    
C61   C79   1.452369 S    
C8    C52   1.471056 S    
C6    C45   1.409454 A    
O7    C11   1.304888 A    
C48   C60   1.408225 A    
C15   O21   1.295439 A    
C9    C53   1.475951 S    
Cu1   Cu2   2.688933 S    
C17   O23   1.295431 A    
C68   O26   1.221242 D    
C33   C72   1.488638 S    
C23   C29   1.426739 A    
C44   C56   1.408256 A    
O3    C15   1.304887 A    
C24   C30   1.424241 A    
C48   H12   1.081116 S    
C7    C51   1.475946 S    
C57   C66   1.397183 A    
C66   C84   1.452362 S    
O1    C17   1.304891 A    
C16   C60   1.471012 S    
C13   O19   1.295423 A    
C27   C78   1.488547 S    
C15   C59   1.475933 S    
C40   C52   1.408250 A    
C39   C51   1.404297 A    
C67   O25   1.221310 D    
C23   C34   1.424237 A    
O9    Cu4   1.960022 S    
C3    C48   1.409149 A    
C41   C53   1.404300 A    
C24   C33   1.426696 A    
C10   O16   1.296255 A    
O10   C10   1.298411 A    
C34   C71   1.487990 S    
C29   C76   1.488542 S    
O8    Cu5   1.960049 S    
Cu6   O18   1.958744 S    
C60   C63   1.406008 A    
C4    C47   1.409473 A    
C26   C73   1.487959 S    
C70   H16   1.082517 S    
Cu1   O13   1.958747 S    
C51   C63   1.397182 A    
C47   C59   1.404255 A    
C28   C36   1.408986 A    
C80   N2    1.157736 T    
C9    O15   1.295418 A    
C69   O27   1.221430 D    
O5    Cu5   1.960041 S    
C56   C61   1.406007 A    
C5    C46   1.409177 A    
C35   C70   1.488623 S    
C74   O32   1.221245 D    
C16   O22   1.296255 A    
C3    C21   1.516637 S    
C46   H10   1.081099 S    
C7    O13   1.295419 A    
C54   C66   1.406009 A    
O6    Cu6   1.960041 S    
Cu3   Cu4   2.688936 S    
C53   C65   1.397158 A    
C62   C80   1.452372 S    
C45   C57   1.404262 A    
C68   H14   1.082540 S    
C79   N1    1.157745 T    
C41   H5    1.079122 S    
O10   Cu3   1.960021 S    
C6    C42   1.409148 A    
C3    C39   1.409483 A    
O4    C16   1.298397 A    
O11   Cu2   1.960048 S    
O1    Cu1   1.960025 S    
C36   C69   1.488029 S    
O2    Cu2   1.960025 S    
Cu2   O23   1.958727 S    
C2    C43   1.409468 A    
C37   H1    1.079129 S    
C76   O34   1.221458 D    
C49   C61   1.397168 A    
C6    C24   1.516575 S    
Cu1   O24   1.958726 S    
C8    O14   1.296258 A    
C19   C25   1.426692 A    
C20   C26   1.424265 A    
Cu5   O20   1.958736 S    
C14   C58   1.470991 S    
O12   C8    1.298418 A    
C21   C36   1.424239 A    
C43   C55   1.404255 A    
C73   O31   1.221375 D    
O4    Cu4   1.960053 S    
Cu3   O15   1.958720 S    
C82   N4    1.157738 T    
C25   C74   1.488620 S    
Cu4   O16   1.958719 S    
C37   C49   1.404259 A    
C14   O20   1.296256 A    
C4    C40   1.409171 A    
C42   H6    1.081138 S    
C44   H8    1.081134 S    
C43   H7    1.079135 S    
C71   H17   1.083581 S    
C65   C83   1.452378 S    
C22   C28   1.424261 A    
C1    C19   1.516620 S    
C45   H9    1.079157 S    
C5    C41   1.409528 A    
C13   C57   1.475911 S    
C75   H21   1.083478 S    
C26   C32   1.408995 A    
O3    Cu3   1.960051 S    
C73   H19   1.083512 S    
C5    C23   1.516745 S    
C11   C49   1.475928 S    
O9    C9    1.304920 A    
C72   O30   1.221251 D    
Cu3   O22   1.958752 S    
C1    C37   1.409469 A    
O2    C18   1.298416 A    
C59   C64   1.397182 A    
C20   C31   1.426691 A    
C52   C64   1.406015 A    
C58   C65   1.405988 A    
C19   C32   1.424265 A    
C11   O17   1.295424 A    
C4    C22   1.516622 S    
C27   C35   1.412130 A    
C76   H22   1.083009 S    
C77   H23   1.083579 S    
C47   H11   1.079137 S    
C46   C58   1.408205 A    
C63   C81   1.452387 S    
C29   C33   1.412177 A    
Cu5   O17   1.958746 S    
C10   C54   1.471032 S    
C30   C34   1.408973 A    
O8    C12   1.298414 A    
C74   H20   1.082541 S    
C81   N3    1.157738 T    
C77   O35   1.221379 D    
C69   H15   1.083683 S    
C2    C20   1.516617 S    
C32   C67   1.487949 S    
C25   C31   1.412110 A    
O12   Cu1   1.960048 S    
C38   C50   1.408257 A    
C18   O24   1.296250 A    
Cu2   O14   1.958746 S    
C78   O36   1.221291 D    
C40   H4    1.081135 S    
C70   O28   1.221237 D    
C71   O29   1.221391 D    
C55   C62   1.397173 A    
C39   H3    1.079153 S    
C50   C62   1.406009 A    
Cu5   Cu6   2.688919 S    
C42   C54   1.408232 A    
O11   C7    1.304914 A    
C21   C27   1.426708 A    
C64   C82   1.452371 S    
Cu4   O21   1.958751 S    
C1    C44   1.409164 A    
C67   H13   1.083366 S    
C84   N6    1.157743 T    
C75   O33   1.221349 D    
Cu6   O19   1.958736 S    
C2    C38   1.409165 A    
C78   H24   1.082655 S    
C12   O18   1.296242 A    
C18   C56   1.471036 S    
C83   N5    1.157738 T    
C17   C55   1.475925 S    
C31   C68   1.488620 S    
C30   C75   1.488003 S    
C22   C35   1.426701 A    
O7    Cu6   1.960051 S    
C72   H18   1.082540 S    
O5    C13   1.304883 A    
C12   C50   1.471038 S    
