data_mof_unit_30419.cif
_audit_creation_date              2013-03-05T16:36:13-0500
_audit_creation_method            fapswitch 2.2
_symmetry_space_group_name_H-M    P1
_symmetry_Int_Tables_number       1
_space_group_crystal_system       triclinic
_cell_length_a                    27.834036
_cell_length_b                    9.080022
_cell_length_c                    7.780286
_cell_angle_alpha                 90.036406
_cell_angle_beta                  89.999959
_cell_angle_gamma                 90.000117
_cell_volume                      1966.33975368

loop_
_atom_site_label
_atom_site_type_symbol
_atom_site_description
_atom_site_fract_x
_atom_site_fract_y
_atom_site_fract_z
_atom_type_partial_charge
O1    O     O_R   0.500000 0.288390 0.642760 -0.575259
O2    O     O_R   0.500000 0.711610 0.357240 -0.575259
O3    O     O_R   0.500000 0.711610 0.642760 -0.574849
O4    O     O_R   0.500000 0.288390 0.357240 -0.574849
C1    C     C_R   0.500000 0.220022 0.499967 0.853120
C2    C     C_R   0.500000 0.779978 0.500033 0.853120
O5    O     O_R   0.430260 0.500000 0.642770 -0.585703
O6    O     O_R   0.569740 0.500000 0.357230 -0.585697
O7    O     O_R   0.569740 0.500000 0.642770 -0.585697
O8    O     O_R   0.430260 0.500000 0.357230 -0.585703
C3    C     C_R   0.407180 0.500000 0.500000 0.796684
C4    C     C_R   0.592819 0.500000 0.500000 0.796680
Cu1   Cu    Cu3+1 0.500000 0.500000 0.669080 1.007977
Cu2   Cu    Cu3+1 0.500000 0.500000 0.330920 1.007977
C5    C     C_R   0.178024 0.370879 0.527406 0.536982
C6    C     C_R   0.821984 0.629147 0.472701 0.536934
C7    C     C_R   0.178024 0.629135 0.472596 0.536983
C8    C     C_R   0.821984 0.370856 0.527297 0.536934
O9    O     O_2   0.202894 0.245229 0.553380 -0.516439
O10   O     O_2   0.797119 0.754828 0.446877 -0.516515
O11   O     O_2   0.202893 0.754785 0.446622 -0.516439
O12   O     O_2   0.797119 0.245175 0.553121 -0.516515
N1    N     N_R   0.202057 0.500007 0.500001 -0.472575
N2    N     N_R   0.797948 0.500001 0.499999 -0.472506
C9    C     C_R   0.278654 0.491770 0.655546 -0.099530
C10   C     C_R   0.721342 0.509567 0.344588 -0.099387
C11   C     C_R   0.278654 0.508243 0.344456 -0.099530
C12   C     C_R   0.721342 0.490434 0.655411 -0.099387
C13   C     C_R   0.328754 0.492070 0.655772 -0.205899
C14   C     C_R   0.671242 0.509250 0.344357 -0.206062
C15   C     C_R   0.328754 0.507938 0.344229 -0.205900
C16   C     C_R   0.671242 0.490750 0.655642 -0.206062
C17   C     C_R   0.253516 0.500008 0.500001 0.360767
C18   C     C_R   0.746484 0.500001 0.499999 0.360346
C19   C     C_R   0.101929 0.500006 0.500001 -0.043333
C20   C     C_R   0.898080 0.500003 0.499999 -0.043351
C21   C     C_R   0.127586 0.368424 0.527677 -0.020665
C22   C     C_R   0.872423 0.631597 0.472414 -0.020625
C23   C     C_R   0.127585 0.631589 0.472325 -0.020665
C24   C     C_R   0.872423 0.368408 0.527585 -0.020625
C25   C     C_R   0.102540 0.237441 0.554719 -0.145239
C26   C     C_R   0.897469 0.762594 0.445460 -0.145217
C27   C     C_R   0.102539 0.762571 0.445283 -0.145239
C28   C     C_R   0.897469 0.237412 0.554538 -0.145217
C29   C     C_R   0.354270 0.500002 0.500000 -0.037808
C30   C     C_R   0.645728 0.500000 0.500000 -0.037804
H1    H     H_    0.347449 0.514182 0.222320 0.160668
H2    H     H_    0.652544 0.483438 0.777443 0.160720
H3    H     H_    0.347449 0.485823 0.777681 0.160668
H4    H     H_    0.652544 0.516563 0.222557 0.160720
H5    H     H_    0.121431 0.134730 0.576169 0.187086
H6    H     H_    0.878578 0.865318 0.424097 0.187071
H7    H     H_    0.121431 0.865282 0.423833 0.187086
H8    H     H_    0.878578 0.134687 0.575901 0.187070
C31   C     C_R   0.974442 0.365848 0.527732 0.045047
C32   C     C_R   0.025567 0.634156 0.472231 0.045043
C33   C     C_R   0.974442 0.634161 0.472267 0.045047
C34   C     C_R   0.025567 0.365853 0.527769 0.045043
C35   C     C_R   0.949220 0.500004 0.500000 0.067283
C36   C     C_R   0.050789 0.500005 0.500000 0.067295
C37   C     C_R   0.947328 0.235769 0.554628 -0.208209
C38   C     C_R   0.052681 0.764218 0.445218 -0.208223
C39   C     C_R   0.947327 0.764239 0.445372 -0.208209
C40   C     C_R   0.052681 0.235793 0.554783 -0.208224
C41   C     C_1   0.500000 0.065394 0.499954 -0.166726
C42   C     C_1   0.500000 0.934605 0.500046 -0.166726
N3    N     N_1   0.500000 0.500000 0.076820 -0.049777
N4    N     N_1   0.500000 0.500000 0.923180 -0.049777
H9    H     H_    0.259310 0.514415 0.223855 0.136693
H10   H     H_    0.740683 0.483224 0.775917 0.136946
H11   H     H_    0.259310 0.485600 0.776147 0.136692
H12   H     H_    0.740683 0.516777 0.224082 0.136946
H13   H     H_    0.963257 0.129576 0.576575 0.132425
H14   H     H_    0.036752 0.870395 0.423162 0.132469
H15   H     H_    0.963256 0.870432 0.423425 0.132425
H16   H     H_    0.036753 0.129615 0.576838 0.132470

loop_
_geom_bond_atom_site_label_1
_geom_bond_atom_site_label_2
_geom_bond_distance
_ccdc_geom_bond_type
C31   C35   1.422530 A    
C10   H12   1.083152 S    
C20   C35   1.423444 A    
C13   H3    1.083373 S    
C11   C17   1.399937 A    
C5    O9    1.349795 S    
C7    N1    1.366736 A    
C2    C42   1.404019 S    
O1    C1    1.272303 A    
C19   C21   1.408603 A    
C22   C26   1.394663 A    
C33   C35   1.422530 A    
C34   C36   1.422533 A    
C32   C33   1.423023 A    
C7    C23   1.404091 A    
O7    Cu1   1.951906 S    
C5    C21   1.404088 A    
C20   C24   1.408588 A    
C8    C24   1.404093 A    
C27   H7    1.083657 S    
N1    C17   1.432306 S    
Cu2   N3    1.976970 S    
C9    H11   1.083302 S    
C11   H9    1.083300 S    
C6    O10   1.349802 S    
O3    C2    1.272541 A    
C5    N1    1.366737 A    
C14   H4    1.083220 S    
C12   C18   1.399808 A    
C6    N2    1.366791 A    
C15   H1    1.083375 S    
Cu1   Cu2   2.630982 S    
C21   C25   1.394658 A    
C16   H2    1.083220 S    
O2    C2    1.272303 A    
C10   C18   1.399809 A    
C33   C39   1.417284 A    
C9    C13   1.394483 A    
C11   C15   1.394484 A    
N3    N4    1.195364 T    
C12   C16   1.394481 A    
C8    N2    1.366790 A    
C4    C30   1.472657 S    
O8    Cu2   1.951909 S    
C23   C27   1.394659 A    
C34   C40   1.417288 A    
C37   H13   1.075028 S    
C7    O11   1.349793 S    
C32   C36   1.422533 A    
C13   C29   1.406602 A    
C19   C36   1.423438 A    
C19   C23   1.408603 A    
O5    C3    1.283182 A    
O5    Cu1   1.951909 S    
O6    C4    1.283169 A    
C40   H16   1.075032 S    
C1    C41   1.404019 S    
C10   C14   1.394481 A    
C32   C38   1.417288 A    
C3    C29   1.472702 S    
O1    Cu1   1.932176 S    
O6    Cu2   1.951906 S    
C8    O12   1.349802 S    
C16   C30   1.406382 A    
C14   C30   1.406383 A    
C12   H10   1.083152 S    
O4    C1    1.272541 A    
O3    Cu1   1.932434 S    
C28   C37   1.387844 A    
C20   C22   1.408588 A    
C39   H15   1.075029 S    
C31   C37   1.417283 A    
O4    Cu2   1.932435 S    
O2    Cu2   1.932175 S    
O7    C4    1.283169 A    
N2    C18   1.432429 S    
C9    C17   1.399936 A    
O8    C3    1.283182 A    
C28   H8    1.083655 S    
C24   C28   1.394665 A    
C41   C42   1.187567 T    
C15   C29   1.406598 A    
C31   C34   1.423023 A    
C26   H6    1.083655 S    
C38   H14   1.075033 S    
C25   C40   1.387847 A    
C26   C39   1.387844 A    
C25   H5    1.083657 S    
C27   C38   1.387847 A    
C6    C22   1.404093 A    
Cu1   N4    1.976970 S    
