data_mof_unit_15201.cif
_audit_creation_date              2012-12-10T20:44:04-0500
_audit_creation_method            fapswitch 2.2
_symmetry_space_group_name_H-M    P1
_symmetry_Int_Tables_number       1
_space_group_crystal_system       triclinic
_cell_length_a                    17.514432
_cell_length_b                    10.642636
_cell_length_c                    9.867656
_cell_angle_alpha                 90.049021
_cell_angle_beta                  89.82039
_cell_angle_gamma                 90.001538
_cell_volume                      1839.31864892

loop_
_atom_site_label
_atom_site_type_symbol
_atom_type_description
_atom_site_fract_x
_atom_site_fract_y
_atom_site_fract_z
_atom_type_partial_charge
C1    C     C_R   0.500064 0.260313 0.500109 0.887600
C2    C     C_R   0.113317 0.551763 0.482966 0.036332
C3    C     C_R   0.465141 0.062988 0.599775 0.099720
C4    C     C_R   0.353215 0.503081 0.500482 0.883504
C5    C     C_R   0.505705 0.128703 0.502264 -0.124891
C6    C     C_R   0.557925 0.067694 0.417270 -0.081165
C7    C     C_R   0.561910 0.936813 0.417754 -0.029812
C8    C     C_R   0.510417 0.871327 0.502776 -0.132581
C9    C     C_R   0.466271 0.935157 0.597795 0.138496
C10   C     C_3   0.382816 0.925434 0.631631 -0.235596
C11   C     C_3   0.381864 0.068421 0.633822 -0.478015
C12   C     C_R   0.884881 0.545981 0.478257 -0.231032
C13   C     C_R   0.444888 0.436511 0.070854 0.049476
C14   C     C_R   0.550768 0.570569 0.071815 -0.057543
C15   C     C_R   0.551055 0.570018 0.927824 -0.066338
C16   C     C_R   0.503318 0.739452 0.500096 0.870574
C17   C     C_R   0.443297 0.440381 0.928548 0.269691
C18   C     C_3   0.421810 0.305731 0.916280 -0.472355
C19   C     C_3   0.427934 0.297766 0.070805 -0.165063
C20   C     C_R   0.646184 0.501244 0.499612 1.021237
C21   C     C_R   0.841552 0.633122 0.552091 0.369503
C22   C     C_R   0.762672 0.617204 0.561455 0.269877
C23   C     C_1   0.965345 0.556628 0.476269 0.203348
C24   C     C_R   0.728298 0.513424 0.497366 -0.364622
C25   C     C_R   0.772054 0.426606 0.422877 0.302600
C26   C     C_R   0.850816 0.443061 0.413444 0.353885
C27   C     C_2   0.618990 0.871615 0.330838 0.540566
C28   C     C_2   0.334049 0.868893 0.521442 0.471860
C29   C     C_2   0.355145 0.267772 0.146381 0.568541
C30   C     C_2   0.494054 0.216094 0.113415 0.444706
C31   C     C_1   0.033102 0.558398 0.477662 0.056724
C32   C     C_R   0.149780 0.570013 0.606498 -0.151675
C33   C     C_R   0.228181 0.552856 0.616437 0.358212
C34   C     C_R   0.270152 0.516346 0.499685 -0.162540
C35   C     C_R   0.231914 0.498736 0.375935 -0.202023
C36   C     C_R   0.153767 0.516130 0.367821 -0.083548
Cl1   Cl    Cl    0.886119 0.762122 0.632894 -0.430507
Cl2   Cl    Cl    0.707088 0.730904 0.648084 -0.535021
Cl3   Cl    Cl    0.728814 0.295138 0.344344 -0.491171
Cl4   Cl    Cl    0.906964 0.333647 0.321710 -0.436646
Cl5   Cl    Cl    0.269355 0.582711 0.776307 -0.603314
H1    H     H_    0.372835 0.882710 0.732969 0.188182
H2    H     H_    0.124799 0.500296 0.272396 0.185943
H3    H     H_    0.594265 0.121961 0.350298 0.220774
H4    H     H_    0.629860 0.771993 0.342813 0.053414
H5    H     H_    0.290963 0.800049 0.548000 0.085479
H6    H     H_    0.352652 0.282305 0.255119 0.047553
H7    H     H_    0.549253 0.257275 0.136217 0.114629
H8    H     H_    0.347489 0.113544 0.552588 0.220608
H9    H     H_    0.371467 0.106767 0.736796 0.214049
H10   H     H_    0.592661 0.625688 0.125965 0.162477
H11   H     H_    0.593302 0.624450 0.873408 0.200946
H12   H     H_    0.363127 0.296393 0.875040 0.241718
H13   H     H_    0.465466 0.250105 0.860346 0.208739
H14   H     H_    0.117061 0.596591 0.695505 0.198047
H15   H     H_    0.262281 0.471415 0.284828 0.186714
N1    N     N_R   0.499490 0.499140 0.142800 -0.135339
N2    N     N_R   0.499490 0.499180 0.857150 -0.121580
O1    O     O_R   0.500010 0.316790 0.614690 -0.619329
O2    O     O_2   0.341589 0.900391 0.403104 -0.516328
O3    O     O_2   0.299453 0.224857 0.088350 -0.523879
O4    O     O_2   0.486947 0.102011 0.117209 -0.515382
O5    O     O_R   0.500000 0.316760 0.385350 -0.651454
O6    O     O_R   0.389120 0.500020 0.614710 -0.564301
O7    O     O_R   0.389110 0.499990 0.385370 -0.630998
O8    O     O_R   0.500000 0.683240 0.614650 -0.597128
O9    O     O_R   0.499990 0.683210 0.385310 -0.617048
O10   O     O_R   0.610890 0.500010 0.614630 -0.583678
O11   O     O_R   0.610880 0.499980 0.385290 -0.611268
O12   O     O_2   0.655625 0.929103 0.245564 -0.490381
Zn1   Zn    Zn3+2 0.500010 0.500020 0.653130 1.015235
Zn2   Zn    Zn3+2 0.499990 0.499980 0.346870 0.972593

loop_
_geom_bond_atom_site_label_1
_geom_bond_atom_site_label_2
_ccdc_geom_bond_type
O11   Zn2   S    
C24   C25   A    
C6    C7    A    
C3    C9    A    
C10   H1    S    
O7    Zn2   S    
C9    C10   S    
C4    O6    A    
C32   H14   S    
O8    Zn1   S    
C13   C17   A    
C17   N2    A    
C34   C35   A    
C28   H5    S    
C32   C33   A    
C27   H4    S    
C1    O1    A    
C17   C18   S    
C25   C26   A    
C3    C5    A    
C33   Cl5   S    
C7    C8    A    
C8    C16   S    
C11   H9    S    
C6    H3    S    
C21   C22   A    
C25   Cl3   S    
C12   C23   S    
C26   Cl4   S    
C4    O7    A    
C27   O12   D    
C29   H6    S    
O10   Zn1   S    
C1    C5    S    
C1    O5    A    
C22   C24   A    
C30   H7    S    
C33   C34   A    
C4    C34   S    
C30   O4    D    
N1    Zn2   S    
C5    C6    A    
N2    Zn1   S    
C15   N2    A    
C29   O3    D    
C20   O11   A    
C28   O2    D    
C3    C11   S    
C10   C11   S    
C13   C19   S    
C2    C36   A    
C23   C31   T    
C19   C29   S    
C20   C24   S    
O9    Zn2   S    
C13   N1    A    
C7    C27   S    
O5    Zn2   S    
C21   Cl1   S    
C2    C32   A    
C18   C19   S    
O6    Zn1   S    
C10   C28   S    
C16   O9    A    
C14   N1    A    
C18   H13   S    
C14   C15   A    
C8    C9    A    
C16   O8    A    
C11   H8    S    
C18   H12   S    
O1    Zn1   S    
C35   H15   S    
C15   H11   S    
C19   C30   S    
C12   C21   A    
C20   O10   A    
C14   H10   S    
C12   C26   A    
C2    C31   S    
C36   H2    S    
C35   C36   A    
C22   Cl2   S    
