data_mof_unit_20282.cif
_audit_creation_date              2012-12-11T17:41:42-0500
_audit_creation_method            fapswitch 2.2
_symmetry_space_group_name_H-M    P1
_symmetry_Int_Tables_number       1
_space_group_crystal_system       triclinic
_cell_length_a                    15.588137
_cell_length_b                    15.04433
_cell_length_c                    15.077017
_cell_angle_alpha                 109.216197
_cell_angle_beta                  120.612594
_cell_angle_gamma                 59.012845
_cell_volume                      2597.92873287

loop_
_atom_site_label
_atom_site_type_symbol
_atom_type_description
_atom_site_fract_x
_atom_site_fract_y
_atom_site_fract_z
_atom_type_partial_charge
Br1   Br    Br    0.857628 0.791582 0.804432 -0.627614
Br2   Br    Br    0.139174 0.148499 0.130427 -0.590687
Br3   Br    Br    0.187207 0.646562 0.401738 -0.607429
Br4   Br    Br    0.845555 0.359740 0.767128 -0.586058
Br5   Br    Br    0.868104 0.043482 0.612760 -0.695837
Br6   Br    Br    0.143301 0.904978 0.347440 -0.616815
C1    C     C_R   0.804505 0.925531 0.763539 0.222545
C2    C     C_R   0.301762 0.396556 0.205781 -0.082046
C3    C     C_R   0.625219 0.799951 0.889618 -0.135756
C4    C     C_R   0.380455 0.307036 0.177505 -0.162443
C5    C     C_R   0.668207 0.866047 0.969910 0.099638
C6    C     C_R   0.348579 0.252084 0.079760 0.091813
C7    C     C_R   0.782866 0.827980 0.029789 -0.154334
C8    C     C_R   0.236407 0.289344 0.010289 -0.118525
C9    C     C_R   0.852917 0.725768 0.009133 -0.046038
C10   C     C_R   0.157917 0.379146 0.038743 -0.054947
C11   C     C_R   0.809232 0.660715 0.928883 -0.022728
C12   C     C_R   0.214699 0.037749 0.215985 0.264775
C13   C     C_R   0.190530 0.432593 0.136444 -0.067780
C14   C     C_R   0.597346 0.990282 0.093638 -0.228126
C15   C     C_R   0.431076 0.140364 0.954493 -0.237570
C16   C     C_R   0.200486 0.274492 0.441795 -0.091535
C17   C     C_R   0.757404 0.710441 0.510341 -0.045429
C18   C     C_R   0.514462 0.076290 0.118735 0.066665
C19   C     C_R   0.508510 0.048708 0.926569 0.073255
C20   C     C_R   0.432263 0.155206 0.051189 0.032850
C21   C     C_R   0.592816 0.972181 0.996775 0.017380
C22   C     C_2   0.024262 0.347874 0.464323 -0.208212
C23   C     C_R   0.138279 0.274151 0.482139 0.135389
C24   C     C_2   0.853379 0.603622 0.390339 -0.190053
C25   C     C_2   0.965340 0.418876 0.396257 -0.072995
C26   C     C_2   0.870796 0.512100 0.405979 -0.111695
C27   C     C_2   0.980157 0.944498 0.842529 -0.080302
C28   C     C_2   0.089150 0.949676 0.116346 -0.087866
C29   C     C_R   0.264630 0.852772 0.721668 -0.125816
C30   C     C_R   0.758474 0.232256 0.414694 -0.076462
C31   C     C_R   0.350017 0.762417 0.704789 -0.180664
C32   C     C_R   0.673508 0.300598 0.446003 -0.171689
C33   C     C_R   0.329052 0.700423 0.610618 -0.044104
C34   C     C_R   0.790102 0.701045 0.436122 0.104976
C35   C     C_R   0.697328 0.340214 0.549948 -0.044862
C36   C     C_R   0.219906 0.728094 0.533334 0.348556
C37   C     C_R   0.808614 0.310328 0.623004 0.349936
C38   C     C_R   0.133885 0.818930 0.550999 0.081379
C39   C     C_R   0.893877 0.243536 0.590651 0.079785
C40   C     C_R   0.593555 0.228573 0.554013 -0.076350
C41   C     C_R   0.410979 0.783417 0.517662 -0.036096
C42   C     C_R   0.157129 0.881130 0.645107 -0.198644
C43   C     C_R   0.868255 0.204754 0.486335 -0.178186
C44   C     C_R   0.426115 0.509602 0.582434 -0.180265
C45   C     C_R   0.504371 0.322994 0.535083 0.024087
C46   C     C_R   0.605573 0.521697 0.598692 -0.192580
C47   C     C_R   0.513267 0.420123 0.566487 0.057141
C48   C     C_R   0.511429 0.612235 0.597516 0.030659
C49   C     C_R   0.606266 0.425823 0.577720 0.100168
C50   C     C_R   0.422803 0.606994 0.595551 0.099348
C51   C     C_2   0.003754 0.925224 0.934431 -0.079257
C52   C     C_2   0.094801 0.934798 0.026995 -0.100969
C53   C     C_R   0.407925 0.045466 0.732245 -0.136512
C54   C     C_R   0.594786 0.013891 0.288229 -0.131591
C55   C     C_R   0.409640 0.306440 0.471124 -0.138395
C56   C     C_R   0.503437 0.703383 0.574868 0.018640
C57   C     C_R   0.592745 0.714818 0.593058 -0.144913
C58   C     C_R   0.592622 0.979563 0.803562 -0.084901
C59   C     C_R   0.412408 0.085384 0.210439 -0.082915
C60   C     C_R   0.199050 0.184452 0.532418 -0.132111
C61   C     C_R   0.758622 0.800842 0.418519 -0.116313
C62   C     C_R   0.806890 0.020448 0.679762 0.279029
C63   C     C_R   0.214217 0.945157 0.305386 0.296148
C64   C     C_R   0.869191 0.962047 0.763514 -0.000962
C65   C     C_R   0.169190 0.976650 0.209259 -0.032096
C66   C     C_R   0.501657 0.033297 0.824700 0.024048
C67   C     C_R   0.506200 0.065320 0.204786 0.015678
C68   C     C_R   0.695478 0.697818 0.869165 -0.094784
H1    H     H_    0.026194 0.941433 0.120943 0.163035
H2    H     H_    0.209393 0.248039 0.934875 0.129561
H3    H     H_    0.941053 0.696947 0.055427 0.135626
H4    H     H_    0.071685 0.407039 0.985178 0.148951
H5    H     H_    0.658481 0.928530 0.144772 0.132831
H6    H     H_    0.369445 0.199367 0.900420 0.133416
H7    H     H_    0.828846 0.508011 0.442988 0.129715
H8    H     H_    0.996267 0.417776 0.345537 0.143361
H9    H     H_    0.896518 0.606664 0.353821 0.152615
H10   H     H_    0.992163 0.350454 0.514858 0.133281
H11   H     H_    0.092224 0.951626 0.659277 0.178640
H12   H     H_    0.033591 0.962102 0.831882 0.162635
H13   H     H_    0.933594 0.152864 0.461041 0.145771
H14   H     H_    0.174016 0.325449 0.387710 0.112482
H15   H     H_    0.770477 0.649194 0.544386 0.101180
H16   H     H_    0.281734 0.900693 0.794350 0.134226
H17   H     H_    0.739119 0.202228 0.334302 0.127452
H18   H     H_    0.432702 0.739524 0.765514 0.129223
H19   H     H_    0.588879 0.325182 0.388952 0.125695
H20   H     H_    0.358471 0.503881 0.580236 0.148849
H21   H     H_    0.674531 0.524114 0.600239 0.133772
H22   H     H_    0.677842 0.213187 0.605879 0.170837
H23   H     H_    0.863517 0.581613 0.913004 0.141524
H24   H     H_    0.328002 0.804917 0.502080 0.166761
H25   H     H_    0.323126 0.081400 0.721429 0.104405
H26   H     H_    0.680093 0.996728 0.314066 0.118776
H27   H     H_    0.325239 0.364150 0.440140 0.129619
H28   H     H_    0.677141 0.676184 0.647597 0.137994
H29   H     H_    0.678004 0.958042 0.857463 0.141804
H30   H     H_    0.329670 0.133701 0.162112 0.169412
H31   H     H_    0.168748 0.153022 0.559555 0.100392
H32   H     H_    0.772420 0.821453 0.366168 0.108791
H33   H     H_    0.159906 0.939342 0.022510 0.160147
H34   H     H_    0.129612 0.501910 0.158382 0.144063
H35   H     H_    0.944217 0.918906 0.946426 0.163211
H36   H     H_    0.992071 0.923977 0.456865 0.169251
H37   H     H_    0.976038 0.847523 0.502988 0.152781
H38   H     H_    0.047450 0.133783 0.661016 0.134715
H39   H     H_    0.042322 0.240979 0.641481 0.081524
H40   H     H_    0.661765 0.647173 0.807567 0.134177
H41   H     H_    0.327111 0.437890 0.281482 0.153877
H42   H     H_    0.537345 0.828103 0.843382 0.110891
H43   H     H_    0.466249 0.280073 0.231774 0.112563
H44   H     H_    0.817755 0.877363 0.092629 0.134487
N1    N     N_R   0.705410 0.966550 0.689210 -0.087490
N2    N     N_R   0.556610 0.796750 0.548620 -0.043800
N3    N     N_R   0.556610 0.951620 0.703500 -0.034680
N4    N     N_R   0.443390 0.048380 0.296500 -0.046004
N5    N     N_R   0.294590 0.131500 0.522480 -0.045160
N6    N     N_R   0.705410 0.868500 0.477520 -0.042383
N7    N     N_R   0.705410 0.023370 0.632390 -0.091111
N8    N     N_R   0.294590 0.976630 0.367610 -0.095524
N9    N     N_3   0.023182 0.847946 0.472915 -0.171797
N10   N     N_3   0.006450 0.214977 0.664153 -0.177471
N11   N     N_R   0.294590 0.033450 0.310790 -0.093081
N12   N     N_R   0.294590 0.188320 0.465660 -0.048640
N13   N     N_R   0.705410 0.811680 0.534340 -0.038199
N14   N     N_R   0.556610 0.157790 0.497330 -0.040581
N15   N     N_R   0.443390 0.842210 0.502670 -0.051609
N16   N     N_R   0.443390 0.997080 0.657540 -0.044076
N17   N     N_R   0.556610 0.002920 0.342460 -0.042670
N18   N     N_R   0.443390 0.203250 0.451380 -0.043117
Ni1   Ni    Ni4+2 0.629830 0.882720 0.617850 0.258991
Ni2   Ni    Ni4+2 0.370170 0.117280 0.382150 0.242732
Ni3   Ni    Ni4+2 0.629830 0.013030 0.487540 0.247283
Ni4   Ni    Ni4+2 0.370170 0.986970 0.512460 0.234432

loop_
_geom_bond_atom_site_label_1
_geom_bond_atom_site_label_2
_ccdc_geom_bond_type
Br6   C63   S    
C15   C20   A    
C38   N9    S    
C16   C23   A    
Br2   C12   S    
C53   H25   S    
C43   H13   S    
N6    Ni3   S    
C45   C55   A    
C61   N6    A    
C41   C56   A    
C7    H44   S    
Br3   C36   S    
H39   N10   S    
N7    Ni3   S    
N14   Ni3   S    
N17   Ni3   S    
C26   H7    S    
N8    Ni4   S    
C25   H8    S    
C22   C23   S    
C29   C31   A    
C18   C20   A    
N2    N15   A    
Br5   C62   S    
C40   N14   A    
H36   N9    S    
C18   C67   S    
C22   H10   S    
C39   N10   S    
C17   C34   A    
C68   H40   S    
C54   C67   A    
C59   C67   A    
C15   H6    S    
C46   H21   S    
C52   H33   S    
N3    Ni1   S    
C24   H9    S    
C63   C65   A    
C35   C49   S    
C2    H41   S    
C51   H35   S    
N11   Ni2   S    
C14   C18   A    
C34   C61   A    
C17   H15   S    
C39   C43   A    
N3    N16   A    
C14   H5    S    
C46   C49   A    
C28   H1    S    
C13   H34   S    
C41   N15   A    
C35   C37   A    
C36   C38   A    
C1    C64   A    
C57   H28   S    
C29   C42   A    
C62   N7    A    
C46   C48   A    
C58   N3    A    
C33   C36   A    
C47   C49   A    
C48   C50   A    
C44   C47   A    
C24   C34   S    
C2    C13   A    
C1    N1    A    
N4    Ni2   S    
C32   C35   A    
N18   Ni2   S    
C44   H20   S    
C48   C56   S    
N8    N11   A    
N5    Ni4   S    
C44   C50   A    
N6    N13   A    
C6    C20   S    
C45   C47   S    
C8    H2    S    
C55   H27   S    
C27   H12   S    
C22   C25   D    
C56   C57   A    
N13   Ni1   S    
C37   C39   A    
C33   C50   S    
C5    C21   S    
N14   N18   A    
C17   N13   A    
C19   C66   S    
C59   N4    A    
C41   H24   S    
C54   N17   A    
C4    C6    A    
C27   C64   S    
N1    N7    A    
C30   H17   S    
C62   C64   A    
C14   C21   A    
C6    C8    A    
C63   N8    A    
C16   H14   S    
C3    C5    A    
N5    N12   A    
H37   N9    S    
C11   C68   A    
C8    C10   A    
C3    C68   A    
C60   H31   S    
N12   Ni2   S    
C12   C65   A    
C9    C11   A    
C15   C19   A    
C27   C51   D    
C31   H18   S    
Br1   C1    S    
C3    H42   S    
C42   H11   S    
C25   C26   S    
C54   H26   S    
C61   H32   S    
Br4   C37   S    
C19   C21   A    
C53   C66   A    
C53   N16   A    
C7    C9    A    
C31   C33   A    
C4    H43   S    
C24   C26   D    
C57   N2    A    
C5    C7    A    
C51   C52   S    
C9    H3    S    
N1    Ni1   S    
C10   C13   A    
C40   C45   A    
C32   H19   S    
C30   C32   A    
C10   H4    S    
C58   C66   A    
C58   H29   S    
N4    N17   A    
H38   N10   S    
C23   C60   A    
C29   H16   S    
C40   H22   S    
N16   Ni4   S    
N15   Ni4   S    
C2    C4    A    
C28   C52   D    
C60   N5    A    
C12   N11   A    
N2    Ni1   S    
C59   H30   S    
C11   H23   S    
C28   C65   S    
C16   N12   A    
C30   C43   A    
C38   C42   A    
C55   N18   A    
