data_mof_unit_42065.cif
_audit_creation_date              2012-12-11T16:08:29-0500
_audit_creation_method            fapswitch 2.2
_symmetry_space_group_name_H-M    P1
_symmetry_Int_Tables_number       1
_space_group_crystal_system       triclinic
_cell_length_a                    7.218373
_cell_length_b                    21.381279
_cell_length_c                    23.49269
_cell_angle_alpha                 89.999974
_cell_angle_beta                  89.998714
_cell_angle_gamma                 89.999696
_cell_volume                      3625.81589333

loop_
_atom_site_label
_atom_site_type_symbol
_atom_type_description
_atom_site_fract_x
_atom_site_fract_y
_atom_site_fract_z
_atom_type_partial_charge
O1    O     O_R   0.365470 0.806380 0.442440 -0.529550
O2    O     O_R   0.134530 0.193620 0.942440 -0.529550
O3    O     O_R   0.865470 0.693620 0.557560 -0.529550
O4    O     O_R   0.634530 0.306380 0.057560 -0.529552
O5    O     O_R   0.035730 0.813790 0.557160 -0.536366
O6    O     O_R   0.464270 0.186210 0.057160 -0.536370
O7    O     O_R   0.535730 0.686210 0.442840 -0.536366
O8    O     O_R   0.964270 0.313790 0.942840 -0.536368
C1    C     C_R   0.204325 0.828765 0.575846 0.715284
C2    C     C_R   0.295673 0.171235 0.075846 0.715284
C3    C     C_R   0.704328 0.671235 0.424154 0.715289
C4    C     C_R   0.795675 0.328765 0.924154 0.715282
O9    O     O_R   0.035760 0.813790 0.442850 -0.537814
O10   O     O_R   0.464240 0.186210 0.942850 -0.537820
O11   O     O_R   0.535760 0.686210 0.557150 -0.537820
O12   O     O_R   0.964240 0.313790 0.057150 -0.537816
O13   O     O_R   0.865450 0.693620 0.442430 -0.531508
O14   O     O_R   0.634550 0.306380 0.942430 -0.531512
O15   O     O_R   0.365450 0.806380 0.557570 -0.531513
O16   O     O_R   0.134550 0.193620 0.057570 -0.531499
C5    C     C_R   0.204353 0.828735 0.424139 0.710857
C6    C     C_R   0.295649 0.171266 0.924139 0.710851
C7    C     C_R   0.704351 0.671266 0.575861 0.710851
C8    C     C_R   0.795647 0.328734 0.075861 0.710863
O17   O     O_3   0.198970 0.710570 0.500000 -0.374387
O18   O     O_3   0.301030 0.289430 0.000000 -0.374390
O19   O     O_3   0.698970 0.789430 0.500000 -0.374389
O20   O     O_3   0.801030 0.210570 0.000000 -0.374385
V1    V     V_3+5 0.924120 0.757310 0.500000 1.428125
V2    V     V_3+5 0.575880 0.242690 0.000000 1.428125
V3    V     V_3+5 0.424120 0.742690 0.500000 1.428116
V4    V     V_3+5 0.075880 0.257310 0.000000 1.428141
C9    C     C_3   0.737491 0.575404 0.766814 0.303943
C10   C     C_3   0.762217 0.424588 0.266811 0.303964
C11   C     C_3   0.238067 0.924582 0.233191 0.303997
C12   C     C_3   0.262503 0.075404 0.733186 0.303941
C13   C     C_3   0.570908 0.495911 0.706050 -0.437107
C14   C     C_3   0.929241 0.504032 0.206096 -0.437088
C15   C     C_3   0.070609 0.003977 0.293854 -0.437047
C16   C     C_3   0.429095 0.995912 0.793949 -0.437096
C17   C     C_3   0.577175 0.450249 0.758302 0.200993
C18   C     C_3   0.922971 0.549685 0.258354 0.200996
C19   C     C_3   0.076895 0.049622 0.241592 0.200995
C20   C     C_3   0.422828 0.950249 0.741698 0.200999
H1    H     H_    0.644085 0.532314 0.847320 0.133222
H2    H     H_    0.855527 0.467633 0.347347 0.133218
H3    H     H_    0.144848 0.967585 0.152626 0.133216
H4    H     H_    0.355913 0.032314 0.652680 0.133216
H5    H     H_    0.594245 0.593946 0.771922 0.092609
H6    H     H_    0.905390 0.405992 0.271956 0.092589
H7    H     H_    0.094964 0.905934 0.228008 0.092578
H8    H     H_    0.405747 0.093948 0.728077 0.092606
H9    H     H_    0.568106 0.471396 0.664543 0.208518
H10   H     H_    0.932229 0.528557 0.164594 0.208522
H11   H     H_    0.067430 0.028513 0.335351 0.208537
H12   H     H_    0.431903 0.971398 0.835457 0.208515
H13   H     H_    0.439533 0.523164 0.707674 0.098441
H14   H     H_    0.060534 0.476733 0.207746 0.098474
H15   H     H_    0.939398 0.976635 0.292174 0.098497
H16   H     H_    0.560468 0.023165 0.792324 0.098439
H17   H     H_    0.463397 0.465716 0.787231 0.064090
H18   H     H_    0.036607 0.534165 0.287313 0.064073
H19   H     H_    0.963399 0.034055 0.212601 0.064058
H20   H     H_    0.536606 0.965714 0.712768 0.064087
C21   C     C_1   0.785870 0.374663 0.878687 -0.182891
C22   C     C_1   0.714138 0.625336 0.378688 -0.182885
C23   C     C_1   0.285863 0.125335 0.121312 -0.182876
C24   C     C_1   0.214129 0.874663 0.621313 -0.182895
C25   C     C_3   0.739152 0.541551 0.707569 0.088316
C26   C     C_3   0.760842 0.458450 0.207567 0.088268
C27   C     C_3   0.239156 0.958452 0.292434 0.088211
C28   C     C_3   0.260846 0.041552 0.792431 0.088315
C29   C     C_3   0.761212 0.526649 0.816911 -0.514822
C30   C     C_3   0.738505 0.473345 0.316908 -0.514800
C31   C     C_3   0.261770 0.973340 0.183096 -0.514768
C32   C     C_3   0.238785 0.026649 0.683089 -0.514816
C33   C     C_3   0.761115 0.458919 0.792834 0.159938
C34   C     C_3   0.738890 0.541079 0.292835 0.159930
C35   C     C_3   0.261113 0.041078 0.207163 0.159921
C36   C     C_3   0.238885 0.958919 0.707166 0.159941
C37   C     C_3   0.931024 0.453636 0.752478 -0.376080
C38   C     C_3   0.569109 0.546428 0.252436 -0.376096
C39   C     C_3   0.430766 0.046486 0.247609 -0.376099
C40   C     C_3   0.068978 0.953635 0.747523 -0.376096
C41   C     C_3   0.919629 0.501822 0.702337 0.362180
C42   C     C_3   0.580501 0.498245 0.202291 0.362177
C43   C     C_3   0.419358 0.998311 0.297760 0.362184
C44   C     C_3   0.080371 0.001821 0.797664 0.362179
C45   C     C_1   0.775400 0.412667 0.840306 -0.001528
C46   C     C_1   0.724610 0.587332 0.340307 -0.001496
C47   C     C_1   0.275393 0.087330 0.159692 -0.001470
C48   C     C_1   0.224600 0.912667 0.659695 -0.001535
C49   C     C_1   0.724717 0.587684 0.659963 0.041263
C50   C     C_1   0.775274 0.412317 0.159962 0.041261
C51   C     C_1   0.224723 0.912319 0.340039 0.041238
C52   C     C_1   0.275282 0.087684 0.840037 0.041270
C53   C     C_1   0.714176 0.625521 0.621452 -0.167304
C54   C     C_1   0.785816 0.374479 0.121451 -0.167295
C55   C     C_1   0.214182 0.874480 0.378550 -0.167295
C56   C     C_1   0.285824 0.125521 0.878548 -0.167297
H21   H     H_    0.038332 0.534995 0.705271 0.067248
H22   H     H_    0.461683 0.465113 0.205189 0.067265
H23   H     H_    0.538288 0.965220 0.294907 0.067271
H24   H     H_    0.961665 0.034993 0.794730 0.067256
H25   H     H_    0.060303 0.462496 0.777017 0.094673
H26   H     H_    0.439729 0.537607 0.276940 0.094689
H27   H     H_    0.560241 0.037699 0.223141 0.094701
H28   H     H_    0.939697 0.962494 0.722984 0.094678
H29   H     H_    0.887402 0.532878 0.843037 0.167620
H30   H     H_    0.612217 0.467157 0.343001 0.167618
H31   H     H_    0.388148 0.967188 0.157036 0.167624
H32   H     H_    0.112595 0.032878 0.656962 0.167619
H33   H     H_    0.943935 0.405081 0.736330 0.181261
H34   H     H_    0.556382 0.594990 0.236292 0.181241
H35   H     H_    0.443328 0.095056 0.263746 0.181198
H36   H     H_    0.056075 0.905080 0.763671 0.181257
O21   O     O_3   0.851012 0.630277 0.766583 -0.544848
C57   C     C_3   0.021616 0.625475 0.795542 -0.226982
H37   H     H_    0.096460 0.581300 0.786689 0.103468
H38   H     H_    0.000168 0.631896 0.841987 0.142479
H39   H     H_    0.112457 0.664143 0.781002 0.157814
O22   O     O_3   0.648511 0.369757 0.266547 -0.544833
C58   C     C_3   0.477805 0.374625 0.295449 -0.226957
H40   H     H_    0.403163 0.418838 0.286584 0.103428
H41   H     H_    0.499056 0.368178 0.341901 0.142475
H42   H     H_    0.386857 0.336002 0.280866 0.157780
O23   O     O_3   0.351950 0.869792 0.233486 -0.544815
C59   C     C_3   0.522773 0.874733 0.204661 -0.226969
H43   H     H_    0.597180 0.918986 0.213535 0.103381
H44   H     H_    0.501771 0.868254 0.158203 0.142493
H45   H     H_    0.613821 0.836164 0.219302 0.157770
O24   O     O_3   0.148973 0.130276 0.733417 -0.544847
C60   C     C_3   0.978373 0.125474 0.704457 -0.226986
H46   H     H_    0.903532 0.081299 0.713309 0.103471
H47   H     H_    0.999826 0.131895 0.658012 0.142477
H48   H     H_    0.887528 0.164141 0.718996 0.157814
N1    N     N_2   0.539249 0.384501 0.744976 -0.508593
H49   H     H_    0.415587 0.367771 0.760912 0.251414
C61   C     C_3   0.590650 0.356619 0.691032 -0.517613
H50   H     H_    0.599295 0.305098 0.696182 0.192862
H51   H     H_    0.726762 0.373438 0.676020 0.239748
H52   H     H_    0.483399 0.366905 0.658478 0.175150
N2    N     N_2   0.961184 0.615421 0.245047 -0.508577
H53   H     H_    0.084920 0.632084 0.260990 0.251373
C62   C     C_3   0.909950 0.643341 0.191104 -0.517544
H54   H     H_    0.901455 0.694864 0.196269 0.192872
H55   H     H_    0.773813 0.626575 0.176065 0.239730
H56   H     H_    0.017218 0.633032 0.158560 0.175085
N3    N     N_2   0.038410 0.115346 0.254880 -0.508556
H57   H     H_    0.914599 0.131942 0.238931 0.251355
C63   C     C_3   0.089491 0.143306 0.308821 -0.517512
H58   H     H_    0.097833 0.194830 0.303640 0.192901
H59   H     H_    0.225657 0.126592 0.323883 0.239707
H60   H     H_    0.982216 0.132972 0.341355 0.175037
N4    N     N_2   0.460751 0.884500 0.755026 -0.508592
H61   H     H_    0.584404 0.867766 0.739085 0.251410
C64   C     C_3   0.409361 0.856621 0.808972 -0.517607
H62   H     H_    0.400718 0.805100 0.803824 0.192860
H63   H     H_    0.273249 0.873440 0.823984 0.239749
H64   H     H_    0.516616 0.866909 0.841524 0.175149
O25   O     O_3   0.921578 0.470183 0.649190 -0.551772
C65   C     C_3   0.105380 0.458649 0.631485 -0.299253
H65   H     H_    0.185869 0.433207 0.664570 0.140948
H66   H     H_    0.176160 0.503126 0.620100 0.145803
H67   H     H_    0.101814 0.428869 0.592850 0.170174
O26   O     O_3   0.578802 0.529893 0.149146 -0.551767
C66   C     C_3   0.395083 0.541499 0.131398 -0.299166
H68   H     H_    0.314597 0.566958 0.164471 0.140906
H69   H     H_    0.324179 0.497053 0.119987 0.145777
H70   H     H_    0.398844 0.571288 0.092770 0.170154
O27   O     O_3   0.420785 0.029972 0.350899 -0.551769
C67   C     C_3   0.604412 0.041636 0.368706 -0.299133
H71   H     H_    0.684951 0.067101 0.335649 0.140851
H72   H     H_    0.675387 0.997216 0.380155 0.145777
H73   H     H_    0.600440 0.071439 0.407323 0.170140
O28   O     O_3   0.078426 0.970184 0.850812 -0.551770
C68   C     C_3   0.894629 0.958632 0.868510 -0.299243
H74   H     H_    0.814204 0.933170 0.835427 0.140963
H75   H     H_    0.823781 0.003100 0.879881 0.145785
H76   H     H_    0.898199 0.928865 0.907153 0.170168

loop_
_geom_bond_atom_site_label_1
_geom_bond_atom_site_label_2
_ccdc_geom_bond_type
O17   V3    S    
C39   C43   S    
O27   C67   S    
C14   C26   S    
O1    C5    A    
C64   H62   S    
C16   H16   S    
C13   C25   S    
O19   V1    S    
O21   C57   S    
C41   O25   S    
H4    C32   S    
O3    C7    A    
C42   O26   S    
C17   H17   S    
C15   H15   S    
C36   C40   S    
O4    V2    S    
O15   V3    S    
C59   H43   S    
C57   H38   S    
C62   H54   S    
C19   H19   S    
C58   H40   S    
C66   H69   S    
C2    C23   S    
C20   H20   S    
C9    O21   S    
N1    C61   S    
C11   C31   S    
C8    C54   S    
H1    C29   S    
C26   C50   S    
C14   C18   S    
C25   C49   S    
N3    C63   S    
C17   C33   S    
O4    C8    A    
C61   H52   S    
C51   C55   T    
C58   H41   S    
C27   C51   S    
C50   C54   T    
C19   C35   S    
N2    H53   S    
O1    V3    S    
O13   V1    S    
C10   O22   S    
O2    V4    S    
C63   H60   S    
O3    V1    S    
C57   H37   S    
C41   H21   S    
C12   C32   S    
C62   H55   S    
C14   H14   S    
C1    O15   A    
C15   H11   S    
C2    O16   A    
O24   C60   S    
C68   H75   S    
O2    C6    A    
C60   H48   S    
C63   H58   S    
O14   V2    S    
C18   H18   S    
C16   C20   S    
C17   N1    S    
C12   H8    S    
C3    C22   S    
O8    C4    A    
C13   H9    S    
O11   C7    A    
C11   C27   S    
O12   C8    A    
C63   H59   S    
O10   V2    S    
C28   C44   S    
C67   H72   S    
O25   C65   S    
C66   H70   S    
O5    V1    S    
C37   H25   S    
C10   H6    S    
C6    C56   S    
O8    V4    S    
C39   H35   S    
C20   C36   S    
O7    V3    S    
C38   H34   S    
C22   C46   T    
C66   H68   S    
O18   V4    S    
C58   H42   S    
C15   C19   S    
C16   H12   S    
C38   C42   S    
C34   C46   S    
C59   H44   S    
C57   H39   S    
C36   C48   S    
O7    C3    A    
O5    C1    A    
C65   H67   S    
C34   C38   S    
C4    C21   S    
C14   H10   S    
C33   C37   S    
C32   H32   S    
C68   H76   S    
C43   O27   S    
C23   C47   T    
O9    C5    A    
C11   O23   S    
N4    C64   S    
C10   C30   S    
C43   H23   S    
C9    C29   S    
O28   C68   S    
O6    V2    S    
C18   C34   S    
C64   H64   S    
C11   H7    S    
O26   C66   S    
C27   C43   S    
C32   C36   S    
C37   H33   S    
O23   C59   S    
C26   C42   S    
C59   H45   S    
C49   C53   T    
H2    C30   S    
C62   H56   S    
C25   C41   S    
C67   H71   S    
C65   H65   S    
O16   V4    S    
O9    V1    S    
N2    C62   S    
C10   C26   S    
C3    O13   A    
C15   C27   S    
C16   C28   S    
C7    C53   S    
C20   N4    S    
C35   C47   S    
C40   C44   S    
C19   N3    S    
C30   H30   S    
C64   H63   S    
C61   H50   S    
C67   H73   S    
O11   V3    S    
C33   C45   S    
C9    C25   S    
O12   V4    S    
N1    H49   S    
C21   C45   T    
C31   H31   S    
C44   O28   S    
O10   C6    A    
C12   O24   S    
C1    C24   S    
H3    C31   S    
C65   H66   S    
N3    H57   S    
C35   C39   S    
C61   H51   S    
C60   H46   S    
C31   C35   S    
C5    C55   S    
C52   C56   T    
O20   V2    S    
C24   C48   T    
C39   H27   S    
C29   H29   S    
C38   H26   S    
C13   C17   S    
C13   H13   S    
O6    C2    A    
C28   C52   S    
C40   H28   S    
C40   H36   S    
C68   H74   S    
C30   C34   S    
C4    O14   A    
C18   N2    S    
C60   H47   S    
C29   C33   S    
O22   C58   S    
N4    H61   S    
C9    H5    S    
C44   H24   S    
C37   C41   S    
C12   C28   S    
C42   H22   S    
