data_mof_unit_61658.cif
_audit_creation_date              2012-12-10T19:19:56-0500
_audit_creation_method            fapswitch 2.2
_symmetry_space_group_name_H-M    P1
_symmetry_Int_Tables_number       1
_space_group_crystal_system       triclinic
_cell_length_a                    44.432695
_cell_length_b                    38.887419
_cell_length_c                    21.628988
_cell_angle_alpha                 89.992341
_cell_angle_beta                  60.973857
_cell_angle_gamma                 89.710537
_cell_volume                      32677.6084177

loop_
_atom_site_label
_atom_site_type_symbol
_atom_type_description
_atom_site_fract_x
_atom_site_fract_y
_atom_site_fract_z
_atom_type_partial_charge
C1    C     C_R   0.067118 0.499857 0.432170 0.902831
C2    C     C_R   0.622180 0.478327 0.837669 -0.246797
C3    C     C_R   0.567184 0.500447 0.932919 0.917820
C4    C     C_R   0.932613 0.000242 0.067280 0.905125
C5    C     C_R   0.067184 0.000447 0.932919 0.917804
C6    C     C_R   0.500081 0.567117 0.999924 0.896049
C7    C     C_R   0.000080 0.067117 0.999924 0.896372
C8    C     C_R   0.505729 0.622563 0.049707 -0.201522
C9    C     C_R   0.495520 0.622806 0.949232 -0.225047
C10   C     C_R   0.005732 0.122563 0.049702 -0.201521
C11   C     C_R   0.995510 0.122805 0.949242 -0.224618
C12   C     C_R   0.506195 0.658402 0.049652 0.069998
C13   C     C_R   0.878290 0.994593 0.179489 -0.230733
C14   C     C_R   0.495692 0.658656 0.948849 0.073628
C15   C     C_R   0.006196 0.158403 0.049648 0.070018
C16   C     C_R   0.995682 0.158656 0.948859 0.073557
C17   C     C_R   0.501066 0.676508 0.999192 0.091559
C18   C     C_R   0.001062 0.176508 0.999195 0.091557
C19   C     C_R   0.500415 0.604666 0.999644 -0.073775
C20   C     C_R   0.000413 0.104666 0.999646 -0.073853
C21   C     C_R   0.525907 0.731846 0.940574 -0.137338
C22   C     C_R   0.476253 0.732003 0.058262 -0.144326
C23   C     C_R   0.025900 0.231845 0.940571 -0.137356
C24   C     C_R   0.122179 0.978332 0.837657 -0.246782
C25   C     C_R   0.976253 0.232004 0.058267 -0.144249
C26   C     C_R   0.998643 0.499868 0.686264 -0.179708
C27   C     C_R   0.998471 0.499743 0.316389 -0.180901
C28   C     C_R   0.498641 0.999867 0.686267 -0.179735
C29   C     C_R   0.498466 0.999741 0.316388 -0.181024
C30   C     C_R   0.025789 0.267559 0.940582 -0.180836
C31   C     C_R   0.976185 0.267709 0.058444 -0.178200
C32   C     C_R   0.525795 0.767560 0.940586 -0.180866
C33   C     C_R   0.476185 0.767709 0.058440 -0.178187
C34   C     C_R   0.000919 0.285681 0.999537 0.098848
C35   C     C_R   0.342674 0.494942 0.219136 -0.092566
C36   C     C_R   0.500922 0.785681 0.999537 0.098857
C37   C     C_R   0.501108 0.714049 0.999354 0.153045
C38   C     C_R   0.001103 0.214049 0.999356 0.153042
C39   C     C_R   0.031668 0.341352 0.974769 -0.160839
C40   C     C_R   0.969577 0.341348 0.024380 -0.161032
C41   C     C_R   0.531668 0.841353 0.974782 -0.160832
C42   C     C_R   0.469579 0.841348 0.024369 -0.161041
C43   C     C_R   0.031479 0.377065 0.974742 -0.174569
C44   C     C_R   0.969356 0.377058 0.024593 -0.172392
C45   C     C_R   0.531479 0.877065 0.974756 -0.174544
C46   C     C_R   0.657930 0.476808 0.802621 -0.103417
C47   C     C_R   0.469358 0.877058 0.024582 -0.172394
C48   C     C_R   0.000312 0.395137 0.999734 -0.039738
C49   C     C_R   0.500313 0.895137 0.999735 -0.039734
C50   C     C_R   0.000724 0.323311 0.999553 0.113353
C51   C     C_R   0.500725 0.823311 0.999554 0.113352
C52   C     C_R   0.501358 0.376865 0.942434 -0.213033
C53   C     C_R   0.499261 0.376723 0.056603 -0.209942
C54   C     C_R   0.001371 0.876866 0.942420 -0.213194
C55   C     C_R   0.999251 0.876723 0.056611 -0.210052
C56   C     C_R   0.501571 0.341078 0.941794 0.375476
C57   C     C_R   0.842682 0.994346 0.218901 -0.092313
C58   C     C_R   0.499433 0.340926 0.056548 0.377404
C59   C     C_R   0.001586 0.841080 0.941777 0.375482
C60   C     C_R   0.999424 0.840925 0.056553 0.377388
C61   C     C_R   0.500590 0.322952 0.999000 -0.118234
C62   C     C_R   0.000593 0.822952 0.998993 -0.118186
C63   C     C_R   0.970160 0.486488 0.746904 0.390441
C64   C     C_R   0.972233 0.482462 0.310014 0.372030
C65   C     C_R   0.470174 0.986454 0.746893 0.390486
C66   C     C_R   0.472291 0.982364 0.309944 0.372091
C67   C     C_R   0.500201 0.394904 0.999701 -0.175132
C68   C     C_R   0.157930 0.976813 0.802607 -0.103431
C69   C     C_R   0.000202 0.894904 0.999699 -0.175052
C70   C     C_R   0.471160 0.267722 0.009269 -0.077432
C71   C     C_R   0.530121 0.267340 0.988055 -0.085685
C72   C     C_R   0.971168 0.767723 0.009227 -0.077466
C73   C     C_R   0.030119 0.767341 0.988076 -0.085673
C74   C     C_R   0.971165 0.731964 0.009106 -0.077609
C75   C     C_R   0.030100 0.731572 0.988045 -0.078921
C76   C     C_R   0.471157 0.231963 0.009150 -0.077610
C77   C     C_R   0.530103 0.231572 0.988026 -0.078911
C78   C     C_R   0.000616 0.713904 0.998588 0.204069
C79   C     C_R   0.322946 0.499545 0.185599 0.124261
C80   C     C_R   0.500613 0.213903 0.998602 0.204066
C81   C     C_R   0.500635 0.285413 0.998755 0.175666
C82   C     C_R   0.000638 0.785413 0.998746 0.175670
C83   C     C_R   0.017768 0.658103 0.935051 0.337054
C84   C     C_R   0.982968 0.658829 0.063782 0.396873
C85   C     C_R   0.517752 0.158104 0.935057 0.337063
C86   C     C_R   0.482983 0.158827 0.063794 0.396874
C87   C     C_R   0.017502 0.622049 0.935676 0.013539
C88   C     C_R   0.982516 0.622918 0.064672 -0.015819
C89   C     C_R   0.517486 0.122050 0.935679 0.013550
C90   C     C_R   0.676458 0.497803 0.824611 0.118066
C91   C     C_R   0.482532 0.122916 0.064681 -0.015833
C92   C     C_R   0.999792 0.604537 0.000396 -0.189344
C93   C     C_R   0.499792 0.104537 0.000400 -0.189311
C94   C     C_R   0.000473 0.676363 0.999116 -0.182045
C95   C     C_R   0.500471 0.176362 0.999127 -0.182051
C96   C     C_R   0.970502 0.486541 0.811346 -0.241933
C97   C     C_R   0.972715 0.482543 0.244761 -0.233656
C98   C     C_R   0.470517 0.986507 0.811334 -0.241976
C99   C     C_R   0.472776 0.982446 0.244688 -0.233681
C100  C     C_R   0.999330 0.499355 0.814727 -0.167454
C101  C     C_R   0.822959 0.999448 0.185490 0.124023
C102  C     C_R   0.999592 0.499081 0.186121 -0.158551
C103  C     C_R   0.499331 0.999352 0.814727 -0.167425
C104  C     C_R   0.499593 0.999080 0.186113 -0.158347
C105  C     C_R   0.026651 0.511941 0.753536 0.100408
C106  C     C_R   0.024899 0.515209 0.194911 0.089137
C107  C     C_R   0.526639 0.011968 0.753549 0.100404
C108  C     C_R   0.524838 0.015304 0.194965 0.088962
C109  C     C_3   0.061436 0.527822 0.723262 -0.477711
C110  C     C_3   0.057005 0.535918 0.158558 -0.500668
C111  C     C_3   0.561403 0.027892 0.723296 -0.477742
C112  C     C_R   0.932840 0.500048 0.568069 0.961651
C113  C     C_R   0.176458 0.997800 0.824605 0.118071
C114  C     C_3   0.556855 0.036146 0.158692 -0.500986
C115  C     C_R   0.338795 0.504825 0.112643 -0.153685
C116  C     C_R   0.659121 0.520618 0.881269 -0.124910
C117  C     C_R   0.838822 0.005281 0.112704 -0.153695
C118  C     C_R   0.159122 0.020610 0.881275 -0.124906
C119  C     C_R   0.374537 0.505380 0.072424 0.383444
C120  C     C_R   0.623300 0.521941 0.917278 0.379118
C121  C     C_R   0.874565 0.005902 0.072543 0.383242
C122  C     C_R   0.123301 0.021934 0.917286 0.379111
C123  C     C_R   0.394767 0.500263 0.106046 -0.143050
C124  C     C_R   0.567115 0.999856 0.432171 0.902947
C125  C     C_R   0.604673 0.500470 0.895604 -0.125978
C126  C     C_R   0.894779 0.000260 0.106023 -0.142850
C127  C     C_R   0.104673 0.000469 0.895603 -0.125981
C128  C     C_R   0.266941 0.529602 0.233151 0.064041
C129  C     C_R   0.732433 0.505977 0.715812 0.065979
C130  C     C_R   0.766952 0.029562 0.233626 0.064008
C131  C     C_R   0.232433 0.005986 0.715811 0.065995
C132  C     C_R   0.231144 0.529105 0.269914 -0.274603
C133  C     C_R   0.768292 0.505679 0.680885 -0.267356
C134  C     C_R   0.731155 0.029065 0.270365 -0.274570
C135  C     C_R   0.432840 0.000048 0.568066 0.961430
C136  C     C_R   0.268292 0.005688 0.680882 -0.267389
C137  C     C_R   0.213661 0.498671 0.300694 0.045498
C138  C     C_R   0.786048 0.496505 0.716898 0.042262
C139  C     C_R   0.713662 0.998559 0.300566 0.045596
C140  C     C_R   0.286049 0.996502 0.716887 0.042276
C141  C     C_R   0.999886 0.499967 0.619868 0.948747
C142  C     C_R   0.999655 0.499954 0.380519 0.957427
C143  C     C_R   0.499883 0.999967 0.619870 0.948704
C144  C     C_R   0.499650 0.999954 0.380522 0.957458
C145  C     C_R   0.232018 0.468387 0.296624 0.026261
C146  C     C_3   0.060903 0.528181 0.652291 -0.125019
C147  C     C_R   0.768113 0.486587 0.788204 0.033738
C148  C     C_R   0.732015 0.968187 0.295914 0.026276
C149  C     C_R   0.268114 0.986573 0.788187 0.033737
C150  C     C_R   0.268120 0.468608 0.259126 0.323436
C151  C     C_R   0.731969 0.486320 0.823608 0.315406
C152  C     C_R   0.768117 0.968403 0.258386 0.323309
C153  C     C_R   0.231970 0.986306 0.823592 0.315412
C154  C     C_R   0.285461 0.499234 0.226995 -0.009926
C155  C     C_R   0.714148 0.496455 0.787464 -0.007437
C156  C     C_R   0.785469 0.999115 0.226859 -0.009754
C157  C     C_3   0.056041 0.536684 0.231006 -0.105914
C158  C     C_R   0.214149 0.996452 0.787456 -0.007439
C159  C     C_R   0.159492 0.475316 0.312073 -0.172576
C160  C     C_R   0.840745 0.521456 0.699311 -0.163627
C161  C     C_R   0.659462 0.975391 0.311728 -0.172451
C162  C     C_R   0.340746 0.021437 0.699337 -0.163628
C163  C     C_R   0.123798 0.475458 0.342993 0.374113
C164  C     C_R   0.876569 0.522856 0.663231 0.399817
C165  C     C_R   0.623767 0.975559 0.342702 0.373971
C166  C     C_R   0.376570 0.022838 0.663259 0.399815
C167  C     C_R   0.104531 0.499584 0.396549 -0.110007
C168  C     C_3   0.560868 0.028254 0.652328 -0.125096
C169  C     C_R   0.895323 0.499973 0.606619 -0.124152
C170  C     C_R   0.604524 0.999575 0.396516 -0.109688
C171  C     C_R   0.395324 0.999973 0.606611 -0.124144
C172  C     C_R   0.121300 0.523493 0.417641 -0.258188
C173  C     C_R   0.877904 0.475969 0.587292 -0.196956
C174  C     C_R   0.621310 0.023346 0.417839 -0.258321
C175  C     C_R   0.377905 0.975988 0.587243 -0.197244
C176  C     C_R   0.156932 0.522999 0.386889 -0.175685
C177  C     C_R   0.842166 0.475051 0.622932 -0.152850
C178  C     C_R   0.656945 0.022812 0.387063 -0.175595
C179  C     C_3   0.555890 0.036911 0.231141 -0.105561
C180  C     C_R   0.342168 0.975070 0.622883 -0.152872
C181  C     C_R   0.176091 0.498704 0.334500 0.102288
C182  C     C_R   0.823584 0.497657 0.679162 0.086975
C183  C     C_R   0.676087 0.998627 0.334394 0.102280
C184  C     C_R   0.323585 0.997656 0.679151 0.087004
C185  C     C_R   0.000092 0.432689 0.999910 0.863719
C186  C     C_R   0.500092 0.932689 0.999910 0.863705
C187  C     C_R   0.026042 0.512619 0.692194 0.047547
C188  C     C_R   0.023954 0.516041 0.257792 0.068184
C189  C     C_R   0.526027 0.012648 0.692210 0.047599
C190  C     C_R   0.378282 0.495151 0.179691 -0.230692
C191  C     C_R   0.523889 0.016134 0.257850 0.068476
C192  C     C_R   0.999888 0.499851 0.879964 0.927098
C193  C     C_R   0.000007 0.499857 0.120065 0.902864
C194  C     C_R   0.499888 0.999851 0.879964 0.927093
C195  C     C_R   0.500007 0.999859 0.120063 0.902849
C196  C     C_R   0.999908 0.567047 0.000486 0.931735
C197  C     C_R   0.499908 0.067047 0.000487 0.931722
C198  C     C_R   0.500041 0.432590 0.999951 0.912790
C199  C     C_R   0.000041 0.932590 0.999950 0.912611
C200  C     C_R   0.432609 0.500224 0.067283 0.904857
Cl1   Cl    Cl    0.933716 0.470557 0.744391 -0.558272
Cl2   Cl    Cl    0.709365 0.472259 0.912405 -0.592507
Cl3   Cl    Cl    0.791257 0.929811 0.248807 -0.599971
Cl4   Cl    Cl    0.209367 0.972233 0.912380 -0.592523
Cl5   Cl    Cl    0.104540 0.446169 0.310698 -0.596942
Cl6   Cl    Cl    0.896802 0.552205 0.693175 -0.532812
Cl7   Cl    Cl    0.604467 0.946439 0.310191 -0.597317
Cl8   Cl    Cl    0.396805 0.052162 0.693244 -0.532869
Cl9   Cl    Cl    0.503822 0.319727 0.867785 -0.545531
Cl10  Cl    Cl    0.497383 0.319369 0.130160 -0.542463
Cl11  Cl    Cl    0.003853 0.819729 0.867752 -0.545668
Cl12  Cl    Cl    0.938095 0.461785 0.382294 -0.628393
Cl13  Cl    Cl    0.997358 0.819367 0.130179 -0.542592
Cl14  Cl    Cl    0.039234 0.680256 0.853661 -0.586707
Cl15  Cl    Cl    0.961987 0.681683 0.144624 -0.526172
Cl16  Cl    Cl    0.539196 0.180258 0.853665 -0.586683
Cl17  Cl    Cl    0.462021 0.181678 0.144641 -0.526169
Cl18  Cl    Cl    0.433745 0.970487 0.744368 -0.558213
Cl19  Cl    Cl    0.438221 0.961570 0.382146 -0.628167
Cl20  Cl    Cl    0.391879 0.513401 0.981225 -0.567593
Cl21  Cl    Cl    0.602905 0.551913 0.986768 -0.581006
Cl22  Cl    Cl    0.891942 0.014757 0.981649 -0.568299
Cl23  Cl    Cl    0.102909 0.051900 0.986788 -0.581016
Cl24  Cl    Cl    0.291279 0.430120 0.250353 -0.599674
H1    H     H_    0.216930 0.552397 0.273164 0.162360
H2    H     H_    0.891987 0.458123 0.544146 0.214763
H3    H     H_    0.008556 0.169397 0.847698 0.194869
H4    H     H_    0.023780 0.609944 0.838931 0.222646
H5    H     H_    0.060537 0.609440 0.844715 0.227847
H6    H     H_    0.945015 0.591296 0.133520 0.222837
H7    H     H_    0.982796 0.588723 0.135330 0.176013
H8    H     H_    0.523735 0.109946 0.838956 0.222637
H9    H     H_    0.560506 0.109443 0.844688 0.227837
H10   H     H_    0.445047 0.091288 0.133552 0.222821
H11   H     H_    0.482840 0.088720 0.135311 0.175929
H12   H     H_    0.041522 0.577915 0.668137 0.226614
H13   H     H_    0.606777 0.041870 0.459339 0.178060
H14   H     H_    0.083734 0.573994 0.609852 0.199124
H15   H     H_    0.087189 0.493433 0.207596 0.241415
H16   H     H_    0.106776 0.531032 0.202854 0.204346
H17   H     H_    0.541421 0.077963 0.668245 0.226646
H18   H     H_    0.583639 0.074099 0.609963 0.199140
H19   H     H_    0.587222 0.993793 0.207535 0.241597
H20   H     H_    0.606647 0.031475 0.202971 0.204318
H21   H     H_    0.391990 0.958158 0.544066 0.214755
H22   H     H_    0.169573 0.541344 0.404232 0.152732
H23   H     H_    0.828975 0.456541 0.607254 0.163672
H24   H     H_    0.669598 0.041041 0.404606 0.152651
H25   H     H_    0.328977 0.956574 0.607175 0.163672
H26   H     H_    0.509838 0.608838 0.088609 0.181696
H27   H     H_    0.491205 0.609273 0.910461 0.175466
H28   H     H_    0.009846 0.108838 0.088598 0.181712
H29   H     H_    0.782359 0.513317 0.625852 0.169498
H30   H     H_    0.991191 0.109272 0.910477 0.175668
H31   H     H_    0.948565 0.476418 0.858059 0.202749
H32   H     H_    0.952426 0.469602 0.239865 0.199376
H33   H     H_    0.448592 0.976361 0.858038 0.202720
H34   H     H_    0.452535 0.969433 0.239739 0.199278
H35   H     H_    0.545248 0.718050 0.894903 0.147242
H36   H     H_    0.456948 0.718333 0.103832 0.144113
H37   H     H_    0.045238 0.218049 0.894896 0.147245
H38   H     H_    0.956950 0.218334 0.103841 0.144153
H39   H     H_    0.044836 0.281014 0.894348 0.142489
H40   H     H_    0.716950 0.052427 0.274061 0.162313
H41   H     H_    0.957049 0.281277 0.104728 0.143228
H42   H     H_    0.544845 0.781015 0.894356 0.142478
H43   H     H_    0.457045 0.781276 0.104721 0.143226
H44   H     H_    0.055916 0.327830 0.956229 0.141347
H45   H     H_    0.945480 0.327822 0.042851 0.140486
H46   H     H_    0.555916 0.827831 0.956253 0.141349
H47   H     H_    0.445483 0.827821 0.042830 0.140470
H48   H     H_    0.055678 0.390472 0.955602 0.164098
H49   H     H_    0.945004 0.390457 0.043811 0.165804
H50   H     H_    0.555677 0.890473 0.955626 0.164108
H51   H     H_    0.282358 0.013334 0.625854 0.169465
H52   H     H_    0.445006 0.890456 0.043790 0.165798
H53   H     H_    0.502230 0.390503 0.897925 0.207060
H54   H     H_    0.498255 0.390258 0.101344 0.206674
H55   H     H_    0.002253 0.890505 0.897903 0.206985
H56   H     H_    0.998235 0.890257 0.101362 0.206631
H57   H     H_    0.448297 0.281640 0.017644 0.163686
H58   H     H_    0.552978 0.280965 0.979807 0.158302
H59   H     H_    0.948310 0.781641 0.017578 0.163672
H60   H     H_    0.052972 0.780964 0.979853 0.158306
H61   H     H_    0.948323 0.718332 0.017283 0.158751
H62   H     H_    0.174372 0.457238 0.269869 0.179266
H63   H     H_    0.052901 0.717636 0.979985 0.153806
H64   H     H_    0.448311 0.218330 0.017353 0.158752
H65   H     H_    0.552908 0.217636 0.979941 0.153808
H66   H     H_    0.060558 0.553638 0.746186 0.204800
H67   H     H_    0.078761 0.520986 0.116717 0.213346
H68   H     H_    0.560493 0.053707 0.746254 0.204801
H69   H     H_    0.578672 0.021304 0.116788 0.213415
H70   H     H_    0.080837 0.509755 0.723505 0.202109
H71   H     H_    0.052254 0.561478 0.141821 0.198094
H72   H     H_    0.580827 0.009849 0.723511 0.202100
H73   H     H_    0.826216 0.538858 0.743117 0.178264
H74   H     H_    0.551997 0.061686 0.142060 0.198091
H75   H     H_    0.080120 0.510940 0.610686 0.167621
H76   H     H_    0.051760 0.562550 0.255893 0.187939
H77   H     H_    0.580106 0.011039 0.610696 0.167492
H78   H     H_    0.551503 0.062760 0.256130 0.187973
H79   H     H_    0.392884 0.491202 0.207217 0.187752
H80   H     H_    0.608127 0.461706 0.820516 0.173401
H81   H     H_    0.892895 0.990229 0.206882 0.187687
H82   H     H_    0.108127 0.961716 0.820498 0.173407
H83   H     H_    0.330445 0.491114 0.275803 0.165255
H84   H     H_    0.674322 0.957409 0.269309 0.179276
H85   H     H_    0.671184 0.459187 0.758641 0.157292
H86   H     H_    0.830449 0.990098 0.275443 0.165576
H87   H     H_    0.171183 0.959196 0.758619 0.157288
H88   H     H_    0.323222 0.508600 0.087109 0.176202
H89   H     H_    0.673531 0.537401 0.897253 0.187453
H90   H     H_    0.823261 0.009457 0.087269 0.176240
H91   H     H_    0.173534 0.037389 0.897265 0.187451
H92   H     H_    0.276985 0.579432 0.241788 0.197379
H93   H     H_    0.276542 0.569384 0.166201 0.199952
H94   H     H_    0.722057 0.500661 0.635196 0.195867
H95   H     H_    0.326218 0.038825 0.743170 0.178262
H96   H     H_    0.722423 0.541736 0.660376 0.205908
H97   H     H_    0.776997 0.079268 0.243313 0.197452
H98   H     H_    0.776560 0.069715 0.167513 0.199951
H99   H     H_    0.222056 0.000687 0.635192 0.195856
H100  H     H_    0.222422 0.041757 0.660398 0.205905
H101  H     H_    0.221670 0.430073 0.367466 0.234414
H102  H     H_    0.220321 0.418380 0.293262 0.238475
H103  H     H_    0.780204 0.451091 0.841283 0.241802
H104  H     H_    0.779559 0.492346 0.867510 0.236872
H105  H     H_    0.721682 0.929534 0.366050 0.234458
H106  H     H_    0.106755 0.542105 0.458937 0.178344
H107  H     H_    0.720295 0.918271 0.291675 0.238508
H108  H     H_    0.280205 0.951063 0.841240 0.241803
H109  H     H_    0.279562 0.992312 0.867496 0.236865
H110  H     H_    0.536258 0.668258 0.093700 0.214425
H111  H     H_    0.493502 0.669332 0.150697 0.191186
H112  H     H_    0.465810 0.669501 0.904671 0.203231
H113  H     H_    0.508576 0.669397 0.847683 0.194866
H114  H     H_    0.036266 0.168260 0.093678 0.214416
H115  H     H_    0.993512 0.169333 0.150688 0.191225
H116  H     H_    0.965791 0.169499 0.904699 0.203440
N1    N     N_3   0.284582 0.560952 0.201789 -0.445702
N2    N     N_3   0.489730 0.676968 0.898260 -0.456620
N3    N     N_3   0.012474 0.176434 0.100024 -0.453012
N4    N     N_3   0.989713 0.176967 0.898278 -0.456565
N5    N     N_3   0.034479 0.602885 0.870799 -0.437238
N6    N     N_3   0.965349 0.605545 0.131458 -0.370174
N7    N     N_3   0.534448 0.102887 0.870799 -0.437291
N8    N     N_3   0.465383 0.105541 0.131467 -0.370212
N9    N     N_3   0.059688 0.562735 0.626721 -0.419765
N10   N     N_3   0.084039 0.517313 0.232410 -0.413808
N11   N     N_3   0.559609 0.062809 0.626808 -0.419679
N12   N     N_3   0.714533 0.516781 0.679006 -0.445098
N13   N     N_3   0.583969 0.017657 0.232462 -0.413656
N14   N     N_3   0.784596 0.060999 0.202928 -0.445704
N15   N     N_3   0.214532 0.016800 0.679012 -0.445100
N16   N     N_3   0.213750 0.437751 0.331250 -0.435138
N17   N     N_3   0.786908 0.476357 0.823584 -0.415462
N18   N     N_3   0.713745 0.937465 0.330004 -0.435173
N19   N     N_3   0.286910 0.976331 0.823559 -0.415478
N20   N     N_3   0.512467 0.676433 0.100036 -0.453008
O1    O     O_R   0.050900 0.528720 0.449120 -0.632035
O2    O     O_R   0.550940 0.499970 0.000810 -0.565428
O3    O     O_R   0.949060 0.999970 0.999190 -0.552575
O4    O     O_R   0.050940 0.999970 0.000810 -0.565418
O5    O     O_R   0.500010 0.550820 0.051820 -0.612200
O6    O     O_R   0.499990 0.550820 0.948180 -0.619776
O7    O     O_R   0.000010 0.050820 0.051820 -0.612200
O8    O     O_R   0.999990 0.050820 0.948180 -0.619470
O9    O     O_R   0.050870 0.471230 0.449150 -0.579194
O10   O     O_R   0.949130 0.471230 0.550850 -0.598418
O11   O     O_R   0.550870 0.971230 0.449150 -0.579404
O12   O     O_R   0.949100 0.528720 0.550880 -0.581722
O13   O     O_R   0.449130 0.971230 0.550850 -0.598323
O14   O     O_R   0.000000 0.528720 0.591610 -0.592478
O15   O     O_R   1.000000 0.528720 0.408390 -0.634316
O16   O     O_R   0.500000 0.028720 0.591610 -0.592468
O17   O     O_R   0.500000 0.028720 0.408390 -0.634396
O18   O     O_R   0.999960 0.471230 0.591650 -0.608763
O19   O     O_R   0.000040 0.471230 0.408350 -0.570813
O20   O     O_R   0.499960 0.971230 0.591650 -0.608757
O21   O     O_R   0.500040 0.971230 0.408350 -0.570561
O22   O     O_R   0.971240 0.449020 0.028740 -0.623815
O23   O     O_R   0.550900 0.028720 0.449120 -0.631863
O24   O     O_R   0.028760 0.449020 0.971260 -0.626033
O25   O     O_R   0.471240 0.949020 0.028740 -0.623827
O26   O     O_R   0.528760 0.949020 0.971260 -0.626019
O27   O     O_R   0.971230 0.499930 0.937140 -0.617710
O28   O     O_R   0.028770 0.499930 0.062860 -0.618966
O29   O     O_R   0.471230 0.999930 0.937140 -0.617695
O30   O     O_R   0.528770 0.999930 0.062860 -0.618924
O31   O     O_R   0.028710 0.499970 0.879680 -0.618340
O32   O     O_R   0.971290 0.499970 0.120320 -0.626439
O33   O     O_R   0.528710 0.999970 0.879680 -0.618346
O34   O     O_R   0.449100 0.028720 0.550880 -0.581814
O35   O     O_R   0.471290 0.999970 0.120320 -0.626420
O36   O     O_R   0.971230 0.550840 0.028760 -0.626840
O37   O     O_R   0.028770 0.550840 0.971240 -0.604907
O38   O     O_R   0.471230 0.050840 0.028760 -0.626826
O39   O     O_R   0.528770 0.050840 0.971240 -0.604924
O40   O     O_R   0.499940 0.449000 0.051660 -0.621126
O41   O     O_R   0.500060 0.449000 0.948340 -0.619332
O42   O     O_R   0.999940 0.949000 0.051660 -0.621189
O43   O     O_R   0.000060 0.949000 0.948340 -0.619561
O44   O     O_R   0.449070 0.499910 0.102620 -0.637526
O45   O     O_R   0.550930 0.499910 0.897380 -0.629477
O46   O     O_R   0.949070 0.999910 0.102620 -0.637558
O47   O     O_R   0.050930 0.999910 0.897380 -0.629501
O48   O     O_R   0.449060 0.499970 0.999190 -0.552481
Zn1   Zn    Zn3+2 1.000000 0.538360 0.500000 1.053087
Zn2   Zn    Zn3+2 0.500020 0.499890 0.930920 1.047830
Zn3   Zn    Zn3+2 0.999980 0.999890 0.069080 1.036577
Zn4   Zn    Zn3+2 0.000020 0.999890 0.930920 1.047752
Zn5   Zn    Zn3+2 0.500000 0.038360 0.500000 1.053089
Zn6   Zn    Zn3+2 1.000000 0.461590 0.500000 1.093331
Zn7   Zn    Zn3+2 0.500000 0.961590 0.500000 1.093376
Zn8   Zn    Zn3+2 0.961590 0.499920 0.038380 0.990788
Zn9   Zn    Zn3+2 0.038410 0.499920 0.961620 0.973129
Zn10  Zn    Zn3+2 0.461590 0.999920 0.038380 0.990800
Zn11  Zn    Zn3+2 0.538410 0.999920 0.961620 0.973184
Zn12  Zn    Zn3+2 0.499980 0.499890 0.069080 1.036602

loop_
_geom_bond_atom_site_label_1
_geom_bond_atom_site_label_2
_ccdc_geom_bond_type
C118  H91   S    
C83   C87   A    
C157  C188  S    
C128  N1    S    
C136  C140  A    
C150  Cl24  S    
O29   Zn10  S    
C129  N12   S    
C162  H95   S    
C9    H27   S    
C6    O5    A    
C31   H41   S    
C1    C167  S    
C45   H50   S    
O20   Zn7   S    
C112  O12   A    
C33   C36   A    
C60   C62   A    
C149  C153  A    
C200  O44   A    
C9    C19   A    
C49   C186  S    
C152  C156  A    
H102  N16   S    
C179  N13   S    
C24   C127  A    
C108  C191  A    
C151  C155  A    
H18   N11   S    
C40   C44   A    
O3    Zn4   S    
H99   N15   S    
C58   C61   A    
C141  O14   A    
O17   Zn5   S    
C124  O11   A    
C73   C75   A    
C130  C134  A    
C109  H66   S    
C157  N10   S    
C11   C20   A    
H6    N6    S    
H7    N6    S    
C146  C187  S    
C193  O28   A    
C143  O16   A    
C130  C156  A    
C133  H29   S    
C16   N4    S    
C120  C125  A    
C176  H22   S    
C99   H34   S    
C132  C137  A    
C29   C144  S    
C63   C96   A    
C131  C158  A    
O45   Zn2   S    
C66   Cl19  S    
C197  O39   A    
C198  O40   A    
C112  C169  S    
H92   N1    S    
C159  C181  A    
O43   Zn4   S    
C110  C157  S    
C186  O26   A    
C97   H32   S    
C129  C133  A    
C73   H60   S    
C64   C97   A    
O48   Zn2   S    
H4    N5    S    
H19   N13   S    
C35   C190  A    
O22   Zn8   S    
O16   Zn5   S    
H111  N20   S    
C23   C38   A    
C199  O42   A    
C170  C174  A    
C71   H58   S    
C84   C88   A    
C92   C196  S    
O5    Zn12  S    
C53   C58   A    
O21   Zn7   S    
O19   Zn6   S    
C119  C123  A    
C18   C38   S    
C56   Cl9   S    
C164  Cl6   S    
C25   H38   S    
C78   C94   S    
C190  H79   S    
O24   Zn9   S    
C104  C195  S    
O25   Zn10  S    
C28   C65   A    
C10   H28   S    
C138  C182  S    
C27   C64   A    
C168  N11   S    
H5    N5    S    
C175  H21   S    
C179  C191  S    
C114  H69   S    
C41   C45   A    
C64   Cl12  S    
C103  C107  A    
C41   C51   A    
C161  C165  A    
C177  C182  A    
C52   H53   S    
O26   Zn11  S    
C25   C31   A    
C15   C18   A    
C110  H67   S    
O37   Zn9   S    
C79   C115  A    
C93   C197  S    
C26   C63   A    
C67   C198  S    
C28   C189  A    
C6    C19   S    
C8    H26   S    
C32   C36   A    
C88   N6    S    
C145  N16   S    
C137  C181  S    
H104  N17   S    
C23   H37   S    
H114  N3    S    
C131  N15   S    
C11   H30   S    
C142  O15   A    
C118  C122  A    
C153  C158  A    
H17   N11   S    
H112  N2    S    
H9    N7    S    
H107  N18   S    
C121  Cl22  S    
C29   C191  A    
C68   H87   S    
C103  C194  S    
C135  O13   A    
C145  C150  A    
H20   N13   S    
C196  O37   A    
C198  O41   A    
O40   Zn12  S    
C161  H84   S    
H12   N9    S    
C14   C17   A    
C100  C192  S    
O39   Zn11  S    
C111  H68   S    
C59   Cl11  S    
C54   C59   A    
C139  C148  A    
C8    C19   A    
C30   C34   A    
C180  H25   S    
C131  C136  A    
C86   C95   A    
C174  H13   S    
C10   C20   A    
C134  C139  A    
C47   H52   S    
C21   H35   S    
C22   H36   S    
C116  C120  A    
C123  C190  A    
C5    O4    A    
C135  O34   A    
C147  C151  A    
C160  H73   S    
H8    N7    S    
O6    Zn2   S    
C25   C38   A    
C144  O21   A    
C8    C12   A    
O18   Zn6   S    
C31   C34   A    
C21   C37   A    
C80   C95   S    
C165  Cl7   S    
C55   C69   A    
C52   C67   A    
C7    C20   S    
C90   C116  A    
C74   C78   A    
C119  Cl20  S    
O9    Zn6   S    
C136  H51   S    
H3    N4    S    
C26   C141  S    
C71   C77   A    
C83   Cl14  S    
C105  C109  S    
C63   Cl1   S    
C107  C111  S    
C148  C152  A    
C199  O43   A    
C175  C180  A    
C128  C154  A    
C57   C101  A    
C115  C119  A    
C4    C126  S    
H100  N15   S    
C48   C185  S    
C61   C81   S    
C6    O6    A    
O34   Zn5   S    
O4    Zn3   S    
C1    O9    A    
C185  O24   A    
C96   C100  A    
C35   C79   A    
C7    O7    A    
H10   N8    S    
C44   H49   S    
C89   C93   A    
O27   Zn8   S    
C53   C67   A    
C3    O45   A    
C193  O32   A    
C2    C125  A    
C44   C48   A    
C55   H56   S    
C143  O20   A    
C75   H63   S    
C169  C173  A    
C76   H64   S    
C87   C92   A    
H14   N9    S    
C140  C149  A    
C172  C176  A    
C71   C81   A    
O1    Zn1   S    
C54   H55   S    
O13   Zn7   S    
C192  O31   A    
C140  C184  S    
C13   H81   S    
C160  C164  A    
C137  C145  A    
C65   C98   A    
C86   C91   A    
C35   H83   S    
C98   C103  A    
O30   Zn11  S    
O14   Zn1   S    
C15   N3    S    
C30   H39   S    
C108  C114  S    
C146  N9    S    
O28   Zn9   S    
C197  O38   A    
C162  C166  A    
C12   C17   A    
C180  C184  A    
C135  C171  S    
C194  O29   A    
O23   Zn5   S    
C178  C183  A    
C84   Cl15  S    
C68   C113  A    
H108  N19   S    
C99   C104  A    
C62   C82   S    
C133  C138  A    
O15   Zn1   S    
C55   C60   A    
O31   Zn9   S    
C53   H54   S    
C166  Cl8   S    
C176  C181  A    
C196  O36   A    
C159  H62   S    
C148  N18   S    
H11   N8    S    
C76   C80   A    
H96   N12   S    
C72   C74   A    
C85   Cl16  S    
O33   Zn11  S    
C85   C89   A    
C39   H44   S    
C101  C156  S    
C40   H45   S    
C22   C37   A    
C168  C189  S    
C1    O1    A    
C161  C183  A    
C179  H78   S    
C9    C14   A    
C162  C184  A    
C91   C93   A    
C116  H89   S    
C45   C49   A    
C5    C127  S    
C72   H59   S    
C84   C94   A    
C85   C95   A    
C43   H48   S    
C194  O33   A    
H93   N1    S    
C13   C126  A    
C98   H33   S    
C12   N20   S    
C122  Cl23  S    
C168  H77   S    
H109  N19   S    
C151  Cl2   S    
C102  C193  S    
C73   C82   A    
C104  C108  A    
C129  C155  A    
C77   C80   A    
C165  C170  A    
C134  H40   S    
O35   Zn10  S    
H116  N4    S    
C144  O17   A    
C167  C172  A    
C46   C90   A    
C70   H57   S    
C74   H61   S    
C173  H2    S    
C101  C117  A    
H98   N14   S    
C115  H88   S    
C83   C94   A    
C177  H23   S    
C54   C69   A    
C40   C50   A    
C27   C188  A    
C24   H82   S    
C4    O3    A    
C24   C68   A    
C186  O25   A    
O32   Zn8   S    
H101  N16   S    
C13   C57   A    
C114  C179  S    
O8    Zn4   S    
C114  H74   S    
C56   C61   A    
C111  C168  S    
O7    Zn3   S    
C200  O48   A    
H115  N3    S    
C120  Cl21  S    
H94   N12   S    
C195  O35   A    
C109  C146  S    
C195  O30   A    
C47   C49   A    
C146  H75   S    
C2    C46   A    
C141  O18   A    
C147  N17   S    
C100  C105  A    
C33   H43   S    
C124  O23   A    
C57   H86   S    
H97   N14   S    
C10   C15   A    
C87   N5    S    
C77   H65   S    
C65   Cl18  S    
C109  H70   S    
C149  N19   S    
C122  C127  A    
C27   C142  S    
C130  N14   S    
C11   C16   A    
C42   H47   S    
C70   C81   A    
C117  C121  A    
O10   Zn6   S    
O42   Zn3   S    
C88   C92   A    
C97   C102  A    
C32   H42   S    
O2    Zn12  S    
C113  C158  S    
C4    O46   A    
C43   C48   A    
C5    O47   A    
C192  O27   A    
C42   C51   A    
C153  Cl4   S    
H103  N17   S    
C166  C171  A    
C3    O2    A    
C174  C178  A    
C107  C189  A    
C164  C169  A    
C128  C132  A    
C46   H85   S    
C160  C182  A    
C117  H90   S    
C58   Cl10  S    
C21   C32   A    
C34   C50   S    
H110  N20   S    
O44   Zn12  S    
C23   C30   A    
C123  C200  S    
C28   C143  S    
C39   C43   A    
C171  C175  A    
C163  Cl5   S    
C113  C118  A    
O11   Zn7   S    
C86   Cl17  S    
C66   C99   A    
C163  C167  A    
C60   Cl13  S    
C26   C187  A    
C173  C177  A    
C138  C147  A    
C112  O10   A    
C41   H46   S    
C152  Cl3   S    
C17   C37   S    
O47   Zn4   S    
O12   Zn1   S    
C36   C51   S    
C178  H24   S    
H105  N18   S    
C70   C76   A    
C159  C163  A    
O41   Zn2   S    
C139  C183  S    
C7    O8    A    
C106  C110  S    
C185  O22   A    
C22   C33   A    
C59   C62   A    
C111  H72   S    
H16   N10   S    
H113  N2    S    
C96   H31   S    
O38   Zn10  S    
C3    C125  S    
C89   N7    S    
C110  H71   S    
O46   Zn3   S    
C105  C187  A    
C106  C188  A    
C121  C126  A    
C132  H1    S    
O36   Zn8   S    
C79   C154  S    
C172  H106  S    
C102  C106  A    
C42   C47   A    
C157  H76   S    
C75   C78   A    
C29   C66   A    
C39   C50   A    
C124  C170  S    
C14   N2    S    
C16   C18   A    
C150  C154  A    
C91   N8    S    
C69   C199  S    
C142  O19   A    
C2    H80   S    
C90   C155  S    
C72   C82   A    
C52   C56   A    
H15   N10   S    
