data_mof_unit_56694.cif
_audit_creation_date              2012-10-26T21:24:51-0400
_audit_creation_method            fapswitch 2.2
_symmetry_space_group_name_H-M    P1
_symmetry_Int_Tables_number       1
_space_group_crystal_system       triclinic
_cell_length_a                    9.548459
_cell_length_b                    10.860428
_cell_length_c                    15.453906
_cell_angle_alpha                 89.88643
_cell_angle_beta                  74.566957
_cell_angle_gamma                 90.013355
_cell_volume                      1544.78645424

loop_
_atom_site_label
_atom_site_type_symbol
_atom_type_description
_atom_site_fract_x
_atom_site_fract_y
_atom_site_fract_z
_atom_type_partial_charge
C1    C     C_R   0.999943 0.262713 0.499753 0.553827
C2    C     C_R   0.233352 0.567136 0.046812 0.047079
C3    C     C_R   0.328748 0.516096 0.093689 0.037221
C4    C     C_R   0.918433 0.499157 0.672229 0.549088
C5    C     C_R   0.087737 0.591152 0.091484 -0.095062
C6    C     C_R   0.035637 0.566875 0.182870 -0.102370
C7    C     C_R   0.270137 0.484476 0.184463 -0.132567
C8    C     C_R   0.119733 0.062010 0.502549 0.021472
C9    C     C_R   0.998853 0.130092 0.498378 0.010853
C10   C     C_R   0.873857 0.064562 0.492673 -0.160736
C11   C     C_R   0.873989 0.935384 0.492461 -0.162045
C12   C     C_R   0.676768 0.504353 0.909365 -0.012702
C13   C     C_R   0.999098 0.869900 0.498003 0.008923
C14   C     C_R   0.119936 0.938040 0.502251 0.020934
C15   C     C_3   0.271124 0.929226 0.511295 -0.265403
C16   C     C_R   0.000061 0.737282 0.499514 0.551594
C17   C     C_3   0.270813 0.071039 0.511701 -0.270941
C18   C     C_R   0.592259 0.591311 0.457144 0.155522
C19   C     C_R   0.553094 0.416999 0.549426 -0.015050
C20   C     C_R   0.404198 0.417056 0.549486 -0.018460
C21   C     C_R   0.444876 0.591381 0.457141 0.157567
C22   C     C_3   0.481749 0.621856 0.359510 -0.272352
C23   C     C_R   0.777002 0.468303 0.958075 0.089638
C24   C     C_3   0.640409 0.621424 0.359661 -0.283276
C25   C     C_R   0.081605 0.501699 0.327868 0.543889
C26   C     C_R   0.873816 0.494700 0.770788 -0.002465
C27   C     C_R   0.127135 0.514257 0.229859 -0.003139
C28   C     C_R   0.924773 0.452188 0.912833 -0.111986
C29   C     C_R   0.972918 0.466557 0.820117 -0.164101
C30   C     C_R   0.727741 0.513742 0.815427 -0.135215
C31   C     C_R   0.528416 0.526125 0.955287 0.019402
C32   C     C_R   0.478908 0.500055 0.048705 0.002432
C33   C     C_R   0.581622 0.462996 0.094814 -0.129819
C34   C     C_R   0.728847 0.447504 0.050713 0.229175
C35   C     C_R   0.428732 0.576155 0.911195 -0.129118
C36   C     C_R   0.284497 0.596235 0.956303 -0.139964
Cu1   Cu    Cu3+1 0.140670 0.499980 0.500000 0.934803
Cu2   Cu    Cu3+1 0.859330 0.500020 0.500000 0.933007
H1    H     H_    0.015096 0.631885 0.056173 0.126195
H2    H     H_    0.454897 0.546423 0.318365 0.147819
H3    H     H_    0.332950 0.436574 0.222212 0.111535
H4    H     H_    0.441683 0.714294 0.346595 0.122624
H5    H     H_    0.702216 0.545000 0.319232 0.143427
H6    H     H_    0.692475 0.713629 0.346941 0.120883
H7    H     H_    0.925333 0.592156 0.216922 0.121667
H8    H     H_    0.212600 0.636051 0.920039 0.106256
H9    H     H_    0.003651 0.426687 0.948708 0.173885
H10   H     H_    0.086654 0.451595 0.786853 0.127068
H11   H     H_    0.654674 0.531504 0.774635 0.126667
H12   H     H_    0.776164 0.112313 0.488729 0.133334
H13   H     H_    0.551906 0.448450 0.166176 0.079807
H14   H     H_    0.459317 0.605757 0.842204 0.104358
H15   H     H_    0.776288 0.398302 0.161300 0.319136
H16   H     H_    0.776385 0.887591 0.488356 0.133611
H17   H     H_    0.275248 0.887833 0.576412 0.142038
H18   H     H_    0.347317 0.889002 0.450800 0.132542
H19   H     H_    0.274564 0.111236 0.577135 0.128541
H20   H     H_    0.346771 0.112684 0.451479 0.141725
H21   H     H_    0.592171 0.348280 0.588074 0.116045
H22   H     H_    0.331656 0.348558 0.588270 0.109390
N1    N     N_R   0.648210 0.500930 0.499430 -0.230719
N2    N     N_R   0.352300 0.500890 0.499430 -0.230913
O1    O     O_R   0.118810 0.319640 0.500000 -0.503966
O2    O     O_R   0.881230 0.319680 0.499990 -0.511453
O3    O     O_R   0.055580 0.499970 0.629840 -0.502915
O4    O     O_R   0.818000 0.500010 0.629830 -0.507855
O5    O     O_R   0.118770 0.680320 0.500010 -0.496741
O6    O     O_R   0.881190 0.680360 0.500000 -0.506735
O7    O     O_R   0.182000 0.499990 0.370170 -0.508109
O8    O     O_R   0.944420 0.500030 0.370160 -0.502316
O9    O     O_3   0.826991 0.409326 0.096867 -0.726487

loop_
_geom_bond_atom_site_label_1
_geom_bond_atom_site_label_2
_ccdc_geom_bond_type
Cu1   N2    S    
C4    C26   S    
Cu2   O8    S    
C18   N1    A    
C36   H8    S    
Cu1   Cu2   S    
C16   O6    A    
C6    H7    S    
Cu1   O7    S    
C25   C27   S    
C18   C21   A    
C9    C10   A    
C3    C7    A    
C8    C17   S    
C14   C15   S    
C6    C27   A    
C17   H20   S    
C23   C34   A    
C22   H2    S    
C15   H18   S    
Cu2   N1    S    
C7    H3    S    
C33   C34   A    
C1    C9    S    
C3    C32   A    
C28   H9    S    
C16   O5    A    
C13   C14   A    
C32   C33   A    
C4    O4    A    
C11   C13   A    
C12   C23   A    
C21   N2    A    
C22   H4    S    
C11   H16   S    
C35   C36   A    
C19   N1    A    
C18   C24   S    
Cu1   O5    S    
C22   C24   S    
Cu1   O3    S    
C28   C29   A    
Cu1   O1    S    
C30   H11   S    
Cu2   O6    S    
C2    C3    A    
Cu2   O2    S    
C5    H1    S    
C12   C31   A    
C20   N2    A    
C5    C6    A    
C24   H6    S    
C31   C35   A    
C2    C5    A    
C25   O7    A    
C10   C11   A    
C29   H10   S    
H15   O9    S    
C1    O2    A    
C1    O1    A    
C10   H12   S    
C7    C27   A    
C26   C29   A    
C13   C16   S    
C2    C36   A    
C35   H14   S    
C15   C17   S    
C24   H5    S    
Cu2   O4    S    
C4    O3    A    
C8    C14   A    
C25   O8    A    
C19   H21   S    
C20   H22   S    
C21   C22   S    
C12   C30   A    
C34   O9    S    
C31   C32   A    
C23   C28   A    
C33   H13   S    
C19   C20   A    
C17   H19   S    
C8    C9    A    
C26   C30   A    
C15   H17   S    
