data_mof_unit_44926.cif
_audit_creation_date              2012-12-10T18:03:35-0500
_audit_creation_method            fapswitch 2.2
_symmetry_space_group_name_H-M    P1
_symmetry_Int_Tables_number       1
_space_group_crystal_system       triclinic
_cell_length_a                    10.822233
_cell_length_b                    9.634321
_cell_length_c                    19.368471
_cell_angle_alpha                 89.844797
_cell_angle_beta                  92.787686
_cell_angle_gamma                 90.010115
_cell_volume                      2017.05385197

loop_
_atom_site_label
_atom_site_type_symbol
_atom_type_description
_atom_site_fract_x
_atom_site_fract_y
_atom_site_fract_z
_atom_type_partial_charge
C1    C     C_R   0.871604 0.500046 0.499972 -0.044776
C2    C     C_R   0.128391 0.499961 0.499996 -0.045481
C3    C     C_R   0.501845 0.627550 0.963311 -0.030605
C4    C     C_R   0.501886 0.372259 0.036807 -0.028347
C5    C     C_R   0.499003 0.627701 0.036245 -0.029828
C6    C     C_R   0.499818 0.372099 0.963733 -0.028359
C7    C     C_R   0.500261 0.500058 0.072662 -0.118152
C8    C     C_R   0.500988 0.499747 0.927378 -0.117612
C9    C     C_R   0.262410 0.499990 0.499917 0.776328
C10   C     C_R   0.737589 0.500010 0.500073 0.774431
C11   C     C_R   0.499573 0.500136 0.368187 0.768664
C12   C     C_R   0.500461 0.499847 0.631811 0.768150
C13   C     C_R   0.063149 0.375052 0.491558 -0.168177
C14   C     C_R   0.936844 0.624957 0.508409 -0.167560
C15   C     C_R   0.935299 0.375149 0.491433 -0.136769
C16   C     C_R   0.064694 0.624867 0.508510 -0.134409
C17   C     C_R   0.400100 0.443910 0.740128 -0.163575
C18   C     C_R   0.398610 0.554929 0.254373 -0.174313
C19   C     C_R   0.600921 0.445611 0.260178 -0.146218
C20   C     C_R   0.601624 0.555060 0.745337 -0.148338
C21   C     C_R   0.399273 0.446026 0.812018 -0.152439
C22   C     C_R   0.397883 0.552842 0.182430 -0.135074
C23   C     C_R   0.602011 0.447607 0.188292 -0.153501
C24   C     C_R   0.602684 0.553021 0.817290 -0.139782
C25   C     C_R   0.501016 0.499572 0.850979 0.030221
C26   C     C_R   0.500045 0.500206 0.149047 0.032157
C27   C     C_R   0.423403 0.074518 0.454553 0.063923
C28   C     C_R   0.576597 0.925504 0.545462 0.072649
C29   C     C_R   0.580989 0.073914 0.543081 0.071998
C30   C     C_R   0.418962 0.926116 0.456941 0.074889
C31   C     C_R   0.500775 0.499515 0.706791 -0.016375
C32   C     C_R   0.499718 0.500364 0.293217 -0.001393
Cu1   Cu    Cu3+1 0.500000 0.640660 0.500000 0.941616
Cu2   Cu    Cu3+1 0.500000 0.359340 0.500000 0.938514
H1    H     H_    0.321607 0.401274 0.710469 0.144047
H2    H     H_    0.319740 0.596737 0.279714 0.129831
H3    H     H_    0.679549 0.403579 0.290064 0.139268
H4    H     H_    0.679994 0.597732 0.719734 0.143668
H5    H     H_    0.319959 0.405197 0.837414 0.155798
H6    H     H_    0.318330 0.592976 0.152683 0.155354
H7    H     H_    0.681666 0.407340 0.163119 0.154755
H8    H     H_    0.682052 0.593944 0.846803 0.156481
N1    N     N_R   0.500000 0.852070 0.500000 -0.260655
N2    N     N_R   0.500000 0.147930 0.500000 -0.261501
O1    O     O_R   0.319640 0.618740 0.500000 -0.595188
O2    O     O_R   0.680360 0.381260 0.500000 -0.596762
O3    O     O_R   0.680360 0.618740 0.500000 -0.608837
O4    O     O_R   0.319640 0.381260 0.500000 -0.610470
O5    O     O_R   0.500020 0.618830 0.400190 -0.600138
O6    O     O_R   0.499980 0.381170 0.599810 -0.602504
O7    O     O_R   0.499980 0.618830 0.599810 -0.575764
O8    O     O_R   0.500020 0.381170 0.400190 -0.578015
C33   C     C_2   0.353573 0.147378 0.397492 0.484685
H9    H     H_    0.297090 0.236711 0.406429 0.089952
O9    O     O_2   0.359146 0.106450 0.338095 -0.550427
C34   C     C_2   0.646498 0.852703 0.602537 0.473072
H10   H     H_    0.702265 0.762762 0.593708 0.085105
O10   O     O_2   0.641727 0.894308 0.661861 -0.555942
C35   C     C_2   0.682667 0.145928 0.582831 0.453526
H11   H     H_    0.667391 0.238402 0.612069 0.112162
O11   O     O_2   0.788126 0.100735 0.583003 -0.577284
C36   C     C_2   0.317205 0.854158 0.417220 0.449495
H12   H     H_    0.332217 0.761042 0.388481 0.105487
O12   O     O_2   0.211924 0.899969 0.416614 -0.577938
H13   H     H_    0.110520 0.277384 0.484742 0.162890
H14   H     H_    0.889471 0.722620 0.515240 0.163153
H15   H     H_    0.886620 0.277669 0.484240 0.190513
H16   H     H_    0.113371 0.722358 0.515673 0.190774
C37   C     C_2   0.506545 0.759962 0.923551 0.481211
H17   H     H_    0.454381 0.770580 0.874536 0.082717
O13   O     O_2   0.573147 0.855541 0.943468 -0.464884
C38   C     C_2   0.506555 0.239874 0.076855 0.476251
H18   H     H_    0.454079 0.229170 0.122917 0.089656
O14   O     O_2   0.573449 0.144429 0.060734 -0.468354
C39   C     C_2   0.493844 0.760251 0.075510 0.477316
H19   H     H_    0.545789 0.771193 0.124547 0.078629
O15   O     O_2   0.427122 0.855587 0.055165 -0.464761
C40   C     C_2   0.495577 0.239522 0.924207 0.476802
H20   H     H_    0.548223 0.228759 0.878242 0.080679
O16   O     O_2   0.428827 0.143981 0.940637 -0.466309

loop_
_geom_bond_atom_site_label_1
_geom_bond_atom_site_label_2
_ccdc_geom_bond_type
C9    O1    A    
Cu1   O1    S    
C28   C34   S    
C13   H13   S    
C33   H9    S    
C7    C26   S    
C28   C29   A    
C3    C37   S    
C16   H16   S    
C40   O16   D    
C6    C40   S    
Cu1   O5    S    
C24   H8    S    
C34   H10   S    
C23   C26   A    
C37   O13   D    
C2    C13   A    
C36   O12   D    
C11   O8    A    
C19   H3    S    
C27   N2    A    
C20   C24   A    
C10   O2    A    
C1    C15   A    
C2    C16   A    
C15   H15   S    
C35   H11   S    
C27   C30   A    
C8    C25   S    
C4    C7    A    
C19   C32   A    
C33   O9    D    
Cu2   O6    S    
C35   O11   D    
Cu1   N1    S    
C29   C35   S    
Cu2   N2    S    
C24   C25   A    
C4    C6    A    
C3    C8    A    
C5    C7    A    
C40   H20   S    
C6    C8    A    
C17   C21   A    
C5    C39   S    
C19   C23   A    
C39   H19   S    
C36   H12   S    
C11   O5    A    
C20   H4    S    
C21   H5    S    
C22   H6    S    
Cu1   Cu2   S    
C14   H14   S    
C39   O15   D    
Cu2   O2    S    
C38   O14   D    
C11   C32   S    
C30   C36   S    
C12   C31   S    
Cu1   O3    S    
C14   C16   A    
C30   N1    A    
Cu2   O4    S    
C4    C38   S    
C12   O7    A    
C21   C25   A    
C18   C22   A    
C1    C10   S    
C38   H18   S    
C3    C5    A    
C12   O6    A    
C27   C33   S    
Cu1   O7    S    
C28   N1    A    
Cu2   O8    S    
C23   H7    S    
C13   C15   A    
C29   N2    A    
C17   C31   A    
C34   O10   D    
C37   H17   S    
C18   C32   A    
C9    O4    A    
C22   C26   A    
C10   O3    A    
C1    C14   A    
C17   H1    S    
C2    C9    S    
C18   H2    S    
C20   C31   A    
