data_mof_unit_29093.cif
_audit_creation_date              2012-12-10T17:33:50-0500
_audit_creation_method            fapswitch 2.2
_symmetry_space_group_name_H-M    P1
_symmetry_Int_Tables_number       1
_space_group_crystal_system       triclinic
_cell_length_a                    10.706694
_cell_length_b                    12.036905
_cell_length_c                    12.837819
_cell_angle_alpha                 94.699173
_cell_angle_beta                  91.420842
_cell_angle_gamma                 86.469242
_cell_volume                      1645.46411911

loop_
_atom_site_label
_atom_site_type_symbol
_atom_type_description
_atom_site_fract_x
_atom_site_fract_y
_atom_site_fract_z
_atom_type_partial_charge
C1    C     C_R   0.490611 0.522394 0.700245 0.923971
C2    C     C_R   0.448446 0.451424 0.973359 -0.081254
C3    C     C_R   0.531191 0.527060 0.024728 0.058693
C4    C     C_R   0.742558 0.500879 0.503256 0.912496
C5    C     C_R   0.552419 0.528092 0.130889 -0.310604
C6    C     C_R   0.410261 0.379755 0.140759 -0.025281
C7    C     C_R   0.395341 0.371507 0.031624 0.517622
C8    C     C_R   0.361775 0.954657 0.421754 -0.314629
C9    C     C_R   0.375675 0.838708 0.429630 -0.098923
C10   C     C_R   0.566794 0.858243 0.524789 0.646708
C11   C     C_R   0.553003 0.975857 0.523528 -0.071808
C12   C     C_3   0.122275 0.496343 0.491666 -0.047923
C13   C     C_R   0.450338 0.024349 0.469965 0.036383
C14   C     C_R   0.440214 0.141495 0.465572 -0.163228
C15   C     C_R   0.614976 0.162793 0.581171 0.684547
C16   C     C_R   0.498638 0.476593 0.299865 0.934865
C17   C     C_R   0.637447 0.045912 0.576896 -0.408362
C18   C     C_R   0.258304 0.498428 0.494562 0.922906
C19   C     C_3   0.939827 0.378754 0.515464 -0.098425
C20   C     C_3   0.080053 0.373853 0.492968 -0.072973
C21   C     C_3   0.919828 0.542921 0.391857 0.057023
C22   C     C_3   0.931556 0.581528 0.592512 0.373655
C23   C     C_3   0.065775 0.551462 0.393978 0.384561
C24   C     C_3   0.880065 0.501012 0.501096 -0.089673
C25   C     C_3   0.405690 0.189896 0.967455 -0.379591
C26   C     C_3   0.329505 0.316876 0.763715 -0.178487
C27   C     C_3   0.705517 0.199021 0.744957 -0.427201
C28   C     C_3   0.663199 0.801084 0.672612 -0.340968
C29   C     C_3   0.148727 0.578406 0.231721 -0.304011
C30   C     C_3   0.920335 0.638340 0.771848 -0.339189
C31   C     C_3   0.075855 0.565676 0.592662 -0.615983
C32   C     C_R   0.488811 0.458689 0.188590 -0.123166
C33   C     C_R   0.486962 0.534785 0.812599 -0.150469
C34   C     C_R   0.588334 0.605097 0.970955 -0.169565
C35   C     C_R   0.567211 0.607913 0.865350 -0.275677
C36   C     C_R   0.420929 0.459592 0.866367 0.471388
H1    H     H_    0.893400 0.316786 0.460559 0.161417
H2    H     H_    0.305746 0.785666 0.394228 0.146487
H3    H     H_    0.132031 0.332471 0.557077 0.162327
H4    H     H_    0.902973 0.668888 0.576997 0.124356
H5    H     H_    0.110650 0.521091 0.661282 0.247572
H6    H     H_    0.869070 0.671038 0.297467 0.187674
H7    H     H_    0.899162 0.718337 0.420763 0.160832
H8    H     H_    0.245196 0.320521 0.179143 0.243375
H9    H     H_    0.371992 0.231155 0.194381 0.181617
H10   H     H_    0.426736 0.150263 0.041271 0.166562
H11   H     H_    0.495061 0.205928 0.930366 0.140014
H12   H     H_    0.114703 0.649749 0.600723 0.164023
H13   H     H_    0.357079 0.128524 0.914249 0.184634
H14   H     H_    0.425498 0.276884 0.770796 0.145086
H15   H     H_    0.307698 0.328354 0.680629 0.174255
H16   H     H_    0.261548 0.258362 0.787576 0.192213
H17   H     H_    0.937825 0.258027 0.620235 0.186555
H18   H     H_    0.837650 0.368354 0.650166 0.303863
H19   H     H_    0.789435 0.140242 0.747620 0.173858
H20   H     H_    0.622426 0.160492 0.773962 0.144442
H21   H     H_    0.723404 0.273054 0.799367 0.214419
H22   H     H_    0.700488 0.716845 0.688525 0.235309
H23   H     H_    0.088533 0.641195 0.406105 0.039323
H24   H     H_    0.565534 0.812638 0.702022 0.148729
H25   H     H_    0.722169 0.861711 0.717216 0.140409
H26   H     H_    0.088406 0.222326 0.406240 0.151142
H27   H     H_    0.200069 0.304493 0.377241 0.235429
H28   H     H_    0.919077 0.385120 0.307025 0.229612
H29   H     H_    0.783269 0.462660 0.300868 0.163805
H30   H     H_    0.180206 0.533727 0.157113 0.201402
H31   H     H_    0.226389 0.628878 0.263944 0.160843
H32   H     H_    0.065118 0.633409 0.213733 0.151072
H33   H     H_    0.921538 0.724949 0.747642 0.139057
H34   H     H_    0.614277 0.587245 0.170050 0.171409
H35   H     H_    0.013818 0.611838 0.803621 0.203003
H36   H     H_    0.853455 0.639885 0.836595 0.183326
H37   H     H_    0.651183 0.662942 0.010358 0.140410
H38   H     H_    0.616884 0.665401 0.825054 0.150690
H39   H     H_    0.365778 0.179850 0.420002 0.142411
H40   H     H_    0.281454 0.989543 0.379941 0.150389
H41   H     H_    0.718345 0.011135 0.617423 0.186558
N1    N     N_R   0.523380 0.207800 0.519350 -0.142808
N2    N     N_R   0.476620 0.792180 0.480650 -0.138531
N3    N     N_3   0.858582 0.653778 0.375188 -0.427387
N4    N     N_3   0.338984 0.314588 0.203838 -0.426686
N5    N     N_3   0.926427 0.345111 0.622075 -0.393893
N6    N     N_3   0.105672 0.305076 0.394960 -0.437963
N7    N     N_3   0.880615 0.466102 0.302956 -0.398672
O1    O     O_R   0.506240 0.421700 0.658830 -0.594611
O2    O     O_3   0.309888 0.420249 0.823310 -0.608506
O3    O     O_3   0.686825 0.234490 0.643155 -0.606155
O4    O     O_3   0.675141 0.809167 0.564636 -0.612341
O5    O     O_3   0.120543 0.498946 0.301209 -0.589073
O6    O     O_3   0.882178 0.560394 0.690367 -0.599915
O7    O     O_R   0.491240 0.609310 0.646410 -0.630111
O8    O     O_R   0.692710 0.406190 0.506230 -0.612827
O9    O     O_R   0.677700 0.593810 0.493810 -0.553237
O10   O     O_R   0.508760 0.390690 0.353590 -0.610913
O11   O     O_R   0.493760 0.578300 0.341170 -0.627142
O12   O     O_R   0.322300 0.406190 0.506190 -0.665246
O13   O     O_R   0.307290 0.593810 0.493770 -0.646137
O14   O     O_3   0.326192 0.287824 0.983701 -0.577545
Zn1   Zn    Zn3+2 0.510020 0.374730 0.508290 0.961400
Zn2   Zn    Zn3+2 0.489980 0.625270 0.491710 0.970961

loop_
_geom_bond_atom_site_label_1
_geom_bond_atom_site_label_2
_ccdc_geom_bond_type
C6    C32   A    
H26   N6    S    
C35   H38   S    
H6    N3    S    
C8    C13   A    
C7    O14   S    
C18   O12   A    
C19   C20   S    
C30   O6    S    
O13   Zn2   S    
C29   O5    S    
C30   H35   S    
C1    C33   S    
C23   H23   S    
C12   C23   S    
C10   O4    S    
C26   H14   S    
C4    C24   S    
C27   H19   S    
C15   N1    A    
O12   Zn1   S    
C8    H40   S    
C33   C36   A    
C34   C35   A    
C9    N2    A    
H28   N7    S    
C19   H1    S    
C29   H31   S    
C2    C7    A    
C8    C9    A    
C28   O4    S    
C23   O5    S    
C18   O13   A    
O7    Zn2   S    
C19   N5    S    
C25   H11   S    
C5    C32   A    
C28   H25   S    
C1    O7    A    
C6    N4    S    
C13   C14   A    
C28   H24   S    
C1    O1    A    
C22   C31   S    
N2    Zn2   S    
H8    N4    S    
C27   H21   S    
C20   H3    S    
O11   Zn2   S    
H29   N7    S    
C3    C34   A    
C36   O2    S    
H7    N3    S    
C4    O9    A    
H27   N6    S    
H17   N5    S    
C5    H34   S    
O1    Zn1   S    
C26   H16   S    
C29   H32   S    
C21   N7    S    
C26   O2    S    
C22   H4    S    
C12   C20   S    
C17   H41   S    
C22   O6    S    
C27   O3    S    
O9    Zn2   S    
C31   H12   S    
C21   C23   S    
C12   C31   S    
C22   C24   S    
C21   C24   S    
H18   N5    S    
C30   H33   S    
C15   O3    S    
C2    C36   A    
C15   C17   A    
C11   C17   A    
C16   O11   A    
C31   H5    S    
C27   H20   S    
H9    N4    S    
C3    C5    A    
C30   H36   S    
C10   N2    A    
C6    C7    A    
C28   H22   S    
C16   C32   S    
C16   O10   A    
C14   H39   S    
C2    C3    A    
C26   H15   S    
C11   C13   A    
O10   Zn1   S    
C21   N3    S    
C9    H2    S    
C33   C35   A    
C19   C24   S    
C14   N1    A    
C25   H13   S    
C10   C11   A    
C34   H37   S    
C29   H30   S    
C25   O14   S    
C20   N6    S    
C12   C18   S    
N1    Zn1   S    
C25   H10   S    
O8    Zn1   S    
C4    O8    A    
