data_mof_unit_63260.cif
_audit_creation_date              2012-12-10T17:20:12-0500
_audit_creation_method            fapswitch 2.2
_symmetry_space_group_name_H-M    P1
_symmetry_Int_Tables_number       1
_space_group_crystal_system       triclinic
_cell_length_a                    10.220225
_cell_length_b                    10.467246
_cell_length_c                    14.158971
_cell_angle_alpha                 90.209766
_cell_angle_beta                  81.916929
_cell_angle_gamma                 93.873164
_cell_volume                      1496.19349713

loop_
_atom_site_label
_atom_site_type_symbol
_atom_type_description
_atom_site_fract_x
_atom_site_fract_y
_atom_site_fract_z
_atom_type_partial_charge
C1    C     C_R   0.553952 0.734757 0.498555 0.903264
C2    C     C_1   0.499866 0.499977 0.042616 0.018661
C3    C     C_2   0.579484 0.871878 0.512918 -0.027936
C4    C     C_2   0.421028 0.128197 0.529266 -0.037719
C5    C     C_2   0.502732 0.930984 0.584007 -0.009978
C6    C     C_2   0.498618 0.069941 0.584338 -0.015939
C7    C     C_2   0.927968 0.513491 0.508014 -0.039046
C8    C     C_2   0.072710 0.490413 0.489129 -0.039358
C9    C     C_1   0.585449 0.140405 0.641930 0.174103
C10   C     C_1   0.416797 0.861358 0.659716 0.171115
C11   C     C_3   0.317007 0.053763 0.481472 -0.887832
C12   C     C_R   0.446118 0.265227 0.509581 0.905198
C13   C     C_3   0.683351 0.945215 0.443648 -0.893580
C14   C     C_1   0.120095 0.399528 0.417415 0.267223
C15   C     C_1   0.881418 0.609573 0.575816 0.272348
C16   C     C_R   0.500117 0.500091 0.670738 0.881120
C17   C     C_R   0.499887 0.499929 0.329264 0.892118
C18   C     C_1   0.500355 0.500100 0.772184 -0.164318
C19   C     C_1   0.499642 0.499916 0.227792 -0.190512
C20   C     C_1   0.500337 0.500083 0.857425 0.009824
C21   C     C_1   0.499650 0.499928 0.142540 0.000918
C22   C     C_1   0.500112 0.500031 0.957343 0.019709
H1    H     H_    0.123542 0.615638 0.586665 0.169017
H2    H     H_    0.875557 0.379793 0.416789 0.164477
H3    H     H_    0.264662 0.118033 0.439591 0.252223
H4    H     H_    0.363593 0.982028 0.431943 0.252940
H5    H     H_    0.242742 0.003990 0.536258 0.256903
H6    H     H_    0.735179 0.880059 0.391116 0.243216
H7    H     H_    0.636755 0.016564 0.403662 0.252681
H8    H     H_    0.758039 0.995298 0.483064 0.259218
N1    N     N_2   0.842710 0.448890 0.464580 -0.204181
N2    N     N_2   0.157290 0.551110 0.535420 -0.204455
N3    N     N_1   0.654808 0.196335 0.687904 -0.188259
N4    N     N_1   0.348196 0.806077 0.720173 -0.193208
N5    N     N_1   0.157294 0.326770 0.359690 -0.232084
N6    N     N_1   0.844730 0.686644 0.630231 -0.215316
O1    O     O_R   0.431050 0.692470 0.507130 -0.606660
O2    O     O_R   0.568950 0.307530 0.492870 -0.606203
O3    O     O_R   0.651120 0.659650 0.484400 -0.591809
O4    O     O_R   0.348880 0.340350 0.515600 -0.589637
O5    O     O_R   0.389940 0.516410 0.637650 -0.587198
O6    O     O_R   0.610060 0.483590 0.362350 -0.590701
O7    O     O_R   0.610010 0.483590 0.614920 -0.582931
O8    O     O_R   0.389990 0.516410 0.385080 -0.583607
Zn1   Zn    Zn3+2 0.353060 0.521920 0.515180 0.959488
Zn2   Zn    Zn3+2 0.646940 0.478080 0.484820 0.956705

loop_
_geom_bond_atom_site_label_1
_geom_bond_atom_site_label_2
_ccdc_geom_bond_type
C12   O4    A    
C8    C14   S    
C13   H6    S    
C2    C22   T    
C19   C21   T    
C1    O1    A    
C4    C12   S    
N2    Zn1   S    
C13   H8    S    
C3    C13   S    
C11   H5    S    
H1    N2    S    
C6    C9    S    
C7    C15   S    
C17   O8    A    
C5    C10   S    
C10   N4    T    
C16   C18   S    
C4    C11   S    
C9    N3    T    
C16   O7    A    
C5    C6    S    
C2    C21   S    
O3    Zn2   S    
C13   H7    S    
C17   C19   S    
C20   C22   S    
C18   C20   T    
C12   O2    A    
O4    Zn1   S    
O7    Zn2   S    
O2    Zn2   S    
C7    N1    D    
C1    O3    A    
O1    Zn1   S    
C8    N2    D    
C3    C5    D    
C15   N6    T    
C7    C8    S    
O8    Zn1   S    
C4    C6    D    
O6    Zn2   S    
C14   N5    T    
C11   H3    S    
C17   O6    A    
O5    Zn1   S    
C11   H4    S    
H2    N1    S    
C16   O5    A    
C1    C3    S    
N1    Zn2   S    
