data_mof_unit_25570.cif
_audit_creation_date              2012-12-10T18:52:11-0500
_audit_creation_method            fapswitch 2.2
_symmetry_space_group_name_H-M    P1
_symmetry_Int_Tables_number       1
_space_group_crystal_system       triclinic
_cell_length_a                    15.722268
_cell_length_b                    10.635047
_cell_length_c                    9.912521
_cell_angle_alpha                 89.381486
_cell_angle_beta                  88.835399
_cell_angle_gamma                 90.933006
_cell_volume                      1656.77878691

loop_
_atom_site_label
_atom_site_type_symbol
_atom_type_description
_atom_site_fract_x
_atom_site_fract_y
_atom_site_fract_z
_atom_type_partial_charge
C1    C     C_R   0.502033 0.260561 0.500439 0.852118
C2    C     C_R   0.497966 0.739438 0.499561 0.852117
C3    C     C_R   0.434758 0.937602 0.428060 -0.023934
C4    C     C_R   0.565241 0.062398 0.571940 -0.023936
C5    C     C_R   0.496841 0.871954 0.499024 -0.128141
C6    C     C_R   0.503158 0.128046 0.500976 -0.128142
C7    C     C_R   0.565349 0.556254 0.066898 0.048139
C8    C     C_R   0.434651 0.443746 0.933102 0.048139
C9    C     C_R   0.565161 0.554541 0.923966 -0.144978
C10   C     C_R   0.434839 0.445459 0.076034 -0.144979
C11   C     C_R   0.338038 0.499778 0.501190 0.888455
C12   C     C_R   0.661961 0.500222 0.498810 0.888454
C13   C     C_3   0.968593 0.393554 0.558781 -0.242673
C14   C     C_3   0.031406 0.606446 0.441219 -0.242672
C15   C     C_3   0.029234 0.399208 0.432979 -0.242465
C16   C     C_3   0.970766 0.600792 0.567021 -0.242465
C17   C     C_1   0.249140 0.499791 0.503783 -0.143299
C18   C     C_1   0.750860 0.500209 0.496217 -0.143301
C19   C     C_3   0.023735 0.494266 0.627738 0.059374
C20   C     C_3   0.976265 0.505734 0.372262 0.059374
C21   C     C_3   0.082985 0.499846 0.503633 0.168648
C22   C     C_3   0.917015 0.500154 0.496367 0.168648
C23   C     C_1   0.173852 0.499808 0.504564 0.021717
C24   C     C_1   0.826147 0.500192 0.495436 0.021716
C25   C     C_R   0.439379 0.067304 0.429289 -0.110506
C26   C     C_R   0.560621 0.932696 0.570711 -0.110507
H1    H     H_    0.941341 0.306929 0.607307 0.163913
H2    H     H_    0.058659 0.693071 0.392693 0.163913
H3    H     H_    0.392131 0.121948 0.377306 0.181902
H4    H     H_    0.607870 0.878051 0.622694 0.181901
N1    N     N_R   0.499980 0.499970 0.857200 -0.087070
N2    N     N_R   0.500020 0.500030 0.142800 -0.087070
O1    O     O_R   0.499990 0.316750 0.614620 -0.564794
O2    O     O_R   0.500010 0.683250 0.385380 -0.564796
O3    O     O_R   0.500000 0.316780 0.385290 -0.619962
O4    O     O_R   0.500000 0.683220 0.614710 -0.619961
O5    O     O_R   0.376780 0.499970 0.614640 -0.579100
O6    O     O_R   0.623220 0.500030 0.385360 -0.579100
O7    O     O_R   0.376780 0.500000 0.385310 -0.639861
O8    O     O_R   0.623220 0.500000 0.614690 -0.639861
Zn1   Zn    Zn3+2 0.500000 0.499980 0.653120 1.004076
Zn2   Zn    Zn3+2 0.500000 0.500020 0.346880 1.004075
H5    H     H_    0.054709 0.317246 0.377736 0.161302
H6    H     H_    0.945291 0.682754 0.622263 0.161302
C27   C     C_2   0.951493 0.512238 0.227280 0.392647
H7    H     H_    0.000570 0.515538 0.148771 0.066309
O9    O     O_2   0.876754 0.513855 0.196630 -0.571893
C28   C     C_2   0.048507 0.487762 0.772720 0.392647
H8    H     H_    0.999430 0.484462 0.851229 0.066309
O10   O     O_2   0.123246 0.486145 0.803369 -0.571893
C29   C     C_2   0.363522 0.873162 0.358386 0.429216
H9    H     H_    0.352567 0.772756 0.370364 0.063086
O11   O     O_2   0.315330 0.932055 0.287206 -0.562241
C30   C     C_2   0.636478 0.126838 0.641615 0.429219
H10   H     H_    0.647435 0.227243 0.629630 0.063080
O12   O     O_2   0.684666 0.067945 0.712802 -0.562238
C31   C     C_2   0.637944 0.621333 0.128426 0.468395
H11   H     H_    0.701852 0.605540 0.089442 0.072974
O13   O     O_2   0.627291 0.700405 0.214812 -0.521903
C32   C     C_2   0.362056 0.378667 0.871574 0.468395
H12   H     H_    0.298148 0.394459 0.910559 0.072974
O14   O     O_2   0.372709 0.299596 0.785188 -0.521902
H13   H     H_    0.616689 0.599133 0.866124 0.140552
H14   H     H_    0.383311 0.400867 0.133876 0.140552

loop_
_geom_bond_atom_site_label_1
_geom_bond_atom_site_label_2
_ccdc_geom_bond_type
C12   O8    A    
C4    C26   A    
C30   O12   D    
O6    Zn2   S    
C10   N2    A    
C16   H6    S    
C10   H14   S    
C20   C27   S    
O2    Zn2   S    
C15   C21   S    
C28   H8    S    
O1    Zn1   S    
C7    C9    A    
C2    O2    A    
C28   O10   D    
O4    Zn1   S    
C15   H5    S    
C9    H13   S    
C27   H7    S    
C8    C32   S    
C11   O7    A    
C31   H11   S    
C17   C23   T    
C32   H12   S    
C16   C19   S    
C18   C24   T    
C14   C21   S    
C8    C10   A    
O8    Zn1   S    
C19   C21   S    
C20   C22   S    
C13   C22   S    
C26   H4    S    
O7    Zn2   S    
C22   C24   S    
C13   C15   S    
C21   C23   S    
C25   H3    S    
C15   C20   S    
C14   C16   S    
C31   O13   D    
C6    C25   A    
N2    Zn2   S    
C13   C19   S    
C29   O11   D    
C1    O1    A    
C5    C26   A    
C2    C5    S    
C12   O6    A    
C14   C20   S    
C3    C25   A    
C1    O3    A    
C32   O14   D    
C4    C6    A    
C27   O9    D    
C2    O4    A    
C1    C6    S    
C11   O5    A    
O3    Zn2   S    
C3    C29   S    
C30   H10   S    
C13   H1    S    
C16   C22   S    
C7    N2    A    
N1    Zn1   S    
C14   H2    S    
C19   C28   S    
C8    N1    A    
O5    Zn1   S    
C7    C31   S    
C4    C30   S    
C11   C17   S    
C29   H9    S    
C9    N1    A    
C3    C5    A    
C12   C18   S    
