data_mof_unit_62130.cif
_audit_creation_date              2012-12-10T19:34:07-0500
_audit_creation_method            fapswitch 2.2
_symmetry_space_group_name_H-M    P1
_symmetry_Int_Tables_number       1
_space_group_crystal_system       triclinic
_cell_length_a                    23.73002
_cell_length_b                    23.532731
_cell_length_c                    16.365454
_cell_angle_alpha                 90.049555
_cell_angle_beta                  93.435041
_cell_angle_gamma                 89.8888
_cell_volume                      9122.55697379

loop_
_atom_site_label
_atom_site_type_symbol
_atom_type_description
_atom_site_fract_x
_atom_site_fract_y
_atom_site_fract_z
_atom_type_partial_charge
C1    C     C_R   0.423594 0.076262 0.488376 0.885423
C2    C     C_R   0.573640 0.921346 0.511218 0.857632
C3    C     C_R   0.578266 0.073858 0.512122 0.880791
C4    C     C_R   0.422022 0.925843 0.487888 0.859062
C5    C     C_R   0.923760 0.576410 0.488332 0.874726
C6    C     C_R   0.073616 0.421244 0.511179 0.874273
C7    C     C_R   0.076061 0.576593 0.511655 0.889487
C8    C     C_R   0.923572 0.423695 0.488270 0.864955
C9    C     C_R   0.534834 0.989595 0.848521 -0.303364
C10   C     C_R   0.464926 0.010348 0.151603 -0.303061
C11   C     C_R   0.035662 0.493681 0.848511 -0.302523
C12   C     C_R   0.964161 0.505807 0.151552 -0.299757
C13   C     C_R   0.482634 0.996449 0.883730 0.076048
C14   C     C_R   0.517084 0.003680 0.116215 0.074420
C15   C     C_R   0.983070 0.495259 0.883716 0.073702
C16   C     C_R   0.016732 0.504723 0.116240 0.074848
C17   C     C_R   0.433443 0.005796 0.831709 0.367351
C18   C     C_R   0.566365 0.994398 0.168072 0.368183
C19   C     C_R   0.933199 0.499915 0.831692 0.368377
C20   C     C_R   0.066683 0.500561 0.168195 0.366677
C21   C     C_R   0.438617 0.006792 0.747129 0.008786
C22   C     C_R   0.561329 0.993322 0.252676 0.019842
C23   C     C_R   0.938221 0.501663 0.747099 0.022620
C24   C     C_R   0.061757 0.498840 0.252807 0.010651
C25   C     C_2   0.479540 0.990181 0.973328 -0.214786
C26   C     C_2   0.520063 0.010058 0.026616 -0.213354
C27   C     C_2   0.980630 0.488265 0.973299 -0.210918
C28   C     C_2   0.019071 0.511740 0.026634 -0.215003
C29   C     C_R   0.368530 0.896213 0.476501 -0.077785
C30   C     C_R   0.632341 0.102677 0.523236 -0.073020
C31   C     C_R   0.602522 0.866862 0.517674 -0.066732
C32   C     C_R   0.373862 0.112423 0.479844 -0.067880
C33   C     C_R   0.884329 0.376142 0.481002 -0.103182
C34   C     C_R   0.114572 0.624633 0.518691 -0.062239
C35   C     C_R   0.102458 0.366588 0.517445 -0.068462
C36   C     C_R   0.874998 0.613827 0.479353 -0.101054
C37   C     C_R   0.322058 0.913151 0.520480 0.096337
C38   C     C_R   0.677415 0.087365 0.475109 0.096622
C39   C     C_R   0.589024 0.823408 0.460358 0.101719
C40   C     C_R   0.359963 0.148677 0.543781 0.086401
C41   C     C_R   0.847497 0.364555 0.543207 0.105600
C42   C     C_R   0.153230 0.634660 0.458622 0.087902
C43   C     C_R   0.090373 0.323894 0.458347 0.099428
C44   C     C_R   0.862554 0.651910 0.542042 0.095545
C45   C     C_R   0.270503 0.885859 0.505062 -0.227378
C46   C     C_R   0.729343 0.114137 0.489321 -0.236622
C47   C     C_R   0.614778 0.770483 0.470925 -0.240274
C48   C     C_R   0.307643 0.175368 0.539775 -0.241061
C49   C     C_R   0.818256 0.313301 0.541109 -0.209446
C50   C     C_R   0.183249 0.685249 0.460417 -0.245682
C51   C     C_R   0.115251 0.270599 0.469172 -0.233895
C52   C     C_R   0.810856 0.680189 0.536849 -0.205338
C53   C     C_R   0.264900 0.842171 0.447043 0.123163
C54   C     C_R   0.736624 0.155644 0.550209 0.158074
C55   C     C_R   0.653702 0.760682 0.537070 0.149683
C56   C     C_R   0.268742 0.165945 0.473098 0.158544
C57   C     C_R   0.825374 0.273729 0.478285 0.127747
C58   C     C_R   0.175205 0.725946 0.521283 0.154584
C59   C     C_R   0.152630 0.259734 0.536750 0.162866
C60   C     C_R   0.771701 0.670676 0.470448 0.119438
C61   C     C_R   0.310491 0.828039 0.398815 0.147628
C62   C     C_R   0.693166 0.167803 0.602338 0.141412
C63   C     C_R   0.664134 0.802610 0.597368 0.142553
C64   C     C_R   0.283589 0.132002 0.407070 0.135729
C65   C     C_R   0.858454 0.287622 0.412722 0.124149
C66   C     C_R   0.139614 0.714509 0.584688 0.133968
C67   C     C_R   0.162226 0.301120 0.598119 0.143937
C68   C     C_R   0.785911 0.635362 0.405440 0.121526
C69   C     C_R   0.361900 0.855573 0.414320 -0.257985
C70   C     C_R   0.641072 0.140878 0.588404 -0.283651
C71   C     C_R   0.638281 0.855710 0.586991 -0.278135
C72   C     C_R   0.336342 0.105335 0.411016 -0.289402
C73   C     C_R   0.887508 0.338824 0.414468 -0.241030
C74   C     C_R   0.109049 0.663772 0.582543 -0.290918
C75   C     C_R   0.136625 0.354391 0.588023 -0.277903
C76   C     C_R   0.837421 0.607048 0.410533 -0.223521
C77   C     C_2   0.215959 0.805037 0.449786 -0.240727
C78   C     C_2   0.785026 0.193590 0.549163 -0.213519
C79   C     C_2   0.691022 0.711379 0.535260 -0.201679
C80   C     C_2   0.215102 0.196709 0.468901 -0.221650
C81   C     C_2   0.794752 0.219952 0.478927 -0.249263
C82   C     C_2   0.207184 0.778767 0.520367 -0.176687
C83   C     C_2   0.188566 0.209227 0.536631 -0.236168
C84   C     C_2   0.717952 0.701184 0.467158 -0.236923
C85   C     C_R   0.537497 0.991842 0.763958 -0.021286
C86   C     C_R   0.462407 0.008036 0.236189 -0.020779
C87   C     C_R   0.038063 0.496391 0.763946 -0.024757
C88   C     C_R   0.961865 0.503095 0.236134 -0.020444
H1    H     H_    0.426554 0.018895 0.114471 0.157837
H2    H     H_    0.573130 0.980966 0.885784 0.158119
H3    H     H_    0.925131 0.510451 0.114384 0.159208
H4    H     H_    0.074609 0.488670 0.885771 0.158348
H5    H     H_    0.606775 0.150850 0.626912 0.158786
H6    H     H_    0.397340 0.844221 0.378707 0.158146
H7    H     H_    0.347065 0.077048 0.361983 0.154797
H8    H     H_    0.646700 0.888762 0.632244 0.148260
H9    H     H_    0.079419 0.655822 0.629068 0.164410
H10   H     H_    0.914473 0.348197 0.365111 0.175710
H11   H     H_    0.846985 0.577783 0.362048 0.168515
H12   H     H_    0.144265 0.386854 0.634382 0.150386
H13   H     H_    0.229264 0.792312 0.577170 0.161100
H14   H     H_    0.774383 0.205384 0.421484 0.161482
H15   H     H_    0.704408 0.721587 0.409767 0.158732
H16   H     H_    0.202522 0.190319 0.594940 0.177658
H17   H     H_    0.804348 0.208615 0.607044 0.176304
H18   H     H_    0.193590 0.791672 0.393211 0.151878
H19   H     H_    0.201856 0.215854 0.410457 0.180050
H20   H     H_    0.705449 0.691637 0.592778 0.165019
H21   H     H_    0.763735 0.104271 0.450922 0.143491
H22   H     H_    0.235001 0.896975 0.540686 0.149935
H23   H     H_    0.298019 0.204270 0.588577 0.141427
H24   H     H_    0.605972 0.737253 0.426084 0.140346
H25   H     H_    0.213199 0.692537 0.414130 0.145416
H26   H     H_    0.789522 0.304533 0.588473 0.136170
H27   H     H_    0.801401 0.710145 0.584455 0.153150
H28   H     H_    0.106676 0.237790 0.423620 0.142413
H29   H     H_    0.577486 0.986134 0.736534 0.142279
H30   H     H_    0.422447 0.013604 0.263751 0.138153
H31   H     H_    0.078374 0.494508 0.736478 0.141861
H32   H     H_    0.921564 0.504590 0.263682 0.141284
H33   H     H_    0.598344 0.986774 0.293446 0.163334
H34   H     H_    0.401663 0.013347 0.706203 0.162585
H35   H     H_    0.099227 0.496384 0.293743 0.163192
H36   H     H_    0.900809 0.504529 0.706101 0.160664
H37   H     H_    0.556295 0.031846 0.004022 0.163140
H38   H     H_    0.443292 0.968405 0.995894 0.162376
H39   H     H_    0.053002 0.537106 0.004062 0.161455
H40   H     H_    0.946669 0.462906 0.995791 0.163597
N1    N     N_R   0.489810 0.000000 0.715580 -0.128180
N2    N     N_R   0.510190 0.000000 0.284420 -0.127791
N3    N     N_R   0.989810 0.500000 0.715580 -0.129729
N4    N     N_R   0.010190 0.500000 0.284420 -0.128865
O1    O     O_R   0.445750 0.057890 0.422600 -0.624730
O2    O     O_R   0.554250 0.942110 0.577400 -0.621758
O3    O     O_R   0.554250 0.057890 0.577400 -0.617078
O4    O     O_R   0.445750 0.942110 0.422600 -0.624270
O5    O     O_R   0.945750 0.557890 0.422600 -0.625339
O6    O     O_R   0.054250 0.442110 0.577400 -0.619871
O7    O     O_R   0.054250 0.557890 0.577400 -0.627854
O8    O     O_R   0.945750 0.442110 0.422600 -0.629811
O9    O     O_R   0.439220 0.057900 0.561040 -0.598604
O10   O     O_R   0.560780 0.942100 0.438960 -0.599111
O11   O     O_R   0.560780 0.057900 0.438960 -0.587285
O12   O     O_R   0.439220 0.942100 0.561040 -0.586708
O13   O     O_R   0.939220 0.557900 0.561040 -0.593019
O14   O     O_R   0.060780 0.442100 0.438960 -0.591949
O15   O     O_R   0.060780 0.557900 0.438960 -0.590014
O16   O     O_R   0.939220 0.442100 0.561040 -0.585240
Zn1   Zn    Zn3+2 0.504350 0.000000 0.407560 0.953422
Zn2   Zn    Zn3+2 0.495650 0.000000 0.592440 0.955802
Zn3   Zn    Zn3+2 0.004350 0.500000 0.407560 0.952537
Zn4   Zn    Zn3+2 0.995650 0.500000 0.592440 0.956358
N5    N     N_3   0.327150 0.958464 0.579492 -0.429948
H41   H     H_    0.290264 0.962326 0.610961 0.183528
H42   H     H_    0.331273 0.996352 0.547110 0.176714
N6    N     N_3   0.670611 0.044162 0.413102 -0.429326
H43   H     H_    0.706502 0.041443 0.379207 0.184063
H44   H     H_    0.667187 0.005180 0.442988 0.176519
N7    N     N_3   0.548475 0.832780 0.392785 -0.420547
H45   H     H_    0.546999 0.797938 0.353021 0.174580
H46   H     H_    0.508708 0.835600 0.416755 0.177476
N8    N     N_3   0.398993 0.158759 0.612526 -0.441779
H47   H     H_    0.406890 0.202416 0.616085 0.179490
H48   H     H_    0.379642 0.146732 0.665586 0.194448
N9    N     N_3   0.839985 0.404715 0.608012 -0.426606
H49   H     H_    0.813171 0.388366 0.650613 0.185189
H50   H     H_    0.819771 0.440430 0.581915 0.176366
N10   N     N_3   0.162309 0.593556 0.396043 -0.444036
H51   H     H_    0.205047 0.582402 0.399872 0.184988
H52   H     H_    0.153306 0.612806 0.339191 0.196659
N11   N     N_3   0.051735 0.334225 0.388887 -0.418898
H53   H     H_    0.051421 0.300037 0.348000 0.178992
H54   H     H_    0.011355 0.336413 0.410768 0.182070
N12   N     N_3   0.902355 0.661566 0.610415 -0.429702
H55   H     H_    0.885555 0.689287 0.652647 0.180923
H56   H     H_    0.937394 0.681964 0.588104 0.175368
N13   N     N_3   0.307782 0.783958 0.337686 -0.461013
H57   H     H_    0.268596 0.764073 0.332404 0.171150
H58   H     H_    0.313275 0.803183 0.281149 0.180661
N14   N     N_3   0.701087 0.209866 0.665725 -0.470214
H59   H     H_    0.701055 0.249674 0.637410 0.178225
H60   H     H_    0.666989 0.209729 0.703349 0.185827
N15   N     N_3   0.703549 0.792166 0.665909 -0.472449
H61   H     H_    0.685277 0.762205 0.703277 0.176081
H62   H     H_    0.709582 0.828943 0.701237 0.183955
N16   N     N_3   0.244572 0.123921 0.337399 -0.466826
H63   H     H_    0.210734 0.100082 0.356827 0.184086
H64   H     H_    0.263138 0.099804 0.292486 0.182356
N17   N     N_3   0.864921 0.249664 0.345392 -0.466933
H65   H     H_    0.879740 0.210636 0.368473 0.190428
H66   H     H_    0.825349 0.243390 0.315223 0.182477
N18   N     N_3   0.132939 0.755440 0.648641 -0.458401
H67   H     H_    0.170423 0.755740 0.685584 0.175174
H68   H     H_    0.101107 0.742741 0.686136 0.182756
N19   N     N_3   0.200037 0.289797 0.668183 -0.469768
H69   H     H_    0.241085 0.289667 0.648269 0.175094
H70   H     H_    0.198271 0.322661 0.711011 0.185192
N20   N     N_3   0.748022 0.625962 0.335252 -0.466297
H71   H     H_    0.709649 0.611213 0.355224 0.190410
H72   H     H_    0.740840 0.664771 0.305356 0.181460
O17   O     O_3   0.380395 0.014590 0.859815 -0.782272
H73   H     H_    0.383709 0.023642 0.918901 0.333979
O18   O     O_3   0.619383 0.985740 0.139780 -0.779542
H74   H     H_    0.615992 0.976651 0.080705 0.334013
O19   O     O_3   0.879573 0.503308 0.859810 -0.779563
H75   H     H_    0.882022 0.512435 0.918887 0.334400
O20   O     O_3   0.120309 0.497646 0.139987 -0.780812
H76   H     H_    0.117893 0.488192 0.081014 0.334740

loop_
_geom_bond_atom_site_label_1
_geom_bond_atom_site_label_2
_ccdc_geom_bond_type
C16   C28   S    
N11   H53   S    
C61   N13   S    
N9    H49   S    
O17   H73   S    
C14   C18   A    
C12   H3    S    
C19   C23   A    
C34   C42   A    
C38   N6    S    
C25   H38   S    
C44   N12   S    
C77   H18   S    
O4    Zn1   S    
C67   C75   A    
C65   C73   A    
C32   C72   A    
O19   H75   S    
N4    Zn3   S    
C76   H11   S    
C15   C19   A    
C65   N17   S    
N11   H54   S    
C80   H19   S    
C62   C70   A    
C2    O2    A    
C78   H17   S    
O10   Zn1   S    
C55   C63   A    
N6    H43   S    
C59   C83   S    
N15   H62   S    
C62   N14   S    
C79   C84   D    
C6    O14   A    
C1    O1    A    
C47   H24   S    
O2    Zn2   S    
C5    C36   S    
O7    Zn4   S    
C49   C57   A    
C6    C35   S    
C30   C38   A    
C68   N20   S    
C87   N3    A    
C21   H34   S    
N17   H66   S    
C9    C13   A    
N12   H55   S    
O12   Zn2   S    
C36   C76   A    
C59   C67   A    
C72   H7    S    
C53   C61   A    
C11   H4    S    
C58   C66   A    
C3    O11   A    
C12   C16   A    
C10   H1    S    
C11   C87   A    
N13   H58   S    
C41   N9    S    
C56   C64   A    
N20   H71   S    
C88   H32   S    
C52   C60   A    
C7    O15   A    
C4    C29   S    
C28   H39   S    
C4    O4    A    
C9    C85   A    
C44   C52   A    
C31   C71   A    
C49   H26   S    
C47   C55   A    
C45   C53   A    
N9    H50   S    
C22   N2    A    
C13   C25   S    
N3    Zn4   S    
C8    O16   A    
C11   C15   A    
C80   C83   D    
C67   N19   S    
C41   C49   A    
C30   C70   A    
C42   N10   S    
O9    Zn2   S    
C74   H9    S    
C29   C69   A    
C81   H14   S    
C73   H10   S    
C63   N15   S    
C83   H16   S    
C12   C88   A    
O20   H76   S    
C50   C58   A    
C37   N5    S    
C70   H5    S    
C5    O13   A    
C58   C82   S    
C69   H6    S    
C10   C14   A    
O1    Zn1   S    
C43   N11   S    
C45   H22   S    
C86   N2    A    
C71   H8    S    
C54   C62   A    
O6    Zn4   S    
C25   C26   D    
C24   H35   S    
C17   C21   A    
N19   H69   S    
C66   N18   S    
C2    C31   S    
C26   H37   S    
N18   H68   S    
C6    O6    A    
C3    C30   S    
O15   Zn3   S    
N15   H61   S    
C40   N8    S    
C85   N1    A    
C55   C79   S    
C27   H40   S    
C24   N4    A    
C15   C27   S    
N7    H45   S    
C42   C50   A    
C16   C20   A    
C35   C75   A    
C46   C54   A    
N2    Zn1   S    
C87   H31   S    
C23   N3    A    
C86   H30   S    
C14   C26   S    
C17   O17   S    
O8    Zn3   S    
C21   N1    A    
C18   O18   S    
C34   C74   A    
C33   C73   A    
N10   H51   S    
C63   C71   A    
O18   H74   S    
C53   C77   S    
C2    O10   A    
C7    C34   S    
C57   C81   S    
C36   C44   A    
C85   H29   S    
N5    H42   S    
C1    C32   S    
N16   H64   S    
C32   C40   A    
C35   C43   A    
N14   H59   S    
C22   H33   S    
C39   C47   A    
N8    H47   S    
C52   H27   S    
C61   C69   A    
C48   C56   A    
C40   C48   A    
C10   C86   A    
N14   H60   S    
C39   N7    S    
C18   C22   A    
O16   Zn4   S    
C57   C65   A    
C9    H2    S    
C4    O12   A    
C5    O5    A    
C23   H36   S    
C68   C76   A    
O3    Zn2   S    
C51   H28   S    
C56   C80   S    
C13   C17   A    
C8    O8    A    
C50   H25   S    
C33   C41   A    
N18   H67   S    
N6    H44   S    
N7    H46   S    
N5    H41   S    
N1    Zn2   S    
N8    H48   S    
C7    O7    A    
C60   C84   S    
C78   C81   D    
C43   C51   A    
C77   C82   D    
N10   H52   S    
C75   H12   S    
C82   H13   S    
C31   C39   A    
C79   H20   S    
C3    O3    A    
C8    C33   S    
C64   C72   A    
N17   H65   S    
N12   H56   S    
C38   C46   A    
O13   Zn4   S    
C1    O9    A    
O14   Zn3   S    
O11   Zn1   S    
C48   H23   S    
C51   C59   A    
C60   C68   A    
N13   H57   S    
C46   H21   S    
C29   C37   A    
C27   C28   D    
C19   O19   S    
C84   H15   S    
C88   N4    A    
O5    Zn3   S    
N20   H72   S    
C20   O20   S    
C54   C78   S    
N16   H63   S    
C37   C45   A    
C20   C24   A    
C64   N16   S    
N19   H70   S    
C66   C74   A    
