data_mof_unit_37597.cif
_audit_creation_date              2012-12-10T18:05:10-0500
_audit_creation_method            fapswitch 2.2
_symmetry_space_group_name_H-M    P1
_symmetry_Int_Tables_number       1
_space_group_crystal_system       triclinic
_cell_length_a                    9.507463
_cell_length_b                    10.834194
_cell_length_c                    17.127114
_cell_angle_alpha                 89.42077
_cell_angle_beta                  93.86298
_cell_angle_gamma                 90.008838
_cell_volume                      1760.09194021

loop_
_atom_site_label
_atom_site_type_symbol
_atom_type_description
_atom_site_fract_x
_atom_site_fract_y
_atom_site_fract_z
_atom_type_partial_charge
C1    C     C_R   0.499960 0.262038 0.500034 0.788478
C2    C     C_R   0.500035 0.737965 0.499927 0.792449
C3    C     C_R   0.372190 0.936125 0.499991 -0.182139
C4    C     C_R   0.627791 0.063887 0.499864 -0.184254
C5    C     C_R   0.500012 0.871801 0.499886 -0.018393
C6    C     C_R   0.499974 0.128209 0.500001 -0.018891
C7    C     C_R   0.080700 0.428024 0.551903 -0.025588
C8    C     C_R   0.919296 0.571921 0.448068 -0.028110
C9    C     C_R   0.931790 0.428060 0.551883 -0.026406
C10   C     C_R   0.068204 0.571888 0.448091 -0.027012
C11   C     C_R   0.517269 0.498869 0.650934 0.826889
C12   C     C_R   0.482721 0.501133 0.349121 0.826947
C13   C     C_R   0.525184 0.500225 0.736729 -0.088076
C14   C     C_R   0.474858 0.496877 0.263498 -0.096606
C15   C     C_R   0.400433 0.495280 0.775834 -0.321347
C16   C     C_R   0.597298 0.516835 0.223997 -0.294795
C17   C     C_R   0.403857 0.496119 0.857545 0.446968
C18   C     C_R   0.596052 0.503860 0.143181 0.466519
C19   C     C_R   0.535394 0.509189 0.900727 0.290372
C20   C     C_R   0.466977 0.476882 0.099996 0.268997
C21   C     C_R   0.659299 0.516299 0.861290 -0.262082
C22   C     C_R   0.345068 0.457534 0.139885 -0.247286
C23   C     C_R   0.654986 0.509935 0.780016 -0.221418
C24   C     C_R   0.348408 0.467619 0.220980 -0.230372
C25   C     C_R   0.372174 0.063818 0.500065 -0.185886
C26   C     C_R   0.627808 0.936194 0.499789 -0.182995
Cu1   Cu    Cu3+1 0.640660 0.500020 0.500000 0.941007
Cu2   Cu    Cu3+1 0.359340 0.499980 0.500000 0.941575
H1    H     H_    0.695493 0.541051 0.255922 0.166692
H2    H     H_    0.299027 0.492490 0.743038 0.169306
H3    H     H_    0.759842 0.526820 0.894098 0.164812
H4    H     H_    0.246611 0.435260 0.107644 0.168936
H5    H     H_    0.752772 0.515031 0.751151 0.170088
H6    H     H_    0.252667 0.451175 0.250355 0.170830
H7    H     H_    0.272247 0.111821 0.500181 0.149518
H8    H     H_    0.727734 0.888193 0.499669 0.150260
H9    H     H_    0.272270 0.888070 0.500036 0.150412
H10   H     H_    0.727711 0.111943 0.499816 0.149743
H11   H     H_    0.141868 0.370240 0.593380 0.113847
H12   H     H_    0.858125 0.629677 0.406579 0.117957
H13   H     H_    0.880588 0.370307 0.593341 0.116709
H14   H     H_    0.119404 0.629619 0.406622 0.120550
N1    N     N_2   0.548331 0.520135 0.983198 -0.185147
N2    N     N_2   0.454391 0.465932 0.017399 -0.219326
N3    N     N_R   0.852070 0.500030 0.499980 -0.156576
N4    N     N_R   0.147930 0.499970 0.500020 -0.156662
O1    O     O_R   0.618740 0.319660 0.500000 -0.587861
O2    O     O_R   0.381260 0.680340 0.500000 -0.586755
O3    O     O_R   0.381170 0.319630 0.500010 -0.589031
O4    O     O_R   0.618830 0.680370 0.499990 -0.587579
O5    O     O_R   0.631780 0.498870 0.613920 -0.586960
O6    O     O_R   0.368220 0.501130 0.386080 -0.586514
O7    O     O_R   0.394210 0.498840 0.613930 -0.587402
O8    O     O_R   0.605790 0.501160 0.386070 -0.589284
O9    O     O_3   0.720608 0.522249 0.107346 -0.599553
C27   C     C_3   0.789295 0.407731 0.098554 0.073348
H15   H     H_    0.837081 0.410702 0.041273 0.171393
H16   H     H_    0.716808 0.326403 0.096812 0.124026
C28   C     C_3   0.907442 0.390079 0.163059 -0.375326
H17   H     H_    0.980393 0.470264 0.162887 0.227407
H18   H     H_    0.861855 0.384799 0.220995 0.216110
C29   C     C_3   0.990534 0.271975 0.151336 -0.919176
H19   H     H_    0.920051 0.190336 0.152860 0.264231
H20   H     H_    0.075187 0.262088 0.198907 0.257949
H21   H     H_    0.039834 0.275161 0.094430 0.257908
O10   O     O_3   0.278447 0.499718 0.894167 -0.589404
C30   C     C_3   0.211643 0.383242 0.887764 0.062215
H22   H     H_    0.274215 0.313099 0.923147 0.151420
H23   H     H_    0.198678 0.351909 0.825944 0.123580
C31   C     C_3   0.065129 0.392777 0.918592 -0.325211
H24   H     H_    0.074871 0.420717 0.980952 0.219657
H25   H     H_    0.003850 0.464747 0.884477 0.221414
C32   C     C_3   0.986297 0.270207 0.911241 -0.947663
H26   H     H_    0.975439 0.241114 0.849121 0.260697
H27   H     H_    0.879126 0.280516 0.932299 0.253543
H28   H     H_    0.043569 0.197600 0.946885 0.262327

loop_
_geom_bond_atom_site_label_1
_geom_bond_atom_site_label_2
_ccdc_geom_bond_type
O9    C27   S    
C9    N3    A    
C10   H14   S    
C11   C13   S    
C32   H26   S    
Cu1   O8    S    
C21   H3    S    
Cu2   N4    S    
C17   O10   S    
C22   H4    S    
C19   C21   A    
C6    C25   A    
C27   H15   S    
C13   C23   A    
C15   C17   A    
C14   C24   A    
C8    N3    A    
C29   H20   S    
C2    O4    A    
C20   N2    S    
Cu1   O5    S    
C23   H5    S    
C10   N4    A    
C31   H24   S    
C14   C16   A    
C11   O7    A    
Cu1   O4    S    
Cu1   N3    S    
O10   C30   S    
C28   H17   S    
C32   H27   S    
C12   O6    A    
C19   N1    S    
C28   H18   S    
C1    C6    S    
C7    N4    A    
C3    C25   A    
C4    C6    A    
C1    O1    A    
C2    O2    A    
C16   H1    S    
C24   H6    S    
C30   H22   S    
C30   H23   S    
N1    N2    D    
C29   H19   S    
Cu2   O3    S    
C31   C32   S    
C18   O9    S    
C25   H7    S    
C26   H8    S    
C20   C22   A    
C13   C15   A    
C32   H28   S    
C22   C24   A    
C2    C5    S    
C15   H2    S    
Cu1   O1    S    
C7    C9    A    
Cu2   O2    S    
C28   C29   S    
C29   H21   S    
C8    C10   A    
C12   C14   S    
C3    C5    A    
C4    C26   A    
Cu2   O7    S    
C9    H13   S    
C27   C28   S    
C30   C31   S    
C21   C23   A    
Cu2   O6    S    
C17   C19   A    
C27   H16   S    
C18   C20   A    
C11   O5    A    
C5    C26   A    
C3    H9    S    
C16   C18   A    
Cu1   Cu2   S    
C7    H11   S    
C31   H25   S    
C8    H12   S    
C4    H10   S    
C1    O3    A    
C12   O8    A    
