data_mof_unit_56114.cif
_audit_creation_date              2013-03-05T15:54:48-0500
_audit_creation_method            fapswitch 2.2
_symmetry_space_group_name_H-M    P1
_symmetry_Int_Tables_number       1
_space_group_crystal_system       triclinic
_cell_length_a                    19.071588
_cell_length_b                    10.776962
_cell_length_c                    9.892907
_cell_angle_alpha                 86.682542
_cell_angle_beta                  89.852593
_cell_angle_gamma                 92.461157
_cell_volume                      2028.0206293

loop_
_atom_site_label
_atom_site_type_symbol
_atom_site_description
_atom_site_fract_x
_atom_site_fract_y
_atom_site_fract_z
_atom_type_partial_charge
O1    O     O_R   0.500000 0.316780 0.614690 -0.642510
O2    O     O_R   0.499990 0.316750 0.385360 -0.637175
C1    C     C_R   0.500022 0.259294 0.504699 0.875128
O3    O     O_R   0.398140 0.500000 0.614700 -0.644612
O4    O     O_R   0.398130 0.499970 0.385370 -0.638258
C2    C     C_R   0.365235 0.496971 0.500216 0.830666
Zn1   Zn    Zn3+2 0.500000 0.500020 0.653130 0.928186
Zn2   Zn    Zn3+2 0.500000 0.499980 0.346870 0.937758
O5    O     O_R   0.500010 0.683250 0.614640 -0.613781
O6    O     O_R   0.500000 0.683220 0.385310 -0.605021
O7    O     O_R   0.601870 0.500030 0.614630 -0.618066
O8    O     O_R   0.601860 0.500000 0.385300 -0.619146
C3    C     C_R   0.497016 0.739552 0.495782 0.878836
C4    C     C_R   0.634657 0.498297 0.499930 0.877887
C5    C     C_R   0.252641 0.452668 0.622792 -0.216558
H1    H     H_    0.279103 0.456581 0.719116 0.160101
C6    C     C_R   0.181211 0.422223 0.621978 -0.168106
H2    H     H_    0.154015 0.405427 0.717952 0.145756
C7    C     C_R   0.145284 0.417402 0.498676 0.093747
C8    C     C_R   0.181935 0.441682 0.376349 -0.143103
H3    H     H_    0.155396 0.439386 0.279827 0.146864
C9    C     C_R   0.253353 0.471133 0.377186 -0.186988
H4    H     H_    0.280399 0.488893 0.281189 0.158735
C10   C     C_R   0.289192 0.476807 0.500391 -0.029962
N1    N     N_R   0.032956 0.426407 0.382415 -0.185524
N2    N     N_R   0.963590 0.430649 0.384990 -0.185980
C11   C     C_R   0.927746 0.409456 0.503092 0.289847
N3    N     N_R   0.963440 0.377927 0.617360 -0.146197
N4    N     N_R   0.032893 0.374042 0.614925 -0.183260
C12   C     C_R   0.068940 0.400566 0.497816 0.271267
C13   C     C_R   0.818988 0.465537 0.626154 0.130934
C14   C     C_R   0.747666 0.490185 0.621681 -0.232548
H5    H     H_    0.721636 0.516474 0.712559 0.146595
C15   C     C_R   0.710073 0.481918 0.500907 -0.060398
C16   C     C_R   0.743848 0.449076 0.383371 -0.200761
H6    H     H_    0.715605 0.440963 0.289200 0.161343
C17   C     C_R   0.814281 0.423063 0.386727 -0.208011
H7    H     H_    0.838910 0.396708 0.294460 0.157498
C18   C     C_R   0.852460 0.430381 0.507240 0.072704
H8    H     H_    0.556415 0.131718 0.322147 0.177780
C19   C     C_R   0.449341 0.089197 0.747112 -0.206346
H9    H     H_    0.470328 0.174897 0.783187 0.180010
C20   C     C_R   0.409349 0.012030 0.839777 0.149624
C21   C     C_R   0.383630 0.896206 0.801631 -0.190623
H10   H     H_    0.349859 0.837361 0.868817 0.138555
C22   C     C_R   0.404820 0.852475 0.679512 -0.187283
H11   H     H_    0.385074 0.761036 0.654365 0.161894
C23   C     C_R   0.452643 0.923809 0.593725 0.081003
C24   C     C_R   0.467405 0.048884 0.618295 0.059718
C25   C     C_R   0.501142 0.125314 0.513431 -0.130848
C26   C     C_R   0.529640 0.073286 0.401053 -0.256215
C27   C     C_R   0.525605 0.947045 0.388363 -0.035923
C28   C     C_R   0.488452 0.871418 0.487358 -0.167811
H12   H     H_    0.592391 0.611691 0.118355 0.165371
C29   C     C_R   0.397936 0.355256 0.149319 -0.226467
H13   H     H_    0.400662 0.339797 0.255916 0.207479
C30   C     C_R   0.342229 0.294567 0.084883 0.030109
C31   C     C_R   0.340990 0.299899 0.943841 -0.218501
H14   H     H_    0.300856 0.247874 0.890877 0.161870
C32   C     C_R   0.395963 0.359845 0.869890 -0.213030
H15   H     H_    0.398081 0.341719 0.765300 0.206902
C33   C     C_R   0.448454 0.431555 0.932361 0.159478
C34   C     C_R   0.448844 0.430641 0.076721 0.158239
N5    N     N_R   0.499340 0.498800 0.142780 -0.118453
C35   C     C_R   0.550787 0.561918 0.067439 -0.116289
H16   H     H_    0.591677 0.614277 0.866764 0.141907
C36   C     C_R   0.550569 0.562626 0.924092 -0.120582
N6    N     N_R   0.499320 0.498720 0.857170 -0.117864
N7    N     N_3   0.395421 0.052596 0.972207 -0.457172
H17   H     H_    0.443509 0.069361 0.019671 0.188229
H18   H     H_    0.367888 0.982804 0.031046 0.176820
C37   C     C_R   0.560062 0.901179 0.268023 0.162854
C38   C     C_R   0.633566 0.900744 0.260528 -0.165009
C39   C     C_R   0.666613 0.878390 0.138469 -0.143123
C40   C     C_R   0.626562 0.858919 0.022833 -0.145038
C41   C     C_R   0.553335 0.858592 0.029988 -0.161627
C42   C     C_R   0.520104 0.877870 0.152672 -0.116537
H19   H     H_    0.665131 0.920905 0.348105 0.129179
H20   H     H_    0.723302 0.878615 0.132848 0.136375
H21   H     H_    0.652192 0.843173 0.927980 0.129996
H22   H     H_    0.522381 0.842625 0.940627 0.160476
H23   H     H_    0.463418 0.878254 0.157237 0.119340
C43   C     C_R   0.287383 0.220781 0.165238 0.137625
C44   C     C_R   0.305350 0.146492 0.280897 -0.168485
C45   C     C_R   0.253241 0.080893 0.358721 -0.125555
C46   C     C_R   0.182829 0.087933 0.321791 -0.097912
C47   C     C_R   0.164423 0.160037 0.206479 -0.132797
C48   C     C_R   0.216323 0.226044 0.128332 -0.169064
H24   H     H_    0.359637 0.138112 0.310621 0.127616
H25   H     H_    0.267532 0.024422 0.447663 0.135678
H26   H     H_    0.142528 0.037354 0.382402 0.129134
H27   H     H_    0.109812 0.165636 0.178187 0.138779
H28   H     H_    0.200809 0.283300 0.040816 0.121916
N8    N     N_3   0.857532 0.479915 0.749379 -0.442921
H29   H     H_    0.823574 0.493792 0.829784 0.173702
H30   H     H_    0.889518 0.560950 0.735575 0.185928

loop_
_geom_bond_atom_site_label_1
_geom_bond_atom_site_label_2
_geom_bond_distance
_ccdc_geom_bond_type
C29   H13   1.059823 S    
C19   H9    1.071319 S    
C7    C8    1.401727 A    
C20   C21   1.394253 A    
H12   C35   1.080631 S    
C45   C46   1.396639 A    
C21   H10   1.082923 S    
Zn1   O7    1.978835 S    
N2    C11   1.355057 A    
N4    C12   1.355463 A    
N3    N4    1.327224 A    
C16   C17   1.384050 A    
C46   H26   1.082241 S    
O4    C2    1.294539 A    
O7    C4    1.295662 A    
C31   C32   1.391014 A    
C5    H1    1.081598 S    
C32   C33   1.404769 A    
C15   C16   1.398425 A    
C38   C39   1.398625 A    
N7    H18   1.045994 S    
O5    C3    1.294138 A    
C37   C42   1.402586 A    
Zn1   N6    2.017790 S    
C22   H11   1.082484 S    
C13   C14   1.397393 A    
C11   C18   1.463786 S    
C35   C36   1.417715 A    
C29   C34   1.406990 A    
C38   H19   1.083276 S    
C30   C43   1.486427 S    
C40   H21   1.082351 S    
C43   C48   1.407107 A    
C20   N7    1.432677 S    
C47   H27   1.082451 S    
C19   C20   1.402648 A    
N8    H29   1.045909 S    
O3    Zn1   1.980440 S    
C19   C24   1.416384 A    
C1    C25   1.442568 S    
C21   C22   1.387341 A    
C25   C26   1.393186 A    
C3    C28   1.435090 S    
C23   C28   1.410915 A    
C22   C23   1.415411 A    
C39   C40   1.398096 A    
C26   C27   1.372381 A    
C41   C42   1.398011 A    
O3    C2    1.297610 A    
C46   C47   1.396889 A    
C31   H14   1.083509 S    
C36   N6    1.366099 A    
C32   H15   1.065010 S    
O1    C1    1.282914 A    
C16   H6    1.083350 S    
C14   C15   1.400276 A    
C40   C41   1.398007 A    
C17   H7    1.083390 S    
C27   C37   1.478339 S    
C43   C44   1.409662 A    
Zn2   O8    1.980438 S    
C2    C10   1.457175 S    
C33   C34   1.427648 A    
C6    H2    1.082944 S    
C44   C45   1.397468 A    
N8    H30   1.045695 S    
Zn2   N5    2.019887 S    
C5    C10   1.401251 A    
C8    C9    1.385367 A    
C39   H20   1.082338 S    
C29   C30   1.398190 A    
C9    C10   1.402089 A    
C44   H24   1.083078 S    
C13   N8    1.437753 S    
C27   C28   1.407094 A    
N1    C12   1.354822 A    
C5    C6    1.387613 A    
C48   H28   1.083071 S    
C23   C24   1.400331 A    
O1    Zn1   2.032548 S    
O2    Zn2   1.989277 S    
O8    C4    1.296077 A    
C37   C38   1.403828 A    
O6    C3    1.282831 A    
C41   H22   1.082210 S    
C4    C15   1.456584 S    
O4    Zn2   1.978839 S    
C45   H25   1.082763 S    
H8    C26   1.086329 S    
C33   N6    1.375509 A    
C14   H5    1.083639 S    
O2    C1    1.301031 A    
N1    N2    1.325894 A    
C17   C18   1.402930 A    
N5    C35   1.364255 A    
C30   C31   1.393479 A    
C42   H23   1.082123 S    
C6    C7    1.403109 A    
C13   C18   1.415441 A    
H16   C36   1.081601 S    
N7    H17   1.045016 S    
C34   N5    1.375543 A    
Zn1   O5    1.989280 S    
C8    H3    1.082933 S    
C47   C48   1.398345 A    
Zn2   O6    2.032547 S    
C24   C25   1.421547 A    
C11   N3    1.355048 A    
C9    H4    1.082854 S    
C7    C12   1.459617 S    
