data_mof_unit_10755.cif
_audit_creation_date              2012-12-11T16:56:09-0500
_audit_creation_method            fapswitch 2.2
_symmetry_space_group_name_H-M    P1
_symmetry_Int_Tables_number       1
_space_group_crystal_system       triclinic
_cell_length_a                    6.957117
_cell_length_b                    14.534513
_cell_length_c                    16.1954
_cell_angle_alpha                 90.440784
_cell_angle_beta                  90.01969
_cell_angle_gamma                 90.024352
_cell_volume                      1637.60272911

loop_
_atom_site_label
_atom_site_type_symbol
_atom_type_description
_atom_site_fract_x
_atom_site_fract_y
_atom_site_fract_z
_atom_type_partial_charge
O1    O     O_R   0.505830 0.583360 0.413880 -0.541041
O2    O     O_R   0.175830 0.595460 0.585520 -0.547461
O3    O     O_R   0.005520 0.416640 0.586120 -0.535501
C1    C     C_R   0.344688 0.617411 0.614456 0.682546
O4    O     O_R   0.176120 0.594390 0.414490 -0.548136
O5    O     O_R   0.005810 0.415570 0.413870 -0.518263
C2    C     C_R   0.344941 0.616271 0.385924 0.681597
O6    O     O_R   0.505540 0.584430 0.586130 -0.541170
O7    O     O_3   0.339200 0.441330 0.500000 -0.339958
V1    V     V_3+5 0.064350 0.510880 0.500000 1.429246
O8    O     O_R   0.676100 0.404540 0.414480 -0.540139
C3    C     C_R   0.845150 0.382347 0.385890 0.708053
O9    O     O_R   0.675810 0.405610 0.585510 -0.539169
C4    C     C_R   0.845026 0.383700 0.613634 0.750380
V2    V     V_3+5 0.564340 0.489120 0.500000 1.444161
O10   O     O_3   0.839360 0.558670 0.500000 -0.383600
C5    C     C_2   0.720977 0.208763 0.785918 -0.131540
C6    C     C_2   0.885640 0.181749 0.822558 -0.313941
H1    H     H_    0.585454 0.179982 0.806736 0.137480
H2    H     H_    0.022832 0.209833 0.803833 0.128206
C7    C     C_2   0.708596 0.277254 0.717952 -0.137326
C8    C     C_2   0.861561 0.315431 0.680436 -0.303828
H3    H     H_    0.564998 0.296201 0.697999 0.138612
H4    H     H_    0.006300 0.297133 0.698499 0.132057
C9    C     C_R   0.734884 0.177705 0.245948 0.077452
C10   C     C_R   0.883038 0.180462 0.187460 -0.093056
C11   C     C_R   0.031085 0.245112 0.200887 -0.191034
H5    H     H_    0.151077 0.248819 0.158612 0.122679
C12   C     C_R   0.019060 0.310042 0.265819 -0.115615
H6    H     H_    0.130417 0.361708 0.271491 0.118749
C13   C     C_R   0.859435 0.311787 0.319614 -0.091873
C14   C     C_R   0.723804 0.241183 0.310569 0.023305
C15   C     C_3   0.509713 0.244546 0.306179 -0.169360
C16   C     C_3   0.522002 0.175123 0.235109 -0.463035
H7    H     H_    0.455244 0.313241 0.287586 0.140283
H8    H     H_    0.477343 0.204017 0.174761 0.173615
H9    H     H_    0.461375 0.106060 0.248799 0.158021
C17   C     C_R   0.507705 0.681572 0.741426 0.103614
C18   C     C_R   0.353103 0.682149 0.685858 -0.110407
C19   C     C_R   0.201450 0.743570 0.702989 -0.179402
H10   H     H_    0.078774 0.746489 0.662206 0.132413
C20   C     C_R   0.212704 0.806424 0.769634 -0.174928
H11   H     H_    0.097794 0.855635 0.778167 0.128433
C21   C     C_R   0.376268 0.810095 0.821120 -0.112439
C22   C     C_R   0.519335 0.744044 0.807116 0.101576
C23   C     C_3   0.729981 0.756817 0.795481 -0.408957
C24   C     C_3   0.717481 0.688414 0.724267 -0.400177
H12   H     H_    0.814460 0.730908 0.848721 0.175502
H13   H     H_    0.765710 0.827779 0.775528 0.167528
H14   H     H_    0.794018 0.622783 0.736479 0.167792
H15   H     H_    0.746750 0.719457 0.663027 0.168935
C25   C     C_R   0.507647 0.681412 0.260273 0.098968
C26   C     C_R   0.353070 0.681369 0.315773 -0.111000
C27   C     C_R   0.201607 0.743178 0.300225 -0.179476
H16   H     H_    0.079047 0.745697 0.341102 0.132481
C28   C     C_R   0.212974 0.806940 0.235207 -0.177704
H17   H     H_    0.098175 0.856319 0.227823 0.128035
C29   C     C_R   0.376484 0.811131 0.183886 -0.112965
C30   C     C_R   0.519340 0.744764 0.196179 0.102626
C31   C     C_3   0.730051 0.757252 0.208168 -0.407395
C32   C     C_3   0.717460 0.687858 0.277637 -0.401103
H18   H     H_    0.765982 0.827902 0.229908 0.166157
H19   H     H_    0.814429 0.732059 0.154296 0.175274
H20   H     H_    0.746931 0.718013 0.339644 0.169695
H21   H     H_    0.793787 0.622360 0.263771 0.164700
O11   O     O_R   0.229930 0.912420 0.917160 -0.539634
O12   O     O_R   0.559420 0.902500 0.088780 -0.539262
O13   O     O_R   0.729660 0.081330 0.089380 -0.536211
C33   C     C_R   0.390375 0.880826 0.117551 0.695915
O14   O     O_R   0.559650 0.901420 0.917750 -0.539451
O15   O     O_R   0.729880 0.080250 0.917130 -0.537355
C34   C     C_R   0.390533 0.879582 0.888695 0.696835
O16   O     O_R   0.229700 0.913500 0.089410 -0.539156
O17   O     O_3   0.396250 0.055540 0.003280 -0.370930
V3    V     V_3+5 0.671130 0.986010 0.003260 1.398621
O18   O     O_R   0.059600 0.091310 0.917720 -0.545270
C35   C     C_R   0.890902 0.113182 0.889530 0.740715
O19   O     O_R   0.059370 0.092380 0.088750 -0.544064
C36   C     C_R   0.890646 0.114526 0.117336 0.695497
V4    V     V_3+5 0.171120 0.007820 0.003230 1.391003
O20   O     O_3   0.896130 0.938240 0.003240 -0.370096
C37   C     C_2   0.418422 0.206211 0.382626 0.424351
H22   H     H_    0.463056 0.139838 0.406251 0.033131
O21   O     O_2   0.293761 0.249515 0.418857 -0.523809

loop_
_geom_bond_atom_site_label_1
_geom_bond_atom_site_label_2
_ccdc_geom_bond_type
C11   C12   A    
C16   H9    S    
C1    O6    A    
C26   C27   A    
C21   C22   A    
O13   V3    S    
C23   H13   S    
C10   C11   A    
C31   H19   S    
C25   C32   S    
O5    C3    A    
C17   C18   A    
O19   V4    S    
V2    O10   S    
C28   H17   S    
C31   H18   S    
C17   C22   A    
C15   H7    S    
C27   H16   S    
O8    V2    S    
O11   C34   A    
C33   O16   A    
O1    V2    S    
C15   C37   S    
C6    H2    S    
C9    C16   S    
C9    C14   A    
C19   C20   A    
C30   C31   S    
O17   V4    S    
O9    C4    A    
C20   C21   A    
C5    C6    D    
C24   H14   S    
C23   H12   S    
C27   C28   A    
O17   V3    S    
O18   C35   A    
C18   C19   A    
O4    C2    A    
O19   C36   A    
V3    O20   S    
C24   H15   S    
C29   C30   A    
C22   C23   S    
C5    C7    S    
C31   C32   S    
O12   C33   A    
C32   H20   S    
O2    C1    A    
C12   H6    S    
C25   C30   A    
C13   C14   A    
C1    C18   S    
C15   C16   S    
C17   C24   S    
O3    C4    A    
C19   H10   S    
O6    V2    S    
C37   O21   D    
O9    V2    S    
C3    C13   S    
C8    H4    S    
O12   V3    S    
C20   H11   S    
C2    C26   S    
O2    V1    S    
O15   C35   A    
C25   C26   A    
O7    V1    S    
C23   C24   S    
O1    C2    A    
O18   V4    S    
V4    O20   S    
O5    V1    S    
O8    C3    A    
C29   C33   S    
O11   V4    S    
C10   C36   S    
C14   C15   S    
C4    C8    S    
C7    H3    S    
C9    C10   A    
O4    V1    S    
C12   C13   A    
O3    V1    S    
V1    O10   S    
O15   V3    S    
O13   C36   A    
C6    C35   S    
C5    H1    S    
O16   V4    S    
C28   C29   A    
C21   C34   S    
C16   H8    S    
O7    V2    S    
C32   H21   S    
C37   H22   S    
O14   V3    S    
O14   C34   A    
C7    C8    D    
C11   H5    S    
