data_mof_unit_65455.cif
_audit_creation_date              2012-12-10T16:50:12-0500
_audit_creation_method            fapswitch 2.2
_symmetry_space_group_name_H-M    P1
_symmetry_Int_Tables_number       1
_space_group_crystal_system       triclinic
_cell_length_a                    21.965003
_cell_length_b                    21.933174
_cell_length_c                    22.129736
_cell_angle_alpha                 60.117383
_cell_angle_beta                  118.343699
_cell_angle_gamma                 89.435208
_cell_volume                      7699.88148833

loop_
_atom_site_label
_atom_site_type_symbol
_atom_type_description
_atom_site_fract_x
_atom_site_fract_y
_atom_site_fract_z
_atom_type_partial_charge
C1    C     C_R   0.614405 0.502409 0.494234 0.842183
C2    C     C_3   0.289944 0.709461 0.082965 -0.103554
C3    C     C_3   0.189944 0.727552 0.974304 -0.229771
C4    C     C_3   0.206151 0.792155 0.917093 -0.060066
C5    C     C_3   0.209555 0.757244 0.029342 0.370317
C6    C     C_3   0.224673 0.821871 0.971454 0.319882
C7    C     C_1   0.336385 0.663592 0.174656 0.140635
C8    C     C_1   0.160327 0.837542 0.825421 0.097641
C9    C     C_2   0.759075 0.561256 0.450544 -0.223588
C10   C     C_2   0.820597 0.501923 0.509368 0.123225
C11   C     C_2   0.695599 0.564957 0.457166 -0.148502
C12   C     C_R   0.419801 0.580432 0.339677 0.820830
C13   C     C_2   0.673856 0.505243 0.481765 -0.316910
C14   C     C_3   0.713638 0.213149 0.030411 -0.151804
C15   C     C_3   0.693108 0.298690 0.973241 -0.153417
C16   C     C_1   0.625645 0.373992 0.750328 -0.161579
C17   C     C_1   0.876695 0.124899 0.249669 -0.160497
C18   C     C_3   0.730161 0.205294 0.973433 -0.151739
C19   C     C_3   0.710315 0.290159 0.917629 0.179498
C20   C     C_3   0.810663 0.199599 0.026736 -0.152471
C21   C     C_3   0.793436 0.208147 0.082326 0.178927
C22   C     C_3   0.790112 0.285170 0.969526 -0.153686
C23   C     C_R   0.385551 0.497048 0.505699 0.848382
C24   C     C_3   0.773587 0.293013 0.026516 -0.154102
C25   C     C_1   0.663848 0.336049 0.825804 -0.062338
C26   C     C_1   0.839403 0.162460 0.174168 -0.061715
C27   C     C_2   0.238904 0.514397 0.546994 -0.227042
C28   C     C_2   0.179110 0.511378 0.490320 0.128509
C29   C     C_2   0.302111 0.524930 0.540023 -0.162937
C30   C     C_2   0.326147 0.488048 0.518234 -0.316925
C31   C     C_R   0.001680 0.881156 0.502579 0.838891
C32   C     C_R   0.079542 0.919781 0.660301 0.818806
C33   C     C_R   0.998329 0.118704 0.497431 0.850802
C34   C     C_R   0.580257 0.419511 0.660427 0.816874
C35   C     C_R   0.920408 0.080105 0.339603 0.816706
C36   C     C_R   0.997671 0.617985 0.499355 0.838922
C37   C     C_R   0.883019 0.501000 0.501510 0.808387
C38   C     C_R   0.002318 0.382009 0.500648 0.844008
C39   C     C_R   0.116909 0.502572 0.498429 0.808851
C40   C     C_2   0.993256 0.688981 0.555301 -0.154340
C41   C     C_2   0.991542 0.686113 0.495458 -0.309269
C42   C     C_2   0.983196 0.759868 0.547114 -0.151573
C43   C     C_2   0.007248 0.812141 0.508213 -0.307924
C44   C     C_2   0.007190 0.310785 0.445074 -0.157909
C45   C     C_3   0.287009 0.744451 0.969999 -0.227673
C46   C     C_2   0.008346 0.313852 0.504567 -0.307242
C47   C     C_2   0.017202 0.239856 0.453300 -0.150718
C48   C     C_2   0.992777 0.187748 0.491797 -0.293050
C49   C     C_3   0.305069 0.773889 0.025062 0.368215
C50   C     C_1   0.374524 0.625801 0.249992 -0.101179
C51   C     C_1   0.123138 0.875041 0.750042 -0.130050
C52   C     C_3   0.271483 0.679308 0.028595 -0.250675
Cu1   Cu    Cu3+1 0.500050 0.438990 0.500010 0.975275
Cu2   Cu    Cu3+1 0.499950 0.561010 0.499990 0.997089
Cu3   Cu    Cu3+1 0.061010 0.999870 0.499990 0.982543
Cu4   Cu    Cu3+1 0.938990 0.999980 0.500010 0.985042
Cu5   Cu    Cu3+1 0.958560 0.541440 0.417120 0.976222
Cu6   Cu    Cu3+1 0.041440 0.458560 0.582880 0.972099
H1    H     H_    0.699398 0.456437 0.490355 0.184551
H2    H     H_    0.644279 0.339893 0.950341 0.138793
H3    H     H_    0.682618 0.183066 0.056365 0.142219
H4    H     H_    0.791919 0.328655 0.049255 0.137797
H5    H     H_    0.821118 0.315262 0.943554 0.138313
H6    H     H_    0.859496 0.158388 0.049655 0.142017
H7    H     H_    0.711824 0.169656 0.950691 0.142496
H8    H     H_    0.240889 0.510871 0.598673 0.149889
H9    H     H_    0.329727 0.560835 0.555126 0.176953
H10   H     H_    0.318925 0.739765 0.944984 0.190013
H11   H     H_    0.302488 0.446619 0.511991 0.184687
H12   H     H_    0.998055 0.639754 0.608649 0.165396
H13   H     H_    0.978626 0.736739 0.437788 0.158355
H14   H     H_    0.959563 0.767271 0.577353 0.165875
H15   H     H_    0.038138 0.801374 0.486165 0.157214
H16   H     H_    0.002945 0.359867 0.392037 0.162413
H17   H     H_    0.020779 0.263336 0.562048 0.165848
H18   H     H_    0.041148 0.232293 0.423402 0.163870
H19   H     H_    0.961648 0.198660 0.513537 0.158734
H20   H     H_    0.141867 0.708962 0.952849 0.188328
H21   H     H_    0.291135 0.620185 0.052809 0.185848
H22   H     H_    0.755812 0.609107 0.397331 0.158546
H23   H     H_    0.665957 0.616932 0.439653 0.182577
O1    O     O_R   0.589060 0.448490 0.499990 -0.587928
O2    O     O_R   0.948460 0.910940 0.500030 -0.579406
O3    O     O_R   0.111980 0.939430 0.620910 -0.572726
O4    O     O_R   0.008930 0.939520 0.620930 -0.574846
O5    O     O_R   0.051540 0.088910 0.499970 -0.575907
O6    O     O_R   0.948490 0.089000 0.499990 -0.582204
O7    O     O_R   0.991070 0.060330 0.379070 -0.583483
O8    O     O_R   0.888020 0.060420 0.379090 -0.577813
O9    O     O_R   0.964940 0.624010 0.430000 -0.585765
O10   O     O_R   0.034920 0.554020 0.569980 -0.583750
O11   O     O_R   0.875990 0.534990 0.430030 -0.599703
O12   O     O_R   0.588980 0.551530 0.499980 -0.578623
O13   O     O_R   0.945970 0.465000 0.570010 -0.562109
O14   O     O_R   0.965080 0.445980 0.430020 -0.578817
O15   O     O_R   0.035060 0.375990 0.570000 -0.579864
O16   O     O_R   0.054030 0.535000 0.429990 -0.559713
O17   O     O_R   0.124010 0.465010 0.569970 -0.601351
O18   O     O_R   0.439580 0.508940 0.379080 -0.585335
O19   O     O_R   0.439510 0.611990 0.379070 -0.557121
O20   O     O_R   0.411020 0.448470 0.500020 -0.587757
O21   O     O_R   0.410940 0.551510 0.500010 -0.576298
O22   O     O_R   0.560490 0.388010 0.620930 -0.580142
O23   O     O_R   0.560420 0.491060 0.620920 -0.582932
O24   O     O_R   0.051510 0.910850 0.500010 -0.585684
S1    S     S_3+6 0.382822 0.802902 0.059817 0.054035
O25   O     O_2   0.383234 0.827433 0.112402 -0.232076
O26   O     O_2   0.451063 0.739015 0.111017 -0.298073
O27   O     O_3   0.379027 0.873777 0.976366 -0.483520
H24   H     H_    0.422408 0.888234 0.000100 0.375902
N1    N     N_2   0.167766 0.531793 0.412433 -0.416048
H25   H     H_    0.192198 0.567577 0.387693 0.285388
C53   C     C_3   0.149422 0.480966 0.388030 -0.629900
H26   H     H_    0.193677 0.459866 0.385442 0.217475
H27   H     H_    0.097906 0.510861 0.325005 0.245292
H28   H     H_    0.142064 0.432663 0.432681 0.207248
S2    S     S_3+6 0.192652 0.917145 0.931578 0.091245
O28   O     O_2   0.218455 0.962603 0.876488 -0.251978
O29   O     O_2   0.110555 0.943769 0.881396 -0.252691
O30   O     O_3   0.225446 0.925918 0.011620 -0.444943
H29   H     H_    0.205686 0.979681 0.985006 0.373085
S3    S     S_3+6 0.158404 0.763744 0.069978 0.051881
O31   O     O_2   0.157252 0.687744 0.124338 -0.302252
O32   O     O_2   0.193557 0.794331 0.120989 -0.233053
O33   O     O_3   0.072475 0.820285 0.990278 -0.484532
H30   H     H_    0.048017 0.822932 0.017107 0.375583
N2    N     N_2   0.832814 0.445391 0.588379 -0.425440
H31   H     H_    0.807048 0.457741 0.611435 0.268823
C54   C     C_3   0.853636 0.368731 0.616339 -0.639042
H32   H     H_    0.810323 0.344754 0.620330 0.212705
H33   H     H_    0.905264 0.336393 0.679375 0.242669
H34   H     H_    0.861911 0.363468 0.573103 0.216247

loop_
_geom_bond_atom_site_label_1
_geom_bond_atom_site_label_2
_ccdc_geom_bond_type
C43   H15   S    
C21   C26   S    
Cu5   O11   S    
C27   C29   S    
C15   H2    S    
C14   C18   S    
C2    C7    S    
Cu6   O17   S    
C4    C8    S    
Cu5   Cu6   S    
Cu1   Cu2   S    
C11   H23   S    
C18   H7    S    
C15   C19   S    
C31   C43   S    
Cu3   O24   S    
C10   C37   S    
C17   C26   T    
C14   C21   S    
Cu2   O23   S    
Cu1   O22   S    
C47   H18   S    
C53   H26   S    
S2    O29   D    
C5    C6    S    
C39   O16   A    
C23   O21   A    
S1    O25   D    
C31   O2    A    
C18   C19   S    
Cu3   O7    S    
Cu6   O15   S    
C12   O18   A    
C16   C34   S    
C22   H5    S    
C29   H9    S    
N1    H25   S    
Cu1   O20   S    
Cu2   O12   S    
C38   O14   A    
C52   H21   S    
Cu6   O10   S    
C6    S2    S    
C44   C47   S    
C41   H13   S    
C53   H28   S    
C40   C42   S    
C31   O24   A    
Cu2   O19   S    
C36   C41   S    
C45   H10   S    
C46   H17   S    
C44   C46   D    
C4    C45   S    
C28   N1    S    
C32   O3    A    
C38   C46   S    
Cu5   O9    S    
C23   C30   S    
C10   N2    S    
C19   C22   S    
C4    C6    S    
S2    O30   S    
Cu4   O6    S    
C45   C52   S    
C1    O1    A    
C14   H3    S    
C5    S3    S    
Cu1   O18   S    
Cu1   O1    S    
C9    H22   S    
C48   H19   S    
C20   H6    S    
C33   O5    A    
N2    C54   S    
C32   C51   S    
C29   C30   D    
C2    C49   S    
C35   O7    A    
C47   C48   D    
C45   C49   S    
Cu5   O16   S    
Cu3   Cu4   S    
C42   H14   S    
N1    C53   S    
C44   H16   S    
C9    C11   S    
C8    C51   T    
C2    C52   S    
C35   O8    A    
C36   O10   A    
C40   C41   D    
C20   C22   S    
O33   H30   S    
C22   C24   S    
C2    C5    S    
C1    C13   S    
C42   C43   D    
S3    O32   D    
N2    H31   S    
C30   H11   S    
O30   H29   S    
Cu4   O2    S    
C54   H32   S    
C9    C10   D    
C36   O9    A    
C16   C25   T    
Cu4   O8    S    
C15   C24   S    
C24   H4    S    
C37   O11   A    
Cu2   O21   S    
C39   O17   A    
C7    C50   T    
C3    C5    S    
C12   C50   S    
C3    C52   S    
C49   S1    S    
C13   H1    S    
C40   H12   S    
C34   O22   A    
C28   C39   S    
C54   H34   S    
Cu3   O5    S    
Cu6   O13   S    
C27   H8    S    
S2    O28   D    
C11   C13   D    
Cu4   O4    S    
C23   O20   A    
S1    O26   D    
S3    O33   S    
C32   O4    A    
C37   O13   A    
C18   C20   S    
C6    C49   S    
C33   O6    A    
C19   C25   S    
C34   O23   A    
C12   O19   A    
C20   C21   S    
C1    O12   A    
Cu5   O14   S    
C21   C24   S    
C38   O15   A    
C27   C28   D    
C33   C48   S    
C14   C15   S    
C17   C35   S    
C54   H33   S    
S3    O31   D    
O27   H24   S    
C3    H20   S    
Cu3   O3    S    
C3    C4    S    
C53   H27   S    
S1    O27   S    
