data_mof_unit_45205.cif
_audit_creation_date              2012-12-10T17:40:56-0500
_audit_creation_method            fapswitch 2.2
_symmetry_space_group_name_H-M    P1
_symmetry_Int_Tables_number       1
_space_group_crystal_system       triclinic
_cell_length_a                    15.06448
_cell_length_b                    13.894233
_cell_length_c                    11.685723
_cell_angle_alpha                 90.022574
_cell_angle_beta                  87.30934
_cell_angle_gamma                 90.322081
_cell_volume                      2443.19644932

loop_
_atom_site_label
_atom_site_type_symbol
_atom_type_description
_atom_site_fract_x
_atom_site_fract_y
_atom_site_fract_z
_atom_type_partial_charge
C1    C     C_R   0.329176 0.499546 0.500755 0.904651
C2    C     C_R   0.553808 0.206672 0.422112 0.511543
C3    C     C_R   0.552174 0.793884 0.420550 0.509781
C4    C     C_R   0.445945 0.206136 0.577572 0.522080
C5    C     C_R   0.548972 0.896617 0.414297 -0.187363
C6    C     C_R   0.447773 0.103036 0.583277 -0.178730
C7    C     C_R   0.452556 0.896275 0.586823 -0.193717
C8    C     C_R   0.553078 0.103534 0.417383 -0.185922
C9    C     C_R   0.500590 0.948250 0.500405 -0.103336
C10   C     C_R   0.500492 0.051716 0.500360 -0.106001
C11   C     C_R   0.593023 0.949489 0.324867 0.421918
C12   C     C_R   0.670807 0.500422 0.499353 0.905504
C13   C     C_R   0.399811 0.049247 0.669858 0.406070
C14   C     C_R   0.409583 0.948775 0.677090 0.418030
C15   C     C_R   0.602302 0.050096 0.331968 0.399659
C16   C     C_R   0.500044 0.499989 0.284223 0.845405
C17   C     C_R   0.499998 0.500029 0.715774 0.844974
C18   C     C_1   0.500100 0.499992 0.162478 -0.085799
C19   C     C_1   0.499963 0.500097 0.837518 -0.085609
C20   C     C_1   0.500080 0.500051 0.059922 0.040055
C21   C     C_1   0.499992 0.500109 0.940073 0.040195
C22   C     C_R   0.816379 0.459319 0.407059 0.441613
C23   C     C_R   0.909279 0.450826 0.412352 -0.107570
C24   C     C_R   0.183662 0.539730 0.594109 0.448039
C25   C     C_R   0.767482 0.502699 0.497952 -0.252256
C26   C     C_R   0.232467 0.497015 0.502650 -0.255958
C27   C     C_R   0.810085 0.549773 0.586255 0.344077
C28   C     C_R   0.189725 0.449540 0.414742 0.341019
C29   C     C_R   0.903658 0.556961 0.581630 -0.077534
C30   C     C_R   0.096203 0.441734 0.420035 -0.078785
C31   C     C_R   0.953174 0.501224 0.499280 -0.126289
C32   C     C_R   0.046708 0.497335 0.502495 -0.127601
C33   C     C_3   0.752387 0.494446 0.239489 -0.185675
C34   C     C_R   0.090642 0.547590 0.589490 -0.109951
C35   C     C_3   0.248614 0.504775 0.761091 -0.189825
C36   C     C_3   0.065218 0.624600 0.858349 -0.153354
C37   C     C_3   0.933919 0.369913 0.144797 -0.175685
C38   C     C_3   0.561917 0.900979 0.145899 -0.188495
C39   C     C_3   0.259201 0.080800 0.738465 -0.108677
C40   C     C_3   0.444824 0.901120 0.854691 -0.189364
C41   C     C_3   0.744152 0.085259 0.270504 -0.079598
C42   C     C_R   0.949469 0.616798 0.657127 0.319557
C43   C     C_R   0.050422 0.381249 0.345229 0.319721
C44   C     C_R   0.041080 0.605928 0.668211 0.433064
C45   C     C_R   0.958728 0.391688 0.334391 0.431088
C46   C     C_R   0.448947 0.793577 0.580403 0.502961
Cl1   Cl    Cl    0.744773 0.582418 0.710701 -0.558445
Cl2   Cl    Cl    0.254614 0.417072 0.289885 -0.548692
Cl3   Cl    Cl    0.899708 0.720243 0.720835 -0.482750
Cl4   Cl    Cl    0.100490 0.277536 0.282600 -0.495528
Cl5   Cl    Cl    0.372650 0.728976 0.670074 -0.467669
Cl6   Cl    Cl    0.624290 0.273784 0.327600 -0.482891
Cl7   Cl    Cl    0.630202 0.729667 0.333333 -0.559959
Cl8   Cl    Cl    0.372015 0.272511 0.668050 -0.575841
Cu1   Cu    Cu3+1 0.500000 0.597420 0.500000 1.081029
Cu2   Cu    Cu3+1 0.500000 0.402580 0.500000 1.089796
H1    H     H_    0.809771 0.543819 0.220724 0.139246
H2    H     H_    0.000130 0.346067 0.110598 0.194202
H3    H     H_    0.929888 0.449809 0.139730 0.110252
H4    H     H_    0.883639 0.339916 0.088058 0.191250
H5    H     H_    0.541842 0.974521 0.120041 0.166167
H6    H     H_    0.502775 0.859039 0.178366 0.146139
H7    H     H_    0.589494 0.863972 0.068078 0.193745
H8    H     H_    0.238416 0.004596 0.751629 0.190217
H9    H     H_    0.242136 0.105312 0.651460 0.157514
H10   H     H_    0.220173 0.124933 0.801689 0.195174
H11   H     H_    0.465598 0.974976 0.879427 0.165074
H12   H     H_    0.694207 0.536226 0.272461 0.170403
H13   H     H_    0.503227 0.859697 0.820208 0.157751
H14   H     H_    0.418956 0.864098 0.933572 0.185704
H15   H     H_    0.766281 0.009322 0.261786 0.174974
H16   H     H_    0.757835 0.113001 0.357434 0.158239
H17   H     H_    0.784604 0.128690 0.207550 0.210375
H18   H     H_    0.734348 0.461317 0.157324 0.194131
H19   H     H_    0.307387 0.464075 0.727994 0.170644
H20   H     H_    0.191901 0.454407 0.779409 0.133332
H21   H     H_    0.266088 0.537858 0.843514 0.194363
H22   H     H_    0.998538 0.647197 0.892277 0.190678
H23   H     H_    0.114768 0.654271 0.916352 0.195266
H24   H     H_    0.070026 0.544695 0.861710 0.098930
N1    N     N_R   0.500000 0.743810 0.500000 -0.262753
N2    N     N_R   0.500000 0.256190 0.500000 -0.261566
O1    O     O_R   0.370260 0.582280 0.500020 -0.532145
O2    O     O_3   0.227649 0.579004 0.684552 -0.491387
O3    O     O_3   0.083868 0.661895 0.747177 -0.483186
O4    O     O_3   0.915710 0.334421 0.256897 -0.503718
O5    O     O_3   0.628057 0.904506 0.227430 -0.522123
O6    O     O_3   0.350494 0.094155 0.757050 -0.529844
O7    O     O_3   0.376754 0.903639 0.775821 -0.521854
O8    O     O_3   0.653606 0.095097 0.246324 -0.535488
O9    O     O_R   0.629740 0.417720 0.499980 -0.536018
O10   O     O_R   0.629740 0.582280 0.499980 -0.526804
O11   O     O_R   0.370260 0.417720 0.500020 -0.529628
O12   O     O_R   0.500010 0.582270 0.337200 -0.566018
O13   O     O_R   0.499990 0.417730 0.662800 -0.552953
O14   O     O_R   0.499990 0.582270 0.662800 -0.529476
O15   O     O_R   0.500010 0.417730 0.337200 -0.515428
O16   O     O_3   0.772549 0.420184 0.316398 -0.500341

loop_
_geom_bond_atom_site_label_1
_geom_bond_atom_site_label_2
_ccdc_geom_bond_type
Cu2   O13   S    
Cu1   Cu2   S    
C23   C45   A    
C29   C42   A    
C27   C29   A    
C12   O9    A    
C39   H8    S    
C35   H19   S    
C40   H14   S    
C22   O16   S    
Cu2   O15   S    
C19   C21   T    
C24   C26   A    
C5    C11   A    
C16   O15   A    
C33   O16   S    
C11   C15   A    
Cu2   O9    S    
C11   O5    S    
C22   C25   A    
C3    N1    A    
C17   O13   A    
C40   O7    S    
Cu1   N1    S    
C9    C10   A    
C37   H2    S    
C41   H15   S    
C38   H5    S    
C41   O8    S    
C13   C14   A    
C39   H9    S    
C42   C44   A    
C39   O6    S    
Cu1   O12   S    
C7    C14   A    
Cu2   O11   S    
C35   H20   S    
C40   H13   S    
C7    C46   A    
C37   O4    S    
C34   C44   A    
C4    C6    A    
C36   H24   S    
C46   Cl5   S    
C35   H21   S    
C24   C34   A    
C32   C34   A    
C14   O7    S    
C5    C9    A    
Cu1   O10   S    
C46   N1    A    
C31   C32   A    
C17   O14   A    
C43   C45   A    
C37   H3    S    
C2    Cl6   S    
C41   H16   S    
C8    C10   A    
C8    C15   A    
C1    C26   S    
C39   H10   S    
C30   C43   A    
C2    N2    A    
C1    O1    A    
Cu1   O1    S    
C44   O3    S    
C40   H11   S    
C38   H7    S    
C27   Cl1   S    
C7    C9    A    
C28   Cl2   S    
C33   H1    S    
C4    Cl8   S    
C26   C28   A    
C12   O10   A    
C16   C18   S    
C2    C8    A    
Cu1   O14   S    
C3    C5    A    
C36   H23   S    
C6    C10   A    
C35   O2    S    
C43   Cl4   S    
Cu2   N2    S    
C36   O3    S    
C25   C27   A    
C38   O5    S    
C16   O12   A    
C12   C25   S    
C28   C30   A    
C45   O4    S    
C24   O2    S    
C29   C31   A    
C36   H22   S    
C6    C13   A    
C30   C32   A    
C3    Cl7   S    
C13   O6    S    
C17   C19   S    
C18   C20   T    
C37   H4    S    
C42   Cl3   S    
C41   H17   S    
C33   H18   S    
C4    N2    A    
C20   C21   S    
C1    O11   A    
C22   C23   A    
C38   H6    S    
C33   H12   S    
C23   C31   A    
C15   O8    S    
