data_mof_unit_26877.cif
_audit_creation_date              2013-03-05T15:59:34-0500
_audit_creation_method            fapswitch 2.2
_symmetry_space_group_name_H-M    P1
_symmetry_Int_Tables_number       1
_space_group_crystal_system       triclinic
_cell_length_a                    12.610739
_cell_length_b                    13.206331
_cell_length_c                    15.732874
_cell_angle_alpha                 90.738468
_cell_angle_beta                  102.815906
_cell_angle_gamma                 82.275183
_cell_volume                      2531.32943227

loop_
_atom_site_label
_atom_site_type_symbol
_atom_site_description
_atom_site_fract_x
_atom_site_fract_y
_atom_site_fract_z
_atom_type_partial_charge
O1    O     O_R   0.366730 0.627160 0.478790 -0.595800
O2    O     O_R   0.544830 0.662520 0.507160 -0.619212
C1    C     C_R   0.439024 0.691171 0.488311 0.869816
O3    O     O_R   0.410960 0.482330 0.609040 -0.593605
O4    O     O_R   0.589060 0.517690 0.637410 -0.604084
C2    C     C_R   0.501053 0.500455 0.661824 0.906564
Zn1   Zn    Zn3+2 0.381080 0.476390 0.481050 0.997713
Zn2   Zn    Zn3+2 0.618920 0.523610 0.518950 0.958240
O5    O     O_R   0.455170 0.337480 0.492840 -0.620555
O6    O     O_R   0.633270 0.372840 0.521210 -0.633237
O7    O     O_R   0.410940 0.482310 0.362590 -0.606003
O8    O     O_R   0.589040 0.517670 0.390960 -0.636027
C3    C     C_R   0.561153 0.309108 0.509441 0.863423
C4    C     C_R   0.498853 0.499804 0.338145 0.874456
C5    C     C_3   0.434079 0.589606 0.018353 -0.270740
C6    C     C_3   0.538456 0.585640 0.982194 0.312809
H1    H     H_    0.382231 0.659146 0.033777 0.192221
H2    H     H_    0.685309 0.501452 0.089077 0.176475
C7    C     C_1   0.502818 0.502224 0.751025 -0.082551
C8    C     C_1   0.496118 0.500427 0.248762 -0.163482
C9    C     C_3   0.397228 0.506141 0.953453 0.315594
C10   C     C_3   0.499766 0.504782 0.916697 -0.028039
C11   C     C_3   0.455748 0.420010 0.018756 -0.178507
C12   C     C_3   0.495764 0.503215 0.082622 0.079967
C13   C     C_3   0.560819 0.419181 0.982215 -0.243727
C14   C     C_3   0.601177 0.501879 0.048350 -0.190399
C15   C     C_1   0.502312 0.503656 0.826218 0.115840
C16   C     C_1   0.495156 0.501554 0.173322 0.016841
H3    H     H_    0.612536 0.349844 0.966258 0.194575
H4    H     H_    0.420123 0.352269 0.035049 0.179026
C17   C     C_R   0.713610 0.059443 0.464437 -0.168681
H5    H     H_    0.752522 0.212655 0.474314 0.155932
H6    H     H_    0.704153 0.874212 0.398113 0.167830
H7    H     H_    0.784125 0.031905 0.437715 0.157345
C18   C     C_R   0.598402 0.200515 0.510058 -0.062340
C19   C     C_R   0.314810 0.832944 0.528828 -0.185484
C20   C     C_R   0.308240 0.926541 0.569460 -0.154049
C21   C     C_R   0.390747 0.988594 0.573548 0.272451
C22   C     C_R   0.470495 0.964723 0.521449 -0.038344
C23   C     C_R   0.475539 0.869478 0.479510 0.056606
C24   C     C_R   0.545832 0.031005 0.509464 0.102479
C25   C     C_R   0.635580 0.995356 0.471138 0.158710
C26   C     C_R   0.640051 0.900354 0.432311 -0.220272
C27   C     C_R   0.556494 0.841857 0.430778 -0.151464
C28   C     C_R   0.526285 0.135015 0.524001 -0.165610
C29   C     C_R   0.695759 0.162149 0.485214 -0.185694
C30   C     C_R   0.403523 0.800606 0.491006 -0.130088
H8    H     H_    0.449170 0.167890 0.538080 0.185352
H9    H     H_    0.258910 0.780628 0.537302 0.247877
H10   H     H_    0.245848 0.944854 0.606805 0.216965
H11   H     H_    0.557204 0.773180 0.392452 0.166922
C31   C     C_R   0.085636 0.352579 0.374708 -0.274996
H12   H     H_    0.253244 0.333985 0.362794 0.140936
H13   H     H_    0.879625 0.319950 0.355744 0.154551
H14   H     H_    0.063333 0.293715 0.328047 0.156581
N1    N     N_R   0.222180 0.444680 0.455580 -0.119773
C32   C     C_R   0.797692 0.632634 0.599460 -0.025774
C33   C     C_R   0.895120 0.673685 0.609239 -0.253415
C34   C     C_R   0.973343 0.633385 0.562880 0.331653
C35   C     C_R   0.957676 0.542706 0.513934 -0.103061
C36   C     C_R   0.853382 0.508442 0.501775 0.202773
C37   C     C_R   0.038767 0.485326 0.475539 0.012219
C38   C     C_R   0.008689 0.406711 0.416009 0.186175
C39   C     C_R   0.903086 0.380593 0.400220 -0.263714
C40   C     C_R   0.827866 0.428650 0.444586 -0.164843
C41   C     C_R   0.150383 0.497956 0.497422 0.058124
C42   C     C_R   0.192743 0.374200 0.394705 0.028555
N2    N     N_R   0.776980 0.554790 0.543960 -0.132138
H15   H     H_    0.183143 0.547272 0.548791 0.173917
H16   H     H_    0.734804 0.667583 0.631551 0.182063
H17   H     H_    0.905792 0.741752 0.647592 0.206895
H18   H     H_    0.749789 0.401966 0.432599 0.200768
N3    N     N_R   0.584298 0.676323 0.963629 0.228791
O9    O     O_R   0.614692 0.739005 0.025944 -0.351281
O10   O     O_R   0.594745 0.695537 0.885262 -0.357615
N4    N     N_R   0.401129 0.064415 0.640184 0.193106
O11   O     O_R   0.496037 0.069631 0.692272 -0.348979
O12   O     O_R   0.313902 0.117104 0.657725 -0.365880
N5    N     N_R   0.056243 0.694900 0.555130 0.173283
O13   O     O_R   0.103259 0.743921 0.622262 -0.388671
O14   O     O_R   0.068685 0.717964 0.478065 -0.421529
N6    N     N_R   0.285116 0.508125 0.902808 0.229528
O15   O     O_R   0.205166 0.508429 0.942739 -0.348281
O16   O     O_R   0.263968 0.510240 0.818060 -0.354003

loop_
_geom_bond_atom_site_label_1
_geom_bond_atom_site_label_2
_geom_bond_distance
_ccdc_geom_bond_type
C23   C30   1.408532 A    
C17   C25   1.402837 A    
N3    O9    1.300390 A    
H2    C14   1.110464 S    
C22   C24   1.418334 A    
C21   N4    1.437414 S    
Zn1   O7    1.986043 S    
C2    C7    1.398575 S    
C20   C21   1.398733 A    
C19   C20   1.385275 A    
C12   C14   1.539359 S    
C3    C18   1.447297 S    
O4    C2    1.300136 A    
O7    C4    1.300271 A    
C33   H17   1.082940 S    
C41   H15   1.076406 S    
C5    C6    1.540086 S    
C10   C13   1.541840 S    
C19   C30   1.395841 A    
C35   C37   1.427852 A    
C24   C25   1.420700 A    
O5    C3    1.306886 A    
C17   C29   1.391539 A    
C11   C12   1.538626 S    
C32   H16   1.081713 S    
C7    C15   1.184322 T    
C31   H14   1.083880 S    
C34   C35   1.427751 A    
C9    C10   1.527102 S    
C13   H3    1.110416 S    
N3    O10   1.300380 A    
Zn1   N1    2.053381 S    
O3    Zn1   1.967279 S    
C6    C14   1.536815 S    
C37   C41   1.405077 A    
C6    N3    1.457318 S    
H6    C26   1.084100 S    
C11   H4    1.110362 S    
C4    C8    1.399097 S    
N4    O11   1.301690 A    
O3    C2    1.298900 A    
C34   N5    1.433588 S    
C22   C23   1.413251 A    
N5    O14   1.301604 A    
C8    C16   1.184527 T    
C33   C34   1.398692 A    
C31   C38   1.398620 A    
C38   C39   1.388776 A    
C35   C36   1.420326 A    
O1    C1    1.308267 A    
C26   C27   1.383746 A    
C37   C38   1.422027 A    
C23   C27   1.415294 A    
Zn2   O8    1.967277 S    
C17   H7    1.083855 S    
C31   C42   1.384827 A    
C27   H11   1.082757 S    
C5    C12   1.539934 S    
O8    C4    1.299021 A    
Zn2   N2    2.041072 S    
N6    O16   1.300342 A    
C10   C15   1.430795 S    
C9    C11   1.536916 S    
C25   C26   1.388139 A    
C32   N2    1.354760 A    
N1    C42   1.354105 A    
C28   H8    1.078368 S    
Zn1   O5    1.934901 S    
C6    C10   1.526050 S    
O1    Zn1   1.975012 S    
H5    C29   1.082809 S    
O2    Zn2   1.934901 S    
C12   C16   1.429153 S    
N4    O12   1.301653 A    
O6    C3    1.302625 A    
O4    Zn2   1.986042 S    
C5    H1    1.110407 S    
C40   H18   1.066951 S    
C39   C40   1.382139 A    
O2    C1    1.305011 A    
C13   C14   1.555511 S    
C20   H10   1.083074 S    
C36   N2    1.363126 A    
C32   C33   1.385709 A    
C21   C22   1.434027 A    
H13   C39   1.084413 S    
N1    C41   1.352542 A    
C1    C30   1.457338 S    
C11   C13   1.555689 S    
H12   C42   1.081829 S    
N5    O13   1.301510 A    
C36   C40   1.400627 A    
C5    C9    1.540039 S    
C9    N6    1.457822 S    
Zn2   O6    1.975011 S    
N6    O15   1.300412 A    
C24   C28   1.387690 A    
C18   C29   1.399064 A    
C19   H9    1.080307 S    
C18   C28   1.388652 A    
