data_mof_unit_44368.cif
_audit_creation_date              2012-12-10T18:54:28-0500
_audit_creation_method            fapswitch 2.2
_symmetry_space_group_name_H-M    P1
_symmetry_Int_Tables_number       1
_space_group_crystal_system       triclinic
_cell_length_a                    10.623637
_cell_length_b                    9.830114
_cell_length_c                    23.429034
_cell_angle_alpha                 90.34659
_cell_angle_beta                  89.965757
_cell_angle_gamma                 89.901258
_cell_volume                      2446.6817846

loop_
_atom_site_label
_atom_site_type_symbol
_atom_type_description
_atom_site_fract_x
_atom_site_fract_y
_atom_site_fract_z
_atom_type_partial_charge
Br1   Br    Br    0.632280 0.231739 0.328374 -0.528004
Br2   Br    Br    0.367846 0.768314 0.671646 -0.528000
C1    C     C_R   0.260520 0.500086 0.499777 0.911372
C2    C     C_R   0.547588 0.388116 0.701323 -0.267014
C3    C     C_R   0.451165 0.615810 0.239535 -0.087415
C4    C     C_R   0.548936 0.384194 0.760460 -0.087437
C5    C     C_R   0.500861 0.507108 0.208304 0.257028
C6    C     C_R   0.499304 0.492918 0.791696 0.257059
C7    C     C_R   0.065841 0.490802 0.552980 0.096841
C8    C     C_R   0.934165 0.509228 0.447026 0.096866
C9    C     C_R   0.934385 0.489186 0.553033 0.103370
C10   C     C_R   0.065620 0.510852 0.446973 0.103378
C11   C     C_R   0.872012 0.499355 0.500083 -0.135137
C12   C     C_R   0.739482 0.499916 0.500226 0.911347
C13   C     C_R   0.127993 0.500658 0.499921 -0.135112
C14   C     C_R   0.571764 0.072423 0.538158 -0.049174
C15   C     C_R   0.428235 0.927577 0.461842 -0.049185
C16   C     C_R   0.428257 0.071546 0.461837 -0.019248
C17   C     C_R   0.571742 0.928454 0.538163 -0.019244
C18   C     C_R   0.501864 0.499378 0.389291 0.894318
C19   C     C_R   0.498140 0.500622 0.610709 0.894340
C20   C     C_R   0.612017 0.506614 0.880397 0.514437
C21   C     C_R   0.388159 0.493398 0.119602 0.514429
C22   C     C_R   0.388743 0.474705 0.880751 0.515936
C23   C     C_R   0.551803 0.394384 0.235934 -0.126190
C24   C     C_R   0.611434 0.525293 0.119250 0.515923
C25   C     C_R   0.386227 0.478664 0.940313 -0.018778
C26   C     C_R   0.613952 0.521333 0.059688 -0.018773
C27   C     C_R   0.500211 0.497284 0.970037 -0.020360
C28   C     C_R   0.499968 0.502717 0.029964 -0.020362
C29   C     C_R   0.614408 0.510711 0.939974 -0.017696
C30   C     C_R   0.385770 0.489295 0.060026 -0.017692
C31   C     C_R   0.272948 0.465433 0.970636 -0.152709
C32   C     C_R   0.727232 0.534563 0.029365 -0.152709
C33   C     C_R   0.272716 0.470753 0.030016 -0.153500
C34   C     C_R   0.448375 0.605659 0.764073 -0.126211
C35   C     C_R   0.727463 0.529250 0.969985 -0.153499
C36   C     C_3   0.140613 0.485274 0.608776 -0.394336
C37   C     C_3   0.171415 0.339094 0.625781 -0.802232
C38   C     C_3   0.859398 0.514805 0.391230 -0.394311
C39   C     C_3   0.828665 0.661005 0.374235 -0.802223
C40   C     C_3   0.859685 0.477650 0.608752 -0.426808
C41   C     C_3   0.825452 0.617652 0.632857 -0.811729
C42   C     C_3   0.140317 0.522369 0.391253 -0.426814
C43   C     C_3   0.174502 0.382350 0.367154 -0.811770
C44   C     C_R   0.553766 0.388983 0.295156 0.228593
C45   C     C_R   0.446351 0.611047 0.704851 0.228629
C46   C     C_R   0.503122 0.498852 0.327056 -0.118904
C47   C     C_R   0.496927 0.501152 0.672944 -0.118942
C48   C     C_R   0.452458 0.611879 0.298672 -0.266971
H1    H     H_    0.184253 0.451166 0.948633 0.194197
H2    H     H_    0.588326 0.296887 0.782087 0.157589
H3    H     H_    0.629146 0.127402 0.568634 0.124114
H4    H     H_    0.370853 0.872598 0.431366 0.124115
H5    H     H_    0.370994 0.125773 0.431322 0.133613
H6    H     H_    0.629003 0.874227 0.568679 0.133621
H7    H     H_    0.084340 0.278068 0.630509 0.251882
H8    H     H_    0.232259 0.289484 0.593307 0.280374
H9    H     H_    0.222472 0.339537 0.667132 0.266806
H10   H     H_    0.229553 0.543270 0.605329 0.223902
H11   H     H_    0.090331 0.536983 0.644215 0.237198
H12   H     H_    0.815926 0.548828 0.051368 0.194196
H13   H     H_    0.777600 0.660607 0.332885 0.266810
H14   H     H_    0.767852 0.710626 0.406719 0.280368
H15   H     H_    0.915767 0.721991 0.369510 0.251864
H16   H     H_    0.909660 0.463080 0.355789 0.237206
H17   H     H_    0.770430 0.456858 0.394672 0.223881
H18   H     H_    0.911301 0.679179 0.640610 0.263374
H19   H     H_    0.763550 0.673276 0.602898 0.264379
H20   H     H_    0.774524 0.605572 0.673914 0.265944
H21   H     H_    0.772364 0.417759 0.602485 0.199659
H22   H     H_    0.911371 0.419496 0.641577 0.226487
H23   H     H_    0.183892 0.460132 0.052261 0.194229
H24   H     H_    0.236433 0.326744 0.397105 0.264385
H25   H     H_    0.088633 0.320835 0.359431 0.263385
H26   H     H_    0.225382 0.394378 0.326082 0.265953
H27   H     H_    0.088640 0.580525 0.358427 0.226493
H28   H     H_    0.227650 0.582243 0.397515 0.199660
H29   H     H_    0.816287 0.539873 0.947739 0.194227
H30   H     H_    0.590467 0.311034 0.211020 0.173587
H31   H     H_    0.409760 0.689029 0.788990 0.173571
H32   H     H_    0.412614 0.696814 0.322238 0.173474
H33   H     H_    0.587386 0.303163 0.677754 0.173498
H34   H     H_    0.411759 0.703099 0.217900 0.157595
N1    N     N_R   0.500304 0.489548 0.852366 -0.352964
N2    N     N_R   0.499871 0.510464 0.147635 -0.352960
N3    N     N_R   0.500000 0.857200 0.500000 -0.084269
N4    N     N_R   0.500000 0.142800 0.500000 -0.084267
O1    O     O_R   0.316770 0.614620 0.500000 -0.618993
O2    O     O_2   0.280333 0.478710 0.149434 -0.547977
O3    O     O_2   0.280916 0.456348 0.851254 -0.542338
O4    O     O_2   0.719263 0.543642 0.148748 -0.542349
O5    O     O_R   0.683230 0.385380 0.500000 -0.618966
O6    O     O_R   0.683230 0.614620 0.500000 -0.626428
O7    O     O_R   0.316770 0.385380 0.500000 -0.626435
O8    O     O_R   0.499970 0.614690 0.416160 -0.634084
O9    O     O_R   0.500030 0.385310 0.583840 -0.634100
O10   O     O_R   0.500030 0.614690 0.583840 -0.580428
O11   O     O_R   0.499970 0.385310 0.416160 -0.580421
O12   O     O_2   0.719839 0.521311 0.850565 -0.547970
Zn1   Zn    Zn3+2 0.500000 0.653120 0.500000 0.963965
Zn2   Zn    Zn3+2 0.500000 0.346880 0.500000 0.963971

loop_
_geom_bond_atom_site_label_1
_geom_bond_atom_site_label_2
_ccdc_geom_bond_type
C17   H6    S    
C25   C27   A    
C23   H30   S    
C22   C25   A    
C19   C47   S    
C45   C47   A    
C25   C31   A    
C35   H29   S    
C34   C45   A    
C43   H26   S    
C42   H27   S    
C17   N3    A    
C36   C37   S    
Br1   C44   S    
C5    N2    S    
C24   O4    S    
C32   C35   A    
C32   H12   S    
C9    C40   S    
C8    C38   S    
C6    N1    S    
C6    C34   A    
C20   N1    A    
C14   H3    S    
C7    C36   S    
N3    Zn1   S    
O6    Zn1   S    
C2    H33   S    
C41   H18   S    
C38   H17   S    
C22   N1    A    
C12   O5    A    
O9    Zn2   S    
O7    Zn2   S    
C36   H11   S    
C46   C48   A    
C18   O8    A    
C26   C32   A    
C41   H19   S    
C38   H16   S    
C11   C12   S    
C44   C46   A    
C20   O12   S    
C20   C29   A    
C30   C33   A    
C2    C4    A    
C3    C5    A    
C3    H34   S    
C4    C6    A    
C37   H8    S    
C21   N2    A    
C16   N4    A    
C29   C35   A    
C43   H24   S    
C27   C28   A    
C19   O9    A    
C10   C13   A    
C34   H31   S    
C24   N2    A    
C37   H9    S    
C40   H22   S    
C15   C16   A    
C21   O2    S    
C7    C9    A    
C18   C46   S    
C8    C10   A    
C16   H5    S    
C36   H10   S    
C38   C39   S    
C41   H20   S    
C3    C48   A    
C40   C41   S    
C39   H13   S    
C22   O3    S    
C1    C13   S    
C42   C43   S    
C48   H32   S    
C33   H23   S    
O1    Zn1   S    
C15   N3    A    
C8    C11   A    
O5    Zn2   S    
N4    Zn2   S    
Br2   C45   S    
C31   H1    S    
O10   Zn1   S    
C24   C26   A    
C5    C23   A    
C43   H25   S    
C2    C47   A    
C1    O1    A    
C21   C30   A    
C42   H28   S    
C7    C13   A    
C27   C29   A    
C28   C30   A    
C19   O10   A    
C9    C11   A    
C18   O11   A    
C14   C17   A    
C15   H4    S    
C26   C28   A    
C40   H21   S    
C31   C33   A    
C39   H15   S    
O11   Zn2   S    
C10   C42   S    
C14   N4    A    
C1    O7    A    
C39   H14   S    
C4    H2    S    
O8    Zn1   S    
C23   C44   A    
C12   O6    A    
C37   H7    S    
