data_mof_unit_11987.cif
_audit_creation_date              2012-10-26T21:10:27-0400
_audit_creation_method            fapswitch 2.2
_symmetry_space_group_name_H-M    P1
_symmetry_Int_Tables_number       1
_space_group_crystal_system       triclinic
_cell_length_a                    10.8867
_cell_length_b                    10.899246
_cell_length_c                    9.739279
_cell_angle_alpha                 90.959114
_cell_angle_beta                  91.065254
_cell_angle_gamma                 91.486134
_cell_volume                      1154.87204937

loop_
_atom_site_label
_atom_site_type_symbol
_atom_type_description
_atom_site_fract_x
_atom_site_fract_y
_atom_site_fract_z
_atom_type_partial_charge
C1    C     C_R   0.502369 0.265426 0.498873 0.592353
C2    C     C_R   0.787888 0.783714 0.851486 -0.113908
C3    C     C_R   0.777810 0.715817 0.971997 0.231302
C4    C     C_R   0.262289 0.506502 0.497887 0.579879
C5    C     C_R   0.813152 0.593225 0.972206 -0.091297
C6    C     C_R   0.863182 0.539675 0.854366 0.279940
C7    C     C_R   0.880645 0.611196 0.736804 0.105658
C8    C     C_2   0.543483 0.931790 0.395643 -0.153489
C9    C     C_2   0.518062 0.867035 0.507542 -0.156787
C10   C     C_2   0.556562 0.066030 0.400156 0.216961
C11   C     C_2   0.499486 0.132717 0.496335 -0.061733
C12   C     C_R   0.177012 0.448699 0.961887 0.015429
C13   C     C_2   0.466036 0.406042 0.919308 -0.023131
C14   C     C_2   0.457225 0.408880 0.073201 0.345466
C15   C     C_R   0.504572 0.734675 0.501451 0.555530
C16   C     C_R   0.737456 0.500971 0.501567 0.532245
C17   C     C_R   0.205143 0.556392 0.038168 0.316643
C18   C     C_R   0.163163 0.564557 0.174534 -0.068857
C19   C     C_R   0.104990 0.463191 0.235666 0.028600
C20   C     C_R   0.080081 0.356071 0.157354 -0.075424
C21   C     C_R   0.115456 0.349411 0.020776 -0.083687
C22   C     C_3   0.819943 0.840239 0.158755 0.005953
C23   C     C_R   0.929981 0.465243 0.386566 -0.169171
C24   C     C_3   0.882775 0.765458 0.270240 -0.272079
C25   C     C_3   0.978386 0.843033 0.351530 -0.480652
C26   C     C_3   0.796096 0.338817 0.842553 0.016588
C27   C     C_3   0.817170 0.223520 0.925775 -0.269956
C28   C     C_3   0.704834 0.136770 0.917624 -0.450087
C29   C     C_3   0.292104 0.757391 0.046820 0.018138
C30   C     C_3   0.368467 0.845942 0.960569 -0.257151
C31   C     C_3   0.374215 0.974823 0.024065 -0.443008
C32   C     C_R   0.871255 0.504932 0.504309 -0.045647
C33   C     C_R   0.940228 0.559344 0.614375 0.022083
C34   C     C_R   0.067984 0.570948 0.604324 0.196057
C35   C     C_R   0.127770 0.517988 0.491981 0.001269
C36   C     C_R   0.056498 0.476183 0.375999 -0.064555
C37   C     C_R   0.840239 0.732216 0.735030 -0.141508
Cl1   Cl    Cl    0.649932 0.133986 0.274342 -0.663198
Cl2   Cl    Cl    0.380212 0.280286 0.139922 -0.615720
Cl3   Cl    Cl    0.148730 0.675046 0.715998 -0.623086
Cu1   Cu    Cu3+1 0.500020 0.500020 0.638630 0.964047
Cu2   Cu    Cu3+1 0.499980 0.499980 0.361370 1.048642
H1    H     H_    0.206818 0.440045 0.856941 0.178886
H2    H     H_    0.032730 0.278152 0.201904 0.122818
H3    H     H_    0.097406 0.266221 0.960889 0.126534
H4    H     H_    0.876096 0.431416 0.298355 0.157731
H5    H     H_    0.850167 0.786739 0.643718 0.116417
H6    H     H_    0.756934 0.876992 0.848755 0.115181
H7    H     H_    0.773801 0.917831 0.209116 0.201184
H8    H     H_    0.889851 0.882222 0.089908 0.126581
H9    H     H_    0.812438 0.729779 0.341645 0.183684
H10   H     H_    0.928921 0.686544 0.222041 0.164639
H11   H     H_    0.050738 0.878181 0.282307 0.144909
H12   H     H_    0.802378 0.539545 0.063997 0.123200
H13   H     H_    0.022349 0.785977 0.430914 0.174375
H14   H     H_    0.934181 0.921550 0.403308 0.168847
H15   H     H_    0.783230 0.311856 0.732569 0.173787
H16   H     H_    0.709778 0.379946 0.878848 0.145462
H17   H     H_    0.897952 0.174977 0.885872 0.157428
H18   H     H_    0.835811 0.250088 0.035010 0.196676
H19   H     H_    0.622669 0.183446 0.956548 0.198434
H20   H     H_    0.721364 0.055819 0.982280 0.184350
H21   H     H_    0.686715 0.105253 0.809893 0.127930
H22   H     H_    0.341318 0.746495 0.146929 0.139270
H23   H     H_    0.558452 0.885176 0.298167 0.181226
H24   H     H_    0.199674 0.796460 0.062286 0.137426
H25   H     H_    0.463355 0.811615 0.951724 0.178750
H26   H     H_    0.327384 0.850608 0.855555 0.225349
H27   H     H_    0.280532 0.012439 0.029605 0.172086
H28   H     H_    0.431402 0.035961 0.959629 0.172387
H29   H     H_    0.415723 0.973434 0.128854 0.199293
H30   H     H_    0.513753 0.910291 0.608397 0.096731
H31   H     H_    0.444811 0.089842 0.575013 0.047505
H32   H     H_    0.437872 0.321494 0.866146 0.155952
H33   H     H_    0.519948 0.580554 0.896363 0.227831
H34   H     H_    0.546957 0.569323 0.108981 0.199040
H35   H     H_    0.177427 0.647201 0.236374 0.082657
N1    N     N_2   0.498640 0.498660 0.846910 -0.369049
N2    N     N_2   0.498610 0.498630 0.153040 -0.315360
O1    O     O_R   0.500020 0.321960 0.617040 -0.548298
O2    O     O_3   0.900018 0.419161 0.856224 -0.591608
O3    O     O_3   0.280946 0.643573 0.975939 -0.528030
O4    O     O_R   0.499980 0.321920 0.382900 -0.364603
O5    O     O_R   0.319660 0.500030 0.617070 -0.444810
O6    O     O_R   0.319620 0.499990 0.382930 -0.484134
O7    O     O_R   0.500020 0.678080 0.617100 -0.478610
O8    O     O_R   0.499980 0.678040 0.382960 -0.513218
O9    O     O_R   0.680380 0.500010 0.617070 -0.523002
O10   O     O_R   0.680340 0.499970 0.382930 -0.496996
O11   O     O_3   0.728465 0.767503 0.088356 -0.595492

loop_
_geom_bond_atom_site_label_1
_geom_bond_atom_site_label_2
_ccdc_geom_bond_type
C24   H10   S    
Cu1   Cu2   S    
C19   C20   A    
C1    C11   S    
C25   H14   S    
Cu1   O1    S    
Cu1   O7    S    
C26   C27   S    
C3    O11   S    
C34   Cl3   S    
C25   H11   S    
C34   C35   A    
C12   H1    S    
C19   C36   S    
C5    C6    A    
C17   O3    S    
C14   Cl2   S    
C31   H28   S    
C35   C36   A    
C8    C9    D    
C12   C17   A    
C9    H30   S    
C37   H5    S    
C30   H25   S    
C22   H8    S    
C28   H19   S    
C24   H9    S    
C31   H29   S    
C27   H18   S    
C29   H22   S    
C8    H23   S    
C6    O2    S    
C13   C14   S    
C7    C33   S    
C20   H2    S    
C17   C18   A    
C21   H3    S    
C22   O11   S    
C16   O9    A    
Cu2   N2    S    
C5    H12   S    
C24   C25   S    
C11   H31   S    
Cu1   N1    S    
C18   C19   A    
C4    O6    A    
C2    H6    S    
H33   N1    S    
Cu1   O5    S    
C12   C21   A    
C29   C30   S    
C4    O5    A    
C31   H27   S    
C33   C34   A    
C7    C37   A    
Cu2   O6    S    
C14   N2    D    
C13   H32   S    
C26   H16   S    
C15   O7    A    
C26   O2    S    
C22   H7    S    
C22   C24   S    
C16   C32   S    
C15   O8    A    
Cu1   O9    S    
C13   N1    D    
Cu2   O4    S    
C25   H13   S    
C3    C5    A    
C6    C7    A    
C1    O4    A    
C10   Cl1   S    
Cu2   O10   S    
C23   C32   A    
C2    C3    A    
C9    C15   S    
C29   O3    S    
C27   H17   S    
C32   C33   A    
C2    C37   A    
C30   C31   S    
C18   H35   S    
C26   H15   S    
C4    C35   S    
C10   C11   D    
C29   H24   S    
C28   H21   S    
C16   O10   A    
H34   N2    S    
C20   C21   A    
C8    C10   S    
C23   C36   A    
C27   C28   S    
C23   H4    S    
C1    O1    A    
Cu2   O8    S    
C30   H26   S    
C28   H20   S    
