data_mof_unit_49444.cif
_audit_creation_date              2012-12-11T15:59:51-0500
_audit_creation_method            fapswitch 2.2
_symmetry_space_group_name_H-M    P1
_symmetry_Int_Tables_number       1
_space_group_crystal_system       triclinic
_cell_length_a                    10.702571
_cell_length_b                    10.800027
_cell_length_c                    17.044174
_cell_angle_alpha                 99.572747
_cell_angle_beta                  99.668769
_cell_angle_gamma                 60.734083
_cell_volume                      1686.08721945

loop_
_atom_site_label
_atom_site_type_symbol
_atom_type_description
_atom_site_fract_x
_atom_site_fract_y
_atom_site_fract_z
_atom_type_partial_charge
C1    C     C_R   0.356711 0.768826 0.396936 0.547806
C2    C     C_R   0.853973 0.331051 0.333489 -0.003668
C3    C     C_R   0.355726 0.798945 0.151179 0.017666
C4    C     C_R   0.369213 0.346520 0.357603 0.565101
C5    C     C_R   0.467269 0.805902 0.205583 0.011424
C6    C     C_R   0.452994 0.825057 0.288768 -0.004257
C7    C     C_R   0.259381 0.762357 0.257518 -0.129407
C8    C     C_R   0.265248 0.757295 0.176936 0.056025
C9    C     C_R   0.595943 0.786455 0.180517 0.099819
C10   C     C_R   0.699592 0.799311 0.237334 -0.114545
C11   C     C_R   0.673299 0.844053 0.316995 -0.129160
C12   C     C_R   0.844432 0.215686 0.199633 0.019236
C13   C     C_R   0.549476 0.859372 0.342611 -0.075859
C14   C     C_R   0.347604 0.801734 0.314984 -0.023326
C15   C     C_R   0.297123 0.275608 0.798814 -0.010040
C16   C     C_R   0.781690 0.374450 0.406001 0.545633
C17   C     C_R   0.423558 0.175959 0.762110 0.013332
C18   C     C_R   0.476857 0.225014 0.712122 0.032448
C19   C     C_R   0.246698 0.444171 0.706031 -0.142288
C20   C     C_R   0.208097 0.408282 0.769076 -0.130984
C21   C     C_R   0.503235 0.031156 0.777733 -0.062002
C22   C     C_R   0.643722 0.946293 0.757747 0.099769
C23   C     C_R   0.863651 0.210610 0.283189 0.025145
C24   C     C_R   0.706108 0.004032 0.720371 -0.098742
C25   C     C_R   0.623503 0.141753 0.697427 -0.112435
C26   C     C_R   0.379995 0.352640 0.676283 -0.003454
C27   C     C_1   0.818340 0.342319 0.708971 -0.038479
C28   C     C_R   0.381279 0.714872 0.631505 0.542023
C29   C     C_1   0.845410 0.313861 0.776700 -0.035969
C30   C     C_1   0.358678 0.764279 0.713813 -0.035300
C31   C     C_1   0.326307 0.811040 0.780860 -0.039256
C32   C     C_R   0.895366 0.308414 0.089301 0.549611
C33   C     C_R   0.319231 0.299330 0.120104 0.578333
C34   C     C_R   0.868119 0.435513 0.303215 -0.146555
C35   C     C_R   0.299133 0.882763 0.081983 0.578712
C36   C     C_R   0.886535 0.297327 0.859078 0.552310
C37   C     C_R   0.278175 0.252502 0.877182 0.532097
C38   C     C_R   0.281364 0.880621 0.857915 0.547833
C39   C     C_R   0.407241 0.374723 0.599974 0.529184
C40   C     C_R   0.773239 0.380943 0.629694 0.538315
C41   C     C_1   0.342677 0.336380 0.274232 -0.032855
C42   C     C_1   0.331616 0.326099 0.203393 -0.021707
C43   C     C_R   0.853010 0.325598 0.169175 0.005914
C44   C     C_R   0.867748 0.432559 0.222603 -0.140970
C45   C     C_R   0.821716 0.108411 0.150360 -0.058992
C46   C     C_R   0.845939 0.987118 0.182222 -0.086805
C47   C     C_R   0.890777 0.972109 0.263389 -0.116089
C48   C     C_R   0.893600 0.085264 0.314259 -0.080023
Cr1   Cr    Cr6+3 0.608100 0.610860 0.522250 1.036425
Cr2   Cr    Cr6+3 0.288890 0.599990 0.488420 1.010035
Cr3   Cr    Cr6+3 0.603040 0.289190 0.489390 1.001254
Cr4   Cr    Cr6+3 0.053960 0.052250 0.967380 1.057552
Cr5   Cr    Cr6+3 0.059890 0.373160 0.992710 1.092076
Cr6   Cr    Cr6+3 0.373370 0.061690 0.991710 1.058436
H1    H     H_    0.870404 0.525551 0.341240 0.148979
H2    H     H_    0.785960 0.116408 0.087336 0.148020
H3    H     H_    0.883562 0.513383 0.202750 0.162133
H4    H     H_    0.834122 0.903324 0.142884 0.152753
H5    H     H_    0.922389 0.873999 0.287979 0.101941
H6    H     H_    0.924314 0.072603 0.377456 0.125293
H7    H     H_    0.188237 0.728971 0.274537 0.157182
H8    H     H_    0.803046 0.769131 0.219337 0.113332
H9    H     H_    0.752224 0.859955 0.359917 0.108187
H10   H     H_    0.532888 0.893969 0.404987 0.142756
H11   H     H_    0.172619 0.543676 0.680861 0.151908
H12   H     H_    0.458357 0.984035 0.806839 0.160861
H13   H     H_    0.109634 0.484752 0.795032 0.177322
H14   H     H_    0.817157 0.941509 0.707336 0.135471
H15   H     H_    0.675478 0.181635 0.668008 0.154597
I1    I     I_    0.763767 0.735321 0.789465 -0.348092
I2    I     I_    0.661242 0.706470 0.062798 -0.297909
I3    I     I_    0.134693 0.683127 0.097276 -0.329839
O1    O     O_R   0.749810 0.499790 0.438040 -0.515924
O2    O     O_R   0.411730 0.181020 0.091530 -0.501840
O3    O     O_R   0.365010 0.944360 0.063320 -0.480995
O4    O     O_R   0.477660 0.726260 0.439290 -0.494827
O5    O     O_R   0.159380 0.906670 0.876210 -0.491677
O6    O     O_R   0.930820 0.177420 0.886730 -0.500024
O7    O     O_R   0.910360 0.395420 0.895720 -0.477805
O8    O     O_R   0.186010 0.361730 0.919870 -0.471432
O9    O     O_R   0.400000 0.173010 0.914630 -0.505682
O10   O     O_R   0.354140 0.936940 0.899340 -0.516909
O11   O     O_3   0.162410 0.162370 0.983930 -0.295013
O12   O     O_R   0.298970 0.468800 0.557390 -0.505851
O13   O     O_R   0.260150 0.743000 0.412270 -0.525029
O14   O     O_R   0.297740 0.466550 0.394720 -0.499279
O15   O     O_R   0.488080 0.253500 0.386430 -0.498920
O16   O     O_R   0.722670 0.303800 0.421940 -0.499811
O17   O     O_R   0.751130 0.502220 0.613520 -0.482054
O18   O     O_R   0.478890 0.728510 0.601960 -0.470889
O19   O     O_R   0.261470 0.745430 0.587750 -0.515582
O20   O     O_R   0.489400 0.255930 0.561910 -0.511966
O21   O     O_R   0.723890 0.306050 0.584610 -0.545139
O22   O     O_3   0.500010 0.500010 0.500020 -0.285058
O23   O     O_R   0.171100 0.914680 0.053100 -0.478331
O24   O     O_R   0.941680 0.184840 0.050710 -0.508277
O25   O     O_R   0.922080 0.403420 0.072610 -0.488264
O26   O     O_R   0.196880 0.369150 0.083850 -0.468664

loop_
_geom_bond_atom_site_label_1
_geom_bond_atom_site_label_2
_ccdc_geom_bond_type
C21   H12   S    
C27   C29   T    
C41   C42   T    
C20   H13   S    
C19   C20   A    
C18   C26   A    
C40   O21   A    
Cr2   O12   S    
C7    C8    A    
C4    O15   A    
C45   C46   A    
C29   C36   S    
C35   O3    A    
C33   C42   S    
Cr5   O7    S    
C39   O12   A    
C12   C43   A    
C11   H9    S    
C30   C31   T    
C26   C39   S    
C4    O14   A    
C4    C41   S    
C32   O25   A    
Cr4   O23   S    
C33   O26   A    
C19   C26   A    
C7    H7    S    
Cr2   O13   S    
Cr6   O2    S    
C7    C14   A    
C15   C37   S    
C45   H2    S    
Cr4   O24   S    
Cr1   O22   S    
C2    C16   S    
C9    C10   A    
C44   H3    S    
C2    C34   A    
C34   H1    S    
C21   C22   A    
C46   H4    S    
C37   O9    A    
C10   H8    S    
C18   C25   A    
Cr4   O6    S    
Cr6   O11   S    
C48   H6    S    
C1    O13   A    
C15   C20   A    
C37   O8    A    
C8    I3    S    
C16   O1    A    
Cr5   O8    S    
C34   C44   A    
C24   C25   A    
C3    C8    A    
Cr3   O15   S    
Cr2   O14   S    
Cr2   O22   S    
Cr5   O25   S    
C17   C21   A    
Cr4   O11   S    
C43   C44   A    
C5    C9    A    
Cr3   O20   S    
C6    C14   A    
C33   O2    A    
C47   C48   A    
C12   C23   A    
C3    C35   S    
C27   C40   S    
C17   C18   A    
Cr1   O4    S    
Cr3   O21   S    
C32   O24   A    
C40   O17   A    
Cr1   O1    S    
C25   H15   S    
Cr4   O5    S    
C39   O20   A    
Cr6   O10   S    
C15   C17   A    
C46   C47   A    
C23   C48   A    
C1    O4    A    
C9    I2    S    
Cr1   O17   S    
C12   C45   A    
C3    C5    A    
C36   O7    A    
Cr3   O16   S    
C38   O5    A    
C35   O23   A    
Cr5   O26   S    
C31   C38   S    
Cr5   O11   S    
C28   C30   S    
C36   O6    A    
C6    C13   A    
C11   C13   A    
C5    C6    A    
C13   H10   S    
C32   C43   S    
C19   H11   S    
C28   O19   A    
C22   C24   A    
Cr6   O9    S    
C10   C11   A    
C24   H14   S    
Cr3   O22   S    
C47   H5    S    
Cr6   O3    S    
Cr2   O19   S    
C2    C23   A    
C16   O16   A    
C28   O18   A    
C1    C14   S    
C22   I1    S    
Cr1   O18   S    
C38   O10   A    
