data_mof_unit_51079.cif
_audit_creation_date              2012-10-26T20:17:42-0400
_audit_creation_method            fapswitch 2.2
_symmetry_space_group_name_H-M    P1
_symmetry_Int_Tables_number       1
_space_group_crystal_system       triclinic
_cell_length_a                    27.781288
_cell_length_b                    8.849561
_cell_length_c                    7.585235
_cell_angle_alpha                 101.421977
_cell_angle_beta                  96.373024
_cell_angle_gamma                 93.193628
_cell_volume                      1810.83115934

loop_
_atom_site_label
_atom_site_type_symbol
_atom_type_description
_atom_site_fract_x
_atom_site_fract_y
_atom_site_fract_z
_atom_type_partial_charge
C1    C     C_R   0.499547 0.201622 0.456025 0.593180
C2    C     C_R   0.869183 0.336656 0.452275 -0.008233
C3    C     C_R   0.355393 0.511309 0.498611 -0.077744
C4    C     C_R   0.645262 0.492445 0.504919 -0.062120
C5    C     C_R   0.970784 0.340316 0.444667 0.072624
C6    C     C_R   0.032625 0.591391 0.659322 0.061567
C7    C     C_R   0.981181 0.588645 0.663184 -0.019126
C8    C     C_R   0.021182 0.352545 0.424928 -0.006437
C9    C     C_R   0.950626 0.466383 0.548780 -0.070407
C10   C     C_R   0.052121 0.468937 0.545030 -0.072861
C11   C     C_R   0.940811 0.200745 0.379691 0.283702
C12   C     C_R   0.500438 0.798374 0.543971 0.592832
C13   C     C_R   0.065965 0.717785 0.749985 0.282277
C14   C     C_R   0.889897 0.204719 0.372082 -0.142111
C15   C     C_R   0.114970 0.692088 0.787334 -0.111232
C16   C     C_R   0.407854 0.501263 0.499163 0.547680
C17   C     C_R   0.592317 0.499386 0.501106 0.552182
C18   C     C_R   0.041869 0.257723 0.284118 0.275240
C19   C     C_R   0.958459 0.698546 0.782398 0.272093
C20   C     C_2   0.506201 0.039014 0.436969 0.192360
C21   C     C_2   0.493759 0.960965 0.562993 0.190166
C22   C     C_R   0.175266 0.359047 0.435936 0.473761
C23   C     C_R   0.103234 0.467087 0.545950 -0.114747
C24   C     C_R   0.827431 0.602327 0.601322 0.482557
C25   C     C_R   0.184020 0.561226 0.689752 0.430591
C26   C     C_R   0.818729 0.337021 0.454016 0.446406
C27   C     C_R   0.288414 0.625136 0.639988 0.293025
C28   C     C_R   0.716093 0.430606 0.347510 0.298617
C29   C     C_R   0.338053 0.608518 0.641812 -0.109872
C30   C     C_R   0.665842 0.448590 0.344011 -0.148575
C31   C     C_R   0.322843 0.442685 0.346068 -0.116697
C32   C     C_R   0.675265 0.523750 0.670965 -0.133823
C33   C     C_R   0.272867 0.451815 0.348921 0.250576
C34   C     C_R   0.899414 0.467454 0.543123 -0.101386
C35   C     C_R   0.725229 0.514959 0.677171 0.221856
C36   C     C_R   0.254618 0.517648 0.513163 0.174431
C37   C     C_R   0.746346 0.471747 0.515340 0.248355
C38   C     C_3   0.100887 0.986798 0.210751 0.042790
C39   C     C_3   0.144652 0.932112 0.313350 -0.394491
C40   C     C_3   0.891555 0.968632 0.779827 0.033121
C41   C     C_3   0.875481 0.106998 0.905257 -0.319729
C42   C     C_3   0.707916 0.261431 0.065871 0.032805
C43   C     C_3   0.739787 0.159827 0.949937 -0.305438
C44   C     C_3   0.258479 0.859448 0.634693 -0.009679
C45   C     C_R   0.123834 0.354673 0.425401 -0.004370
C46   C     C_3   0.245112 0.007221 0.752926 -0.315644
C47   C     C_3   0.934961 0.928105 0.335452 0.040450
C48   C     C_3   0.967884 0.814615 0.398863 -0.336468
C49   C     C_3   0.079526 0.958136 0.687467 -0.009987
C50   C     C_3   0.062068 0.118578 0.708101 -0.275100
C51   C     C_R   0.878410 0.599065 0.629060 -0.008891
C52   C     C_R   0.092606 0.246168 0.295649 0.284760
C53   C     C_R   0.908592 0.717275 0.749294 0.267139
C54   C     C_R   0.134010 0.570995 0.678807 -0.015138
Cl1   Cl    Cl    0.237012 0.415156 0.135247 -0.509377
Cl2   Cl    Cl    0.760199 0.557150 0.892043 -0.533337
Cl3   Cl    Cl    0.006966 0.183029 0.072752 -0.560876
Cl4   Cl    Cl    0.988069 0.790895 0.993835 -0.562468
Cl5   Cl    Cl    0.537086 0.957981 0.252157 -0.567063
Cl6   Cl    Cl    0.462814 0.041943 0.747653 -0.567919
Cu1   Cu    Cu3+1 0.505380 0.517380 0.684380 1.064736
Cu2   Cu    Cu3+1 0.494620 0.482620 0.315620 1.072782
H1    H     H_    0.336225 0.385887 0.223006 0.176924
H2    H     H_    0.068235 0.977934 0.281549 0.159436
H3    H     H_    0.153750 0.007812 0.449580 0.145982
H4    H     H_    0.136154 0.811996 0.330169 0.101635
H5    H     H_    0.176417 0.933048 0.236567 0.216393
H6    H     H_    0.866163 0.949327 0.652582 0.162564
H7    H     H_    0.929240 0.998785 0.753851 0.170757
H8    H     H_    0.903924 0.147751 0.021171 0.211386
H9    H     H_    0.869832 0.202756 0.831894 0.121156
H10   H     H_    0.841143 0.074915 0.955111 0.173482
H11   H     H_    0.682532 0.313104 0.974854 0.145920
H12   H     H_    0.660016 0.556467 0.797176 0.174080
H13   H     H_    0.686784 0.184477 0.134763 0.145809
H14   H     H_    0.762255 0.095542 0.035456 0.196041
H15   H     H_    0.716617 0.074891 0.842197 0.130138
H16   H     H_    0.763878 0.230755 0.885215 0.199996
H17   H     H_    0.225450 0.806576 0.541306 0.130438
H18   H     H_    0.287229 0.890526 0.553720 0.151266
H19   H     H_    0.277330 0.064012 0.847599 0.200949
H20   H     H_    0.232287 0.088327 0.666644 0.136085
H21   H     H_    0.215691 0.980131 0.832458 0.178858
H22   H     H_    0.915794 0.878913 0.198503 0.250937
H23   H     H_    0.461699 0.378907 0.950007 0.276215
H24   H     H_    0.907683 0.944311 0.430460 0.063310
H25   H     H_    0.948415 0.698043 0.365759 0.129149
H26   H     H_    0.002244 0.810388 0.338450 0.213008
H27   H     H_    0.978117 0.854605 0.545746 0.155682
H28   H     H_    0.075308 0.903131 0.541859 0.102075
H29   H     H_    0.118709 0.972958 0.741868 0.129723
H30   H     H_    0.073960 0.185934 0.846793 0.240582
H31   H     H_    0.079603 0.178055 0.615462 0.068098
H32   H     H_    0.022002 0.113871 0.675457 0.203810
H33   H     H_    0.538317 0.621045 0.049987 0.273800
H34   H     H_    0.642599 0.426112 0.215921 0.139524
H35   H     H_    0.363299 0.682405 0.747141 0.184741
H36   H     H_    0.866150 0.104375 0.303387 0.149198
H37   H     H_    0.139479 0.780709 0.877663 0.136278
H38   H     H_    0.092284 0.903947 0.081907 0.231503
N1    N     N_R   0.204061 0.481941 0.544685 -0.389462
N2    N     N_R   0.798531 0.470496 0.521603 -0.354943
N3    N     N_2   0.486510 0.456430 0.038510 -0.240246
N4    N     N_2   0.513490 0.543570 0.961490 -0.243377
O1    O     O_R   0.503500 0.286120 0.619780 -0.485384
O2    O     O_2   0.806642 0.735096 0.654631 -0.427951
O3    O     O_2   0.790234 0.204396 0.392012 -0.495144
O4    O     O_2   0.210957 0.620402 0.849489 -0.381981
O5    O     O_3   0.111632 0.134878 0.173031 -0.493420
O6    O     O_3   0.888864 0.836764 0.858347 -0.495459
O7    O     O_3   0.737318 0.380963 0.190183 -0.480722
O8    O     O_3   0.275468 0.758659 0.746740 -0.496135
O9    O     O_3   0.963428 0.064380 0.332682 -0.520454
O10   O     O_3   0.052030 0.868084 0.780547 -0.511753
O11   O     O_R   0.496500 0.713880 0.380220 -0.480957
O12   O     O_R   0.494410 0.256780 0.308360 -0.449000
O13   O     O_R   0.505590 0.743220 0.691640 -0.449582
O14   O     O_R   0.434810 0.514700 0.655690 -0.501422
O15   O     O_R   0.565190 0.485300 0.344310 -0.505248
O16   O     O_R   0.425720 0.485350 0.344280 -0.506956
O17   O     O_R   0.574280 0.514650 0.655720 -0.518469
O18   O     O_2   0.196093 0.237680 0.347549 -0.432179

loop_
_geom_bond_atom_site_label_1
_geom_bond_atom_site_label_2
_ccdc_geom_bond_type
C53   O6    S    
C33   Cl1   S    
C23   C45   A    
C27   C29   A    
C49   H28   S    
C25   N1    A    
C18   C52   A    
C43   H16   S    
C5    C9    A    
C34   C51   A    
C22   N1    A    
C52   O5    S    
C35   C37   A    
C5    C11   A    
C16   O16   A    
C32   H12   S    
C37   N2    S    
C11   C14   A    
C33   C36   A    
Cu1   O17   S    
C3    C29   A    
C30   H34   S    
C46   H20   S    
C20   Cl5   S    
C1    C20   S    
C48   H26   S    
C22   O18   S    
C1    O12   A    
Cu1   O1    S    
Cu2   O16   S    
C13   O10   S    
H23   N3    S    
C41   H9    S    
C12   O11   A    
C19   C53   A    
C24   C51   A    
C49   O10   S    
Cu1   O14   S    
C19   Cl4   S    
C39   H3    S    
C49   H29   S    
C2    C14   A    
C44   C46   S    
C14   H36   S    
C38   H2    S    
C28   O7    S    
C40   H7    S    
Cu1   O13   S    
C32   C35   A    
C31   H1    S    
C44   H18   S    
Cu1   N4    S    
C25   C54   A    
C21   Cl6   S    
C38   H38   S    
C15   C54   A    
C50   H32   S    
C40   O6    S    
C45   C52   A    
C12   C21   S    
C8    C18   A    
C46   H21   S    
C36   N1    S    
C51   C53   A    
C42   O7    S    
C47   H24   S    
Cu2   O12   S    
C16   O14   A    
C46   H19   S    
C18   Cl3   S    
C47   C48   S    
C31   C33   A    
C42   H13   S    
C48   H25   S    
C2    C26   A    
C47   H22   S    
C38   O5    S    
C3    C31   A    
Cu2   O15   S    
C4    C32   A    
C41   H10   S    
C4    C17   S    
C44   O8    S    
C50   H30   S    
C40   C41   S    
C27   O8    S    
C7    C19   A    
C48   H27   S    
C13   C15   A    
C9    C34   A    
C10   C23   A    
C39   H4    S    
C24   O2    S    
C42   C43   S    
H33   N4    S    
C23   C54   A    
Cu2   N3    S    
C17   O17   A    
C43   H14   S    
C47   O9    S    
C42   H11   S    
C35   Cl2   S    
C39   H5    S    
C44   H17   S    
C15   H37   S    
C26   O3    S    
C6    C10   A    
C5    C8    A    
C50   H31   S    
C6    C7    A    
C27   C36   A    
C43   H15   S    
C29   H35   S    
C28   C30   A    
Cu2   O11   S    
C26   N2    A    
C6    C13   A    
C2    C34   A    
C38   C39   S    
C28   C37   A    
C24   N2    A    
Cu1   Cu2   S    
C11   O9    S    
C17   O15   A    
C12   O13   A    
C7    C9    A    
C22   C45   A    
C20   C21   D    
C8    C10   A    
C49   C50   S    
C40   H6    S    
N3    N4    D    
C4    C30   A    
C3    C16   S    
C25   O4    S    
C1    O1    A    
C41   H8    S    
