data_mof_unit_13192.cif
_audit_creation_date              2012-12-11T14:29:44-0500
_audit_creation_method            fapswitch 2.2
_symmetry_space_group_name_H-M    P1
_symmetry_Int_Tables_number       1
_space_group_crystal_system       triclinic
_cell_length_a                    6.934771
_cell_length_b                    14.66843
_cell_length_c                    16.353327
_cell_angle_alpha                 90.404337
_cell_angle_beta                  90.888949
_cell_angle_gamma                 90.160097
_cell_volume                      1663.24780481

loop_
_atom_site_label
_atom_site_type_symbol
_atom_type_description
_atom_site_fract_x
_atom_site_fract_y
_atom_site_fract_z
_atom_type_partial_charge
O1    O     O_R   0.494400 0.416610 0.413880 -0.559938
O2    O     O_R   0.823920 0.406790 0.585520 -0.535246
O3    O     O_R   0.994250 0.583390 0.586120 -0.540971
C1    C     C_R   0.655439 0.383190 0.611883 0.663138
O4    O     O_R   0.824110 0.405730 0.414490 -0.540916
O5    O     O_R   0.994440 0.582310 0.413870 -0.550883
C2    C     C_R   0.653722 0.387777 0.383443 0.662680
O6    O     O_R   0.494210 0.417690 0.586130 -0.544609
O7    O     O_3   0.660810 0.557940 0.500000 -0.350955
V1    V     V_3+5 0.935650 0.489250 0.500000 1.443776
O8    O     O_R   0.324160 0.593210 0.414480 -0.519329
C3    C     C_R   0.155156 0.609232 0.382702 0.715762
O9    O     O_R   0.323970 0.594270 0.585510 -0.513734
C4    C     C_R   0.155829 0.620630 0.610606 0.690555
V2    V     V_3+5 0.435660 0.510750 0.500000 1.501973
O10   O     O_3   0.160630 0.442060 0.500000 -0.383823
C5    C     C_R   0.190762 0.564046 0.777565 -0.137138
C6    C     C_R   0.205455 0.530641 0.857763 -0.044582
C7    C     C_R   0.184942 0.591851 0.924214 -0.049012
C8    C     C_R   0.156794 0.684871 0.908359 -0.127646
C9    C     C_R   0.145533 0.719069 0.827921 0.035177
C10   C     C_R   0.161361 0.657620 0.760929 0.038269
C11   C     C_R   0.116443 0.813176 0.814098 -0.147176
C12   C     C_R   0.104829 0.846188 0.732907 0.036102
C13   C     C_R   0.130592 0.786432 0.664464 0.021974
C14   C     C_R   0.150975 0.689864 0.678869 -0.150733
C15   C     C_R   0.070389 0.939830 0.719811 -0.120376
C16   C     C_R   0.060407 0.977110 0.641818 -0.026425
C17   C     C_R   0.090612 0.920670 0.573692 -0.077751
C18   C     C_R   0.134454 0.827003 0.584774 -0.068808
H1    H     H_    0.048798 0.985769 0.770878 0.143866
C19   C     C_2   0.989232 0.712819 0.284920 -0.095550
C20   C     C_2   0.148530 0.667720 0.309694 -0.203893
H2    H     H_    0.280700 0.673509 0.275464 0.151961
C21   C     C_2   0.983540 0.773757 0.212212 -0.095199
C22   C     C_2   0.129238 0.828783 0.187753 -0.147125
C23   C     C_2   0.771509 0.223245 0.793578 -0.027461
C24   C     C_2   0.609359 0.186949 0.823531 -0.249982
C25   C     C_2   0.770878 0.296559 0.730946 -0.085215
C26   C     C_2   0.643980 0.304201 0.667351 -0.169334
C27   C     C_2   0.777253 0.231666 0.199673 0.042899
C28   C     C_2   0.623203 0.177678 0.179887 -0.240162
C29   C     C_2   0.781636 0.283964 0.278002 -0.240241
C30   C     C_2   0.635395 0.336585 0.305044 -0.138121
O11   O     O_R   0.770210 0.079270 0.910680 -0.534844
O12   O     O_R   0.440150 0.091160 0.082270 -0.546765
O13   O     O_R   0.269970 0.914530 0.082860 -0.555305
C31   C     C_R   0.610884 0.114277 0.109399 0.763641
O14   O     O_R   0.440480 0.090100 0.911240 -0.537570
O15   O     O_R   0.270310 0.913460 0.910610 -0.533417
C32   C     C_R   0.608332 0.114216 0.885393 0.764548
O16   O     O_R   0.769870 0.080340 0.082930 -0.526315
O17   O     O_3   0.603660 0.938980 0.996790 -0.380826
V3    V     V_3+5 0.328750 0.007610 0.996740 1.491591
O18   O     O_R   0.940600 0.902510 0.911180 -0.542256
C33   C     C_R   0.108693 0.878818 0.884338 0.677627
O19   O     O_R   0.940270 0.903570 0.082200 -0.545063
C34   C     C_R   0.110502 0.884237 0.112227 0.658516
V4    V     V_3+5 0.828770 0.986010 0.996670 1.486816
O20   O     O_3   0.103730 0.054750 0.996710 -0.352003
C35   C     C_2   0.086613 0.961825 0.490880 0.377966
H3    H     H_    0.960682 0.999333 0.470096 0.038654
O21   O     O_2   0.226869 0.957265 0.446949 -0.475171
H4    H     H_    0.848926 0.773527 0.177360 0.124115
C36   C     C_2   0.308767 0.843788 0.237482 0.408471
H5    H     H_    0.444364 0.857224 0.207511 0.039899
O22   O     O_2   0.305489 0.846389 0.312015 -0.484707
H6    H     H_    0.910094 0.203646 0.819664 0.179826
H7    H     H_    0.470223 0.212939 0.803374 0.187721
H8    H     H_    0.883366 0.347817 0.738031 0.153938
C37   C     C_2   0.502616 0.231958 0.643436 0.420239
H9    H     H_    0.369862 0.250372 0.611725 0.070545
O23   O     O_2   0.538032 0.151315 0.653759 -0.517312
C38   C     C_2   0.948481 0.242901 0.147257 0.433489
H10   H     H_    0.087744 0.258122 0.175397 0.037057
O24   O     O_2   0.934146 0.241739 0.072751 -0.517665
H11   H     H_    0.500813 0.176442 0.220547 0.110895
H12   H     H_    0.914884 0.281034 0.313751 0.116987
H13   H     H_    0.206989 0.515779 0.727865 0.148406
C39   C     C_2   0.458682 0.354804 0.254436 0.375814
H14   H     H_    0.322528 0.368495 0.283910 0.033847
O25   O     O_2   0.465297 0.359819 0.180017 -0.516829
C40   C     C_2   0.249654 0.432275 0.870034 0.328899
H15   H     H_    0.293562 0.406593 0.929306 0.069890
O26   O     O_2   0.241092 0.378121 0.812997 -0.547709
C41   C     C_2   0.186473 0.560546 0.010648 0.369456
H16   H     H_    0.168348 0.489279 0.025501 0.070846
O27   O     O_2   0.205157 0.614861 0.067216 -0.534300
H17   H     H_    0.140750 0.730637 0.960006 0.134935
C42   C     C_2   0.032601 0.077163 0.633012 0.449604
H18   H     H_    0.985089 0.106309 0.575455 0.026176
O28   O     O_2   0.067803 0.129001 0.690002 -0.536638
C43   C     C_2   0.199228 0.777083 0.512105 0.494419
H19   H     H_    0.098954 0.765808 0.461664 0.030369
O29   O     O_2   0.368798 0.756666 0.505502 -0.493817
H20   H     H_    0.854493 0.702052 0.316466 0.137514

loop_
_geom_bond_atom_site_label_1
_geom_bond_atom_site_label_2
_ccdc_geom_bond_type
O18   C33   A    
C43   H19   S    
C26   C37   S    
O18   V4    S    
C27   C28   D    
C21   C22   D    
C12   C15   A    
C1    O6    A    
C7    C41   S    
O17   V4    S    
C11   C33   S    
V3    O20   S    
O17   V3    S    
C29   H12   S    
C23   C24   D    
C38   O24   D    
C16   C17   A    
C18   C43   S    
C22   C34   S    
O5    C3    A    
C41   O27   D    
O19   V4    S    
O11   C32   A    
O14   V3    S    
C23   H6    S    
C5    H13   S    
C6    C7    A    
C35   O21   D    
C27   C38   S    
O8    V2    S    
C1    C26   S    
O14   C32   A    
C11   C12   A    
C21   H4    S    
O1    V2    S    
O7    V1    S    
C24   H7    S    
V4    O20   S    
C43   O29   D    
O1    C2    A    
O9    C4    A    
C27   C29   S    
C6    C40   S    
O12   C31   A    
C17   C35   S    
C38   H10   S    
C15   H1    S    
C19   C21   S    
C30   C39   S    
C12   C13   A    
C39   O25   D    
C25   C26   D    
O4    C2    A    
C22   C36   S    
C28   C31   S    
C24   C32   S    
C36   O22   D    
C13   C14   A    
O15   C33   A    
O2    C1    A    
C29   C30   D    
C17   C18   A    
O16   V4    S    
C42   O28   D    
C40   H15   S    
C31   O16   A    
O12   V3    S    
C5    C6    A    
O15   V3    S    
C2    C30   S    
C4    C14   S    
O3    C4    A    
O13   V3    S    
C40   O26   D    
O6    V2    S    
O9    V2    S    
C42   H18   S    
O2    V1    S    
C37   O23   D    
C13   C18   A    
O11   V4    S    
C19   H20   S    
C41   H16   S    
C39   H14   S    
O5    V1    S    
O8    C3    A    
C8    H17   S    
C5    C10   A    
C19   C20   D    
C7    C8    A    
C9    C11   A    
O7    V2    S    
O4    V1    S    
C23   C25   S    
O3    V1    S    
V1    O10   S    
O13   C34   A    
O19   C34   A    
C25   H8    S    
C20   H2    S    
C35   H3    S    
C37   H9    S    
C8    C9    A    
C28   H11   S    
C36   H5    S    
C10   C14   A    
C15   C16   A    
C16   C42   S    
C3    C20   S    
C9    C10   A    
V2    O10   S    
