data_mof_unit_58498.cif
_audit_creation_date              2012-10-26T20:06:14-0400
_audit_creation_method            fapswitch 2.2
_symmetry_space_group_name_H-M    P1
_symmetry_Int_Tables_number       1
_space_group_crystal_system       triclinic
_cell_length_a                    9.566824
_cell_length_b                    10.798972
_cell_length_c                    13.50691
_cell_angle_alpha                 90.939208
_cell_angle_beta                  73.478231
_cell_angle_gamma                 90.391583
_cell_volume                      1337.62627605

loop_
_atom_site_label
_atom_site_type_symbol
_atom_type_description
_atom_site_fract_x
_atom_site_fract_y
_atom_site_fract_z
_atom_type_partial_charge
C1    C     C_R   0.500900 0.737759 0.498862 0.614917
C2    C     C_R   0.383689 0.458226 0.810381 -0.001760
C3    C     C_R   0.625085 0.937182 0.440039 0.059743
C4    C     C_R   0.423957 0.486162 0.698637 0.553993
C5    C     C_R   0.623833 0.065509 0.442178 -0.115157
C6    C     C_R   0.499775 0.129213 0.498934 -0.019323
C7    C     C_R   0.376209 0.065648 0.555207 -0.128068
C8    C     C_R   0.376677 0.937054 0.556775 0.072808
C9    C     C_R   0.501424 0.872070 0.498589 0.075085
C10   C     C_R   0.904667 0.583503 0.559788 0.202681
C11   C     C_R   0.052822 0.583142 0.558737 0.029934
C12   C     C_R   0.444978 0.446441 0.974857 0.048379
C13   C     C_R   0.096433 0.415373 0.442226 -0.000809
C14   C     C_R   0.948310 0.416100 0.441466 -0.001054
C15   C     C_R   0.499809 0.262567 0.499581 0.534064
C16   C     C_R   0.576979 0.496222 0.300669 0.549192
C17   C     C_R   0.796376 0.528497 0.023970 -0.123813
C18   C     C_R   0.619078 0.490166 0.187789 0.014535
C19   C     C_R   0.235562 0.453876 0.864861 -0.129534
C20   C     C_R   0.191853 0.447529 0.971719 -0.136120
C21   C     C_R   0.294375 0.451659 0.026342 -0.077979
C22   C     C_R   0.489721 0.442745 0.865404 0.000593
C23   C     C_R   0.553071 0.455794 0.028390 0.052825
C24   C     C_R   0.698611 0.483153 0.971982 0.065564
C25   C     C_R   0.743967 0.458667 0.865544 0.108070
C26   C     C_R   0.639699 0.426598 0.815575 -0.080662
C27   C     C_R   0.522215 0.440163 0.135599 0.084923
C28   C     C_R   0.754671 0.536627 0.131145 -0.158551
Cu1   Cu    Cu3+1 0.359340 0.499980 0.500000 0.960800
Cu2   Cu    Cu3+1 0.640660 0.500020 0.500000 0.996860
H1    H     H_    0.830044 0.575857 0.169749 0.155834
H2    H     H_    0.077651 0.445361 0.013459 0.125781
H3    H     H_    0.678956 0.390698 0.737787 0.157478
H4    H     H_    0.161402 0.897092 0.594844 0.244991
H5    H     H_    0.233018 0.903947 0.695794 0.236941
H6    H     H_    0.913206 0.419481 0.736355 0.233218
H7    H     H_    0.927584 0.553066 0.798004 0.235588
H8    H     H_    0.453897 0.288650 0.224624 0.241403
H9    H     H_    0.325608 0.400993 0.238813 0.241343
H10   H     H_    0.718461 0.115750 0.397144 0.145754
H11   H     H_    0.280699 0.115809 0.599997 0.133956
H12   H     H_    0.091379 0.648818 0.606353 0.151539
H13   H     H_    0.169209 0.346071 0.397149 0.115039
H14   H     H_    0.910962 0.348680 0.394514 0.117433
H15   H     H_    0.903200 0.561516 0.981718 0.137787
H16   H     H_    0.153240 0.459301 0.824817 0.167117
H17   H     H_    0.252336 0.464789 0.108500 0.139021
I1    I     I_    0.775894 0.717772 0.661790 -0.349307
I2    I     I_    0.813837 0.851942 0.339420 -0.357573
N1    N     N_R   0.147940 0.499970 0.499970 -0.245564
N2    N     N_R   0.852060 0.500060 0.499990 -0.220510
N3    N     N_3   0.251764 0.872917 0.619377 -0.610273
N4    N     N_3   0.895947 0.460356 0.809537 -0.652282
N5    N     N_3   0.409937 0.354157 0.185802 -0.638087
O1    O     O_R   0.381250 0.680340 0.500010 -0.471689
O2    O     O_R   0.618820 0.680370 0.500010 -0.446290
O3    O     O_R   0.323240 0.499950 0.650980 -0.505583
O4    O     O_R   0.560810 0.499980 0.650980 -0.493812
O5    O     O_R   0.381180 0.319630 0.499990 -0.514072
O6    O     O_R   0.618750 0.319660 0.499990 -0.519198
O7    O     O_R   0.439190 0.500020 0.349020 -0.509420
O8    O     O_R   0.676760 0.500050 0.349020 -0.498698

loop_
_geom_bond_atom_site_label_1
_geom_bond_atom_site_label_2
_ccdc_geom_bond_type
C4    O3    A    
C2    C22   A    
C2    C4    S    
C23   C24   A    
C6    C7    A    
C3    C9    A    
C23   C27   A    
C15   O6    A    
C8    N3    S    
C26   H3    S    
H4    N3    S    
C19   C20   A    
H8    N5    S    
Cu2   N2    S    
H7    N4    S    
C7    H11   S    
C3    I2    S    
C19   H16   S    
C1    C9    S    
C7    C8    A    
C11   N1    A    
C13   C14   A    
C24   C25   A    
C10   I1    S    
C12   C23   A    
Cu1   Cu2   S    
C16   O8    A    
C20   H2    S    
C10   N2    A    
Cu2   O4    S    
C14   H14   S    
C25   C26   A    
C1    O2    A    
C25   N4    S    
Cu1   N1    S    
Cu2   O8    S    
C1    O1    A    
C5    C6    A    
C17   H15   S    
Cu1   O7    S    
C27   N5    S    
H9    N5    S    
C16   O7    A    
C22   C26   A    
C13   N1    A    
C17   C24   A    
C12   C22   A    
C13   H13   S    
C18   C28   A    
C20   C21   A    
C11   H12   S    
C16   C18   S    
C10   C11   A    
C5    H10   S    
C4    O4    A    
H5    N3    S    
Cu1   O5    S    
C15   O5    A    
H6    N4    S    
Cu1   O1    S    
C3    C5    A    
C6    C15   S    
C2    C19   A    
C17   C28   A    
Cu2   O2    S    
C12   C21   A    
C28   H1    S    
C18   C27   A    
C14   N2    A    
Cu1   O3    S    
C8    C9    A    
C21   H17   S    
Cu2   O6    S    
