data_mof_unit_51386.cif
_audit_creation_date              2012-10-26T19:10:23-0400
_audit_creation_method            fapswitch 2.2
_symmetry_space_group_name_H-M    P1
_symmetry_Int_Tables_number       1
_space_group_crystal_system       triclinic
_cell_length_a                    10.762724
_cell_length_b                    9.409159
_cell_length_c                    19.476022
_cell_angle_alpha                 90.050922
_cell_angle_beta                  89.902487
_cell_angle_gamma                 89.179976
_cell_volume                      1972.09565374

loop_
_atom_site_label
_atom_site_type_symbol
_atom_type_description
_atom_site_fract_x
_atom_site_fract_y
_atom_site_fract_z
_atom_type_partial_charge
C1    C     C_R   0.259751 0.500879 0.502397 0.575768
C2    C     C_3   0.073053 0.411228 0.564698 -0.238079
C3    C     C_3   0.926760 0.654776 0.508146 -0.236587
C4    C     C_3   0.929056 0.416152 0.566561 -0.240101
C5    C     C_3   0.073151 0.438846 0.435858 -0.231589
C6    C     C_3   0.121938 0.502012 0.503961 0.042831
C7    C     C_3   0.878475 0.499849 0.503690 0.034734
C8    C     C_R   0.501121 0.499695 0.366830 0.647666
C9    C     C_3   0.930906 0.429450 0.437780 -0.216061
C10   C     C_3   0.623564 0.081715 0.520427 -0.107246
C11   C     C_3   0.624371 0.914393 0.518738 -0.113025
C12   C     C_R   0.510543 0.504368 0.067332 0.360376
C13   C     C_3   0.409471 0.085431 0.551772 -0.110477
C14   C     C_3   0.411150 0.917529 0.552649 -0.113032
C15   C     C_3   0.466262 0.083976 0.433677 -0.091842
C16   C     C_3   0.464695 0.917222 0.434000 -0.074863
C17   C     C_R   0.740246 0.499520 0.501886 0.568904
C18   C     C_R   0.500148 0.500087 0.632423 0.535484
C19   C     C_R   0.430274 0.599751 0.250943 0.218122
C20   C     C_R   0.577993 0.399231 0.251231 0.211341
C21   C     C_R   0.438545 0.603070 0.179262 -0.075935
C22   C     C_R   0.576887 0.402005 0.179355 -0.074669
C23   C     C_R   0.484496 0.628735 0.815794 -0.115883
C24   C     C_R   0.509415 0.503829 0.143107 -0.066282
C25   C     C_R   0.503061 0.499114 0.289635 -0.031500
C26   C     C_R   0.508542 0.503274 0.928014 0.343388
C27   C     C_R   0.525714 0.374851 0.815958 -0.115926
C28   C     C_R   0.482654 0.627971 0.744253 -0.137283
C29   C     C_R   0.522778 0.373883 0.744388 -0.139070
C30   C     C_R   0.501580 0.500529 0.707931 0.012138
C31   C     C_R   0.506387 0.502271 0.852349 0.036217
C32   C     C_3   0.068870 0.655255 0.512872 -0.232619
Cu1   Cu    Cu3+1 0.499860 0.642410 0.500030 0.927290
Cu2   Cu    Cu3+1 0.499860 0.357590 0.500030 0.928864
H1    H     H_    0.890660 0.480941 0.391260 0.179068
H2    H     H_    0.369997 0.881985 0.420628 0.181236
H3    H     H_    0.533788 0.118437 0.394681 0.208839
H4    H     H_    0.529608 0.877428 0.393682 0.183629
H5    H     H_    0.313998 0.123836 0.539335 0.111807
H6    H     H_    0.315926 0.878683 0.542313 0.109439
H7    H     H_    0.384939 0.681725 0.150965 0.203539
H8    H     H_    0.631779 0.324230 0.151036 0.203808
H9    H     H_    0.469616 0.728669 0.842388 0.140645
H10   H     H_    0.542315 0.275573 0.842719 0.140933
H11   H     H_    0.465904 0.727193 0.717463 0.113866
H12   H     H_    0.906563 0.315311 0.437508 0.145796
H13   H     H_    0.537987 0.274125 0.717656 0.115425
H14   H     H_    0.105446 0.727962 0.473211 0.123134
H15   H     H_    0.105456 0.298955 0.559046 0.117676
H16   H     H_    0.097268 0.698545 0.563616 0.112107
H17   H     H_    0.110326 0.451629 0.614163 0.112694
H18   H     H_    0.886948 0.709825 0.553973 0.115268
H19   H     H_    0.896683 0.468024 0.614883 0.117314
H20   H     H_    0.897048 0.715774 0.461874 0.130873
H21   H     H_    0.893181 0.305788 0.566495 0.113067
H22   H     H_    0.100608 0.505827 0.391728 0.181958
H23   H     H_    0.650578 0.119161 0.572448 0.108387
H24   H     H_    0.113917 0.330915 0.427015 0.135302
H25   H     H_    0.197901 0.741852 0.371075 0.342749
H26   H     H_    0.758935 0.195501 0.378880 0.337966
H27   H     H_    0.655796 0.872179 0.569248 0.116103
H28   H     H_    0.696026 0.119693 0.484724 0.119441
H29   H     H_    0.694052 0.878205 0.480040 0.118345
H30   H     H_    0.430085 0.125108 0.604231 0.118344
H31   H     H_    0.435784 0.880364 0.605094 0.115296
H32   H     H_    0.373914 0.126690 0.417510 0.135790
N1    N     N_R   0.552845 0.389335 0.031736 -0.201333
N2    N     N_R   0.467491 0.618974 0.031881 -0.201101
N3    N     N_R   0.551686 0.388705 0.963442 -0.215541
N4    N     N_R   0.466770 0.618556 0.963586 -0.215581
N5    N     N_3   0.500250 0.143650 0.501520 -0.241739
N6    N     N_3   0.500250 0.856350 0.501520 -0.248724
O1    O     O_R   0.317570 0.620260 0.500040 -0.490056
O2    O     O_2   0.210856 0.731732 0.237159 -0.258646
O3    O     O_3   0.267484 0.674411 0.362306 -0.553943
O4    O     O_2   0.615337 0.124364 0.275161 -0.278027
O5    O     O_2   0.796318 0.262885 0.243799 -0.254825
O6    O     O_3   0.715144 0.285457 0.367167 -0.547871
O7    O     O_R   0.317570 0.379740 0.500040 -0.524366
O8    O     O_R   0.499870 0.620300 0.400170 -0.454807
O9    O     O_R   0.499870 0.379700 0.400170 -0.450278
O10   O     O_R   0.682190 0.620260 0.500020 -0.526375
O11   O     O_R   0.682190 0.379740 0.500020 -0.488528
O12   O     O_R   0.499890 0.620220 0.599880 -0.520452
O13   O     O_R   0.499890 0.379780 0.599880 -0.521496
O14   O     O_2   0.378750 0.865641 0.288868 -0.285201
S1    S     S_3+6 0.320122 0.721998 0.285077 -0.003947
S2    S     S_3+6 0.677727 0.264884 0.284757 -0.008056

loop_
_geom_bond_atom_site_label_1
_geom_bond_atom_site_label_2
_ccdc_geom_bond_type
C6    C32   S    
C4    H19   S    
C27   C29   A    
C5    H22   S    
C16   N6    S    
C2    C6    S    
C12   N2    A    
H26   O6    S    
C5    H24   S    
C29   H13   S    
Cu1   O1    S    
C19   C21   A    
C3    C7    S    
C5    C6    S    
C3    H20   S    
C20   C25   A    
C15   C16   S    
C23   H9    S    
C17   O10   A    
C15   H3    S    
Cu1   N6    S    
C27   H10   S    
O5    S2    D    
C7    C17   S    
C18   O12   A    
C18   C30   S    
Cu2   O9    S    
O2    S1    D    
Cu1   O10   S    
O4    S2    D    
C10   N5    S    
C9    H12   S    
C13   C14   S    
C8    C25   S    
C32   H14   S    
C10   H28   S    
C4    C7    S    
C12   N1    A    
C28   H11   S    
C18   O13   A    
C27   C31   A    
C1    C6    S    
C10   H23   S    
C2    H17   S    
O14   S1    D    
C13   N5    S    
C15   H32   S    
C8    O9    A    
N1    N3    A    
Cu2   O13   S    
C23   C31   A    
C2    C4    S    
C5    C9    S    
C29   C30   A    
C2    H15   S    
Cu2   O7    S    
Cu1   Cu2   S    
C23   C28   A    
C32   H16   S    
C21   H7    S    
O3    S1    S    
C20   C22   A    
C4    H21   S    
C26   N4    A    
C22   C24   A    
Cu2   O11   S    
H25   O3    S    
C8    O8    A    
O6    S2    S    
C7    C9    S    
C11   N6    S    
C14   N6    S    
C11   H27   S    
C3    H18   S    
Cu1   O8    S    
C15   N5    S    
C12   C24   S    
C19   S1    S    
C1    O1    A    
C28   C30   A    
C16   H2    S    
C22   H8    S    
C13   H30   S    
C1    O7    A    
C20   S2    S    
C14   H31   S    
C3    C32   S    
C19   C25   A    
Cu1   O12   S    
C13   H5    S    
C10   C11   S    
C14   H6    S    
C26   C31   S    
N2    N4    A    
C21   C24   A    
C9    H1    S    
C26   N3    A    
C17   O11   A    
C11   H29   S    
Cu2   N5    S    
C16   H4    S    
