data_mof_unit_18323.cif
_audit_creation_date              2012-12-10T17:04:21-0500
_audit_creation_method            fapswitch 2.2
_symmetry_space_group_name_H-M    P1
_symmetry_Int_Tables_number       1
_space_group_crystal_system       triclinic
_cell_length_a                    18.951287
_cell_length_b                    18.930399
_cell_length_c                    18.868712
_cell_angle_alpha                 108.856612
_cell_angle_beta                  109.73228
_cell_angle_gamma                 109.176506
_cell_volume                      5252.0131843

loop_
_atom_site_label
_atom_site_type_symbol
_atom_type_description
_atom_site_fract_x
_atom_site_fract_y
_atom_site_fract_z
_atom_type_partial_charge
C1    C     C_R   0.620046 0.618318 0.500865 0.928421
C2    C     C_3   0.185208 0.420984 0.206371 0.272337
C3    C     C_3   0.225837 0.475267 0.304195 0.140178
C4    C     C_3   0.316374 0.502406 0.314621 -0.222285
C5    C     C_R   0.609455 0.767424 0.493888 0.323051
C6    C     C_R   0.614089 0.847677 0.519919 0.160430
C7    C     C_R   0.688900 0.919067 0.543711 0.254335
C8    C     C_R   0.759535 0.909957 0.543002 0.339285
C9    C     C_R   0.754976 0.827676 0.516235 -0.098205
C10   C     C_R   0.683642 0.759019 0.503049 -0.168876
C11   C     C_R   0.818526 0.811800 0.500757 -0.072354
C12   C     C_R   0.383392 0.502106 0.381202 0.873141
C13   C     C_R   0.817376 0.731533 0.484977 -0.130247
C14   C     C_R   0.755864 0.671377 0.492424 -0.071647
C15   C     C_R   0.687981 0.684310 0.499702 -0.098394
C16   C     C_R   0.874257 0.707089 0.461548 0.187934
C17   C     C_R   0.857837 0.621867 0.431059 0.265498
C18   C     C_R   0.799434 0.565734 0.443182 0.190092
C19   C     C_R   0.762441 0.597558 0.489111 0.391281
C20   C     C_R   0.785671 0.657677 0.753535 0.365088
C21   C     C_R   0.851768 0.735462 0.828529 0.216404
C22   C     C_R   0.900137 0.734435 0.903010 0.233402
C23   C     C_R   0.381749 0.382143 0.501379 0.923702
C24   C     C_R   0.881082 0.655837 0.902664 0.347951
C25   C     C_R   0.820098 0.576279 0.824439 -0.128637
C26   C     C_R   0.763957 0.578019 0.754098 -0.127508
C27   C     C_R   0.813828 0.495561 0.814545 -0.107625
C28   C     C_R   0.740620 0.415515 0.740972 -0.085798
C29   C     C_R   0.673266 0.420363 0.683584 -0.068384
C30   C     C_R   0.687234 0.500387 0.687141 -0.091632
C31   C     C_R   0.729957 0.330366 0.720062 0.090433
C32   C     C_R   0.658599 0.257494 0.642043 0.196617
C33   C     C_R   0.590095 0.264449 0.593323 0.168187
C34   C     C_R   0.620918 0.501615 0.619499 1.045111
C35   C     C_R   0.593278 0.343891 0.621124 0.272635
C36   C     C_R   0.395225 0.400363 0.673411 0.083205
C37   C     C_R   0.390025 0.412214 0.748829 0.332854
C38   C     C_R   0.313149 0.367917 0.742700 0.229933
C39   C     C_R   0.253237 0.287884 0.669276 0.048072
C40   C     C_R   0.253921 0.268161 0.588433 -0.063294
C41   C     C_R   0.322635 0.330148 0.588425 -0.042635
C42   C     C_R   0.187122 0.191550 0.507994 -0.089427
C43   C     C_R   0.180870 0.181874 0.427835 -0.098040
C44   C     C_R   0.237980 0.249891 0.425130 -0.125486
C45   C     C_3   0.317585 0.580191 0.303782 0.339134
C46   C     C_R   0.314718 0.318664 0.505030 -0.091578
C47   C     C_R   0.115974 0.105032 0.348006 0.379903
C48   C     C_R   0.084378 0.108799 0.271597 0.216528
C49   C     C_R   0.128350 0.184288 0.271925 0.266405
C50   C     C_R   0.211696 0.245748 0.341502 0.166067
C51   C     C_R   0.997424 0.618020 0.116487 0.911373
C52   C     C_R   0.122221 0.500987 0.125092 0.904438
C53   C     C_R   0.002938 0.382085 0.883649 0.892186
C54   C     C_R   0.883860 0.496645 0.881245 0.918817
C55   C     C_R   0.001814 0.882329 0.382216 1.021133
C56   C     C_3   0.227980 0.553443 0.294845 0.174304
C57   C     C_R   0.882464 0.877791 0.497026 1.004066
C58   C     C_R   0.000264 0.120484 0.617139 0.870624
C59   C     C_R   0.118559 0.123057 0.504986 0.937107
C60   C     C_R   0.156050 0.746204 0.281748 0.322386
C61   C     C_R   0.235585 0.817327 0.348460 0.162910
C62   C     C_R   0.238978 0.890922 0.401818 0.250662
C63   C     C_R   0.162600 0.894557 0.385701 0.367554
C64   C     C_R   0.080163 0.820044 0.321490 -0.099656
C65   C     C_R   0.077118 0.748606 0.262385 -0.149399
C66   C     C_R   0.001114 0.814324 0.315315 -0.105553
C67   C     C_3   0.186588 0.499532 0.195262 -0.249333
C68   C     C_R   0.920295 0.743355 0.244691 -0.052335
C69   C     C_R   0.917289 0.682541 0.174113 -0.043640
C70   C     C_R   0.996679 0.683205 0.185154 -0.083849
C71   C     C_R   0.841154 0.730772 0.243136 0.268872
C72   C     C_R   0.764089 0.684026 0.163849 0.175397
C73   C     C_R   0.762785 0.636814 0.089415 0.345174
C74   C     C_R   0.834210 0.624663 0.096387 0.083705
C75   C     C_R   0.944660 0.367274 0.711354 0.037718
C76   C     C_R   0.894984 0.344862 0.625768 0.178115
C77   C     C_R   0.907283 0.295669 0.564376 0.382148
C78   C     C_3   0.277343 0.525369 0.205936 0.212771
C79   C     C_R   0.952771 0.252034 0.583637 0.130853
C80   C     C_R   0.975758 0.249297 0.664453 -0.076131
C81   C     C_R   0.975048 0.311986 0.731180 -0.055701
C82   C     C_R   0.998862 0.188358 0.682064 -0.143587
C83   C     C_R   0.023464 0.193114 0.764573 -0.076785
C84   C     C_R   0.034130 0.262507 0.832658 -0.007984
C85   C     C_R   0.003620 0.317631 0.814744 -0.104039
C86   C     C_R   0.039962 0.130523 0.783263 0.258615
C87   C     C_R   0.101399 0.155838 0.866120 0.356177
C88   C     C_R   0.121105 0.230078 0.933763 -0.335950
C89   C     C_3   0.275273 0.447673 0.216470 0.201655
C90   C     C_R   0.075818 0.273391 0.917208 0.168905
Cu1   Cu    Cu3+1 0.500490 0.438210 0.438660 1.012182
Cu2   Cu    Cu3+1 0.499510 0.561790 0.561340 0.973629
Cu3   Cu    Cu3+1 0.942070 0.438200 0.003850 0.915817
Cu4   Cu    Cu3+1 0.065670 0.561760 0.003800 1.027513
Cu5   Cu    Cu3+1 0.062280 0.000030 0.562300 0.968855
Cu6   Cu    Cu3+1 0.937720 0.000000 0.437720 0.999271
H1    H     H_    0.157491 0.243856 0.999375 0.156521
O1    O     O_R   0.590580 0.537990 0.448200 -0.566403
O2    O     O_R   0.055380 0.642340 0.093300 -0.529691
O3    O     O_R   0.042560 0.447800 0.094700 -0.601402
O4    O     O_R   0.146930 0.552150 0.094670 -0.506161
O5    O     O_R   0.952370 0.357620 0.914350 -0.586969
O6    O     O_R   0.056740 0.461970 0.914310 -0.567743
O7    O     O_R   0.860810 0.447810 0.912980 -0.575303
O8    O     O_R   0.965190 0.552160 0.912950 -0.558924
O9    O     O_R   0.053330 0.909870 0.463140 -0.566926
O10   O     O_R   0.948140 0.909840 0.357940 -0.550463
O11   O     O_R   0.962430 0.909850 0.552620 -0.586405
O12   O     O_R   0.589760 0.642350 0.551790 -0.539606
O13   O     O_R   0.857240 0.909830 0.447420 -0.550292
O14   O     O_R   0.051860 0.090180 0.642080 -0.602763
O15   O     O_R   0.946670 0.090160 0.536880 -0.559713
O16   O     O_R   0.142760 0.090200 0.552610 -0.539804
O17   O     O_R   0.037570 0.090170 0.447410 -0.598258
O18   O     O_R   0.409540 0.447820 0.357340 -0.571404
O19   O     O_R   0.408720 0.552180 0.460940 -0.579087
O20   O     O_R   0.410240 0.357650 0.448210 -0.557606
O21   O     O_R   0.409420 0.462010 0.551800 -0.591649
O22   O     O_R   0.591280 0.447820 0.539060 -0.544663
O23   O     O_R   0.590460 0.552180 0.642660 -0.587411
O24   O     O_R   0.951000 0.537990 0.093340 -0.584197
N1    N     N_2   0.203284 0.607934 0.342558 -0.404747
H2    H     H_    0.139387 0.576417 0.325209 0.245238
C91   C     C_3   0.259355 0.658517 0.435147 -0.626811
H3    H     H_    0.237988 0.703337 0.462398 0.212183
H4    H     H_    0.326742 0.697219 0.452130 0.272357
H5    H     H_    0.256712 0.616719 0.465041 0.214340
O25   O     O_3   0.693817 0.998207 0.564511 -0.758020
H6    H     H_    0.635050 0.990206 0.538345 0.359962
O26   O     O_3   0.834949 0.981706 0.571916 -0.710350
H7    H     H_    0.831395 0.034641 0.594490 0.373574
N2    N     N_2   0.952728 0.767247 0.475257 -0.365848
H8    H     H_    0.961762 0.747992 0.422858 0.300436
C92   C     C_3   0.027336 0.792150 0.553616 -0.587119
H9    H     H_    0.085593 0.843579 0.563940 0.226410
H10   H     H_    0.037935 0.736843 0.548934 0.217537
H11   H     H_    0.018738 0.816836 0.610367 0.222948
O27   O     O_3   0.907497 0.599237 0.399101 -0.745584
H12   H     H_    0.914303 0.553977 0.411111 0.331813
O28   O     O_3   0.735118 0.559237 0.532938 -0.687907
H13   H     H_    0.751735 0.514520 0.531031 0.357937
N3    N     N_2   0.523952 0.194803 0.509600 -0.402667
H14   H     H_    0.511665 0.211649 0.461724 0.265469
C93   C     C_3   0.446480 0.136899 0.502799 -0.637530
H15   H     H_    0.390705 0.142047 0.465214 0.211610
H16   H     H_    0.452461 0.150499 0.567045 0.229887
H17   H     H_    0.433075 0.070433 0.467595 0.260751
O29   O     O_3   0.743153 0.658191 0.678302 -0.700683
H18   H     H_    0.771320 0.715561 0.684109 0.372503
O30   O     O_3   0.864642 0.811572 0.828147 -0.749453
H19   H     H_    0.884596 0.856028 0.886756 0.342546
O31   O     O_3   0.968506 0.808913 0.976468 -0.732663
H20   H     H_    0.995178 0.850212 0.959480 0.343300
O32   O     O_3   0.918784 0.655837 0.979297 -0.742777
H21   H     H_    0.948840 0.714055 0.029166 0.369066
O33   O     O_3   0.384332 0.664363 0.350987 -0.726658
H22   H     H_    0.381299 0.686770 0.309932 0.338650
N4    N     N_2   0.789983 0.315586 0.773938 -0.392887
H23   H     H_    0.826168 0.298414 0.749308 0.230985
C94   C     C_3   0.757189 0.263387 0.809621 -0.560386
H24   H     H_    0.798498 0.296852 0.880555 0.240424
H25   H     H_    0.757925 0.202191 0.783382 0.193156
H26   H     H_    0.691015 0.249889 0.796313 0.199723
N5    N     N_2   0.655464 0.176308 0.612036 -0.380340
H27   H     H_    0.713143 0.177163 0.624588 0.268555
C95   C     C_3   0.596576 0.110986 0.619524 -0.615031
H28   H     H_    0.547742 0.055487 0.554407 0.240419
H29   H     H_    0.563470 0.135257 0.651477 0.212319
H30   H     H_    0.631926 0.088269 0.658264 0.212988
O34   O     O_3   0.518727 0.347981 0.587985 -0.767083
H31   H     H_    0.468025 0.291691 0.562748 0.333047
O35   O     O_3   0.096658 0.195743 0.201557 -0.737311
H32   H     H_    0.032957 0.165280 0.172634 0.339989
N6    N     N_2   0.472326 0.463544 0.687049 -0.378174
H33   H     H_    0.523903 0.453614 0.709107 0.257830
C96   C     C_3   0.494076 0.552927 0.735131 -0.514120
H34   H     H_    0.503572 0.587221 0.698763 0.241498
H35   H     H_    0.554594 0.587334 0.797877 0.200298
H36   H     H_    0.442058 0.558375 0.747180 0.203741
O36   O     O_3   0.459391 0.470687 0.830893 -0.686925
H37   H     H_    0.512263 0.472828 0.830761 0.332242
N7    N     N_2   0.303508 0.398523 0.816999 -0.379448
H38   H     H_    0.264383 0.354419 0.826404 0.249763
C97   C     C_3   0.288580 0.470811 0.831399 -0.635585
H39   H     H_    0.286739 0.493771 0.892530 0.232400
H40   H     H_    0.225935 0.451422 0.777480 0.190924
H41   H     H_    0.341104 0.524488 0.836768 0.254775
N8    N     N_2   0.201256 0.226172 0.682618 -0.418226
H42   H     H_    0.163688 0.244041 0.704449 0.226296
C98   C     C_3   0.248453 0.196141 0.732763 -0.556848
H43   H     H_    0.204239 0.145505 0.738250 0.234451
H44   H     H_    0.298560 0.248652 0.799116 0.194201
H45   H     H_    0.280363 0.169097 0.701067 0.229001
O37   O     O_3   0.086285 0.026932 0.345859 -0.688467
H46   H     H_    0.050745 0.979131 0.285699 0.370016
O38   O     O_3   0.012911 0.037148 0.197756 -0.734420
H47   H     H_    0.014731 0.038818 0.146451 0.343968
O39   O     O_3   0.305519 0.551447 0.154490 -0.708867
H48   H     H_    0.365606 0.562303 0.177017 0.333695
N9    N     N_2   0.267039 0.297863 0.322401 -0.385970
H49   H     H_    0.243040 0.331649 0.298658 0.302333
C99   C     C_3   0.291187 0.250542 0.266196 -0.517893
H50   H     H_    0.339198 0.294617 0.258099 0.253188
H51   H     H_    0.234548 0.202899 0.201028 0.223977
H52   H     H_    0.319930 0.216784 0.294156 0.202642
O40   O     O_3   0.687336 0.595866 0.011903 -0.703448
H53   H     H_    0.700165 0.582953 0.964104 0.314946
O41   O     O_3   0.158217 0.673478 0.240353 -0.700540
H54   H     H_    0.109167 0.625457 0.232428 0.299019
N10   N     N_2   0.313129 0.814373 0.362952 -0.430410
H55   H     H_    0.308141 0.755609 0.351486 0.327092
C100  C     C_3   0.356210 0.851753 0.323566 -0.661737
H56   H     H_    0.315927 0.813541 0.252114 0.251774
H57   H     H_    0.418641 0.852171 0.343057 0.225964
H58   H     H_    0.369287 0.918908 0.345080 0.234287
O42   O     O_3   0.315450 0.959528 0.473276 -0.769613
H59   H     H_    0.361558 0.944019 0.485352 0.352306
O43   O     O_3   0.168205 0.971680 0.431115 -0.677477
H60   H     H_    0.227565 0.019854 0.460939 0.371773
O44   O     O_3   0.840220 0.761015 0.319670 -0.765988
H61   H     H_    0.781427 0.730414 0.309818 0.321263
N11   N     N_2   0.688110 0.686938 0.157840 -0.384760
H62   H     H_    0.698660 0.743457 0.202890 0.252985
C101  C     C_3   0.622911 0.611321 0.147042 -0.589493
H63   H     H_    0.647331 0.602943 0.204473 0.186591
H64   H     H_    0.603305 0.553202 0.088701 0.274211
H65   H     H_    0.565166 0.618212 0.139127 0.224186
N12   N     N_2   0.817801 0.549027 0.029326 -0.373036
H66   H     H_    0.795569 0.545097 0.969624 0.267198
C102  C     C_3   0.766106 0.470589 0.025876 -0.588805
H67   H     H_    0.762477 0.415208 0.977447 0.223631
H68   H     H_    0.699511 0.459181 0.006909 0.217767
H69   H     H_    0.795460 0.474038 0.089664 0.228363
O45   O     O_3   0.300873 0.392967 0.176233 -0.725998
H70   H     H_    0.276184 0.381578 0.115781 0.329532
N13   N     N_2   0.980097 0.453876 0.773509 -0.388737
H71   H     H_    0.939139 0.478707 0.763452 0.252657
C103  C     C_3   0.063313 0.510887 0.788920 -0.581629
H72   H     H_    0.089364 0.575883 0.842099 0.219663
H73   H     H_    0.057471 0.515499 0.730284 0.188993
H74   H     H_    0.109609 0.487631 0.807886 0.226506
N14   N     N_2   0.846206 0.385619 0.604012 -0.393811
H75   H     H_    0.812253 0.393379 0.635726 0.235799
C104  C     C_3   0.885181 0.457263 0.591722 -0.574245
H76   H     H_    0.898664 0.517438 0.643323 0.190986
H77   H     H_    0.839784 0.445460 0.528556 0.284835
H78   H     H_    0.946111 0.465563 0.592023 0.216377
O46   O     O_3   0.883013 0.300129 0.489106 -0.706919
H79   H     H_    0.935896 0.323390 0.485262 0.323283
N15   N     N_2   0.983216 0.222406 0.526683 -0.432059
H80   H     H_    0.043729 0.228636 0.551705 0.231760
C105  C     C_3   0.924407 0.172318 0.433530 -0.514684
H81   H     H_    0.919004 0.108764 0.405945 0.245415
H82   H     H_    0.947768 0.206685 0.401456 0.190728
H83   H     H_    0.857426 0.158103 0.416463 0.239111
N16   N     N_2   0.983182 0.041035 0.726068 -0.367558
H84   H     H_    0.015240 0.006703 0.719636 0.299508
C106  C     C_3   0.918850 0.004086 0.747677 -0.594149
H85   H     H_    0.876997 0.934516 0.701102 0.235872
H86   H     H_    0.878323 0.035376 0.745054 0.224149
H87   H     H_    0.949786 0.011656 0.813253 0.235020
O47   O     O_3   0.129278 0.100256 0.880206 -0.746844
H88   H     H_    0.171053 0.127460 0.942421 0.329613
N17   N     N_2   0.058428 0.312018 0.981509 -0.401754
H89   H     H_    0.113373 0.351425 0.040204 0.261878
C107  C     C_3   0.988076 0.250375 0.981449 -0.509176
H90   H     H_    0.971741 0.284129 0.028072 0.258070
H91   H     H_    0.006001 0.205843 0.999387 0.212356
H92   H     H_    0.929556 0.212233 0.916519 0.199986
O48   O     O_3   0.116575 0.337564 0.161723 -0.716177
H93   H     H_    0.140597 0.299521 0.146164 0.366819
N18   N     N_2   0.199515 0.444749 0.357296 -0.420721
H94   H     H_    0.244211 0.479530 0.422122 0.251665
C108  C     C_3   0.111968 0.419688 0.339220 -0.601032
H95   H     H_    0.093176 0.375758 0.364794 0.216272
H96   H     H_    0.066445 0.385710 0.268866 0.275677
H97   H     H_    0.106914 0.476737 0.371571 0.197345
O49   O     O_3   0.778515 0.480777 0.413133 -0.757394
H98   H     H_    0.783990 0.460693 0.360850 0.342848
O50   O     O_3   0.529848 0.697439 0.454150 -0.663081
H99   H     H_    0.524480 0.652871 0.403783 0.307153
N19   N     N_2   0.543326 0.857289 0.522485 -0.426289
H100  H     H_    0.483414 0.806780 0.474667 0.330404
C109  C     C_3   0.550451 0.886179 0.606744 -0.679979
H101  H     H_    0.496417 0.898256 0.604488 0.222044
H102  H     H_    0.611873 0.946800 0.655366 0.236922
H103  H     H_    0.547500 0.836406 0.626473 0.244148

loop_
_geom_bond_atom_site_label_1
_geom_bond_atom_site_label_2
_ccdc_geom_bond_type
C8    C9    A    
C66   C68   A    
C73   O40   S    
Cu4   O8    S    
C36   N6    S    
Cu3   Cu4   S    
C59   O17   A    
O30   H19   S    
C108  H97   S    
C73   C74   A    
C47   O37   S    
C76   N14   S    
Cu5   Cu6   S    
C87   C88   A    
O25   H6    S    
C55   C66   S    
C92   H11   S    
N12   C102  S    
C97   H39   S    
C27   C54   S    
C7    C8    A    
C95   H29   S    
C104  H76   S    
Cu6   O15   S    
C103  H74   S    
N19   H100  S    
C29   C30   A    
O28   H13   S    
C99   H51   S    
C60   C61   A    
C58   O15   A    
N13   C103  S    
C63   O43   S    
C105  H82   S    
C28   C29   A    
O35   H32   S    
Cu3   O24   S    
C18   C19   A    
C10   C15   A    
C58   C82   S    
C5    C6    A    
Cu2   O12   S    
C16   C17   A    
O34   H31   S    
N15   C105  S    
C65   C70   A    
Cu1   O18   S    
C45   C78   S    
O38   H47   S    
N13   H71   S    
C102  H69   S    
N8    C98   S    
C108  H95   S    
Cu2   O21   S    
N6    H33   S    
O44   H61   S    
C74   N12   S    
C98   H45   S    
C1    O12   A    
C57   O11   A    
C18   O49   S    
C96   H36   S    
C31   C32   A    
C45   C56   S    
C104  H77   S    
N9    H49   S    
C99   H52   S    
N16   C106  S    
C19   O28   S    
C47   C48   A    
N14   C104  S    
C41   C46   A    
Cu1   O20   S    
C17   O27   S    
C1    C15   S    
C51   C70   S    
C7    O25   S    
C4    C12   S    
C90   N17   S    
C9    C10   A    
C108  H96   S    
C88   H1    S    
C72   C73   A    
C12   O18   A    
C40   C42   A    
O37   H46   S    
C23   C46   S    
C13   C14   A    
C48   O38   S    
N4    C94   S    
N17   C107  S    
Cu6   O17   S    
C36   C41   A    
C6    N19   S    
C5    O50   S    
C84   C90   A    
C23   O21   A    
C93   H17   S    
Cu5   O16   S    
Cu3   O7    S    
N12   H66   S    
C44   C46   A    
N14   H75   S    
C6    C7    A    
C22   O31   S    
C4    C45   S    
C77   C79   A    
C78   C89   S    
C51   O2    A    
C2    O48   S    
C103  H73   S    
C52   O4    A    
C99   H50   S    
C30   C34   S    
C55   O9    A    
C58   O14   A    
C94   H26   S    
C69   C74   A    
C24   C25   A    
Cu4   O4    S    
C80   C82   A    
C2    C67   S    
Cu5   O11   S    
Cu1   Cu2   S    
C50   N9    S    
O40   H53   S    
O41   H54   S    
C92   H10   S    
C24   O32   S    
C101  H63   S    
C25   C26   A    
Cu6   O13   S    
C52   O3    A    
O50   H99   S    
C3    N18   S    
C63   C64   A    
C55   O10   A    
N8    H42   S    
C56   N1    S    
C89   O45   S    
C1    O1    A    
C2    C89   S    
C106  H86   S    
C43   C44   A    
C28   C31   A    
C98   H43   S    
N17   H89   S    
C37   C38   A    
N5    H27   S    
Cu5   O9    S    
Cu2   O23   S    
C9    C11   A    
C3    C56   S    
O26   H7    S    
C83   C84   A    
Cu3   O3    S    
C100  H58   S    
C53   O5    A    
C59   O16   A    
O42   H59   S    
C72   N11   S    
N16   H84   S    
C20   C21   A    
C62   C63   A    
C20   O29   S    
C17   C18   A    
C75   N13   S    
C61   N10   S    
C45   O33   S    
C11   C57   S    
C21   O30   S    
C84   C85   A    
C102  H68   S    
Cu2   O19   S    
C87   O47   S    
O32   H21   S    
O39   H48   S    
C52   C67   S    
C107  H91   S    
C95   H30   S    
C105  H83   S    
N18   C108  S    
C39   N8    S    
C93   H16   S    
C96   H34   S    
Cu6   O10   S    
C100  H57   S    
C60   C65   A    
C49   C50   A    
C43   C47   A    
N10   C100  S    
C91   H5    S    
C8    O26   S    
N4    H23   S    
C51   O24   A    
C79   N15   S    
Cu1   O22   S    
O27   H12   S    
C106  H87   S    
O45   H70   S    
N18   H94   S    
N1    C91   S    
C3    C4    S    
C101  H65   S    
C94   H25   S    
C39   C40   A    
N3    C93   S    
O46   H79   S    
C86   C87   A    
C91   H4    S    
C4    C89   S    
C44   C50   A    
C34   O22   A    
C37   O36   S    
C103  H72   S    
C36   C37   A    
C75   C76   A    
C98   H44   S    
C54   O8    A    
N11   C101  S    
O48   H93   S    
Cu3   O5    S    
C62   O42   S    
C14   C19   A    
C68   C69   A    
C109  H103  S    
C60   O41   S    
C14   C15   A    
C96   H35   S    
C88   C90   A    
C80   C81   A    
C107  H92   S    
C101  H64   S    
C42   C59   S    
C23   O20   A    
C49   O35   S    
C53   C85   S    
C97   H41   S    
C57   O13   A    
C26   C30   A    
O47   H88   S    
C75   C81   A    
C33   N3    S    
C25   C27   A    
C56   C67   S    
C78   O39   S    
Cu4   O6    S    
C29   C35   A    
C92   H9    S    
N19   C109  S    
C38   N7    S    
C104  H78   S    
C67   C78   S    
C93   H15   S    
C77   O46   S    
C32   C33   A    
N5    C95   S    
C2    C3    S    
N15   H80   S    
C102  H67   S    
Cu5   O14   S    
C64   C65   A    
C76   C77   A    
C11   C13   A    
O43   H60   S    
C38   C39   A    
C95   H28   S    
C20   C26   A    
Cu4   O2    S    
C53   O6    A    
C68   C71   A    
C48   C49   A    
C32   N5    S    
C109  H102  S    
C33   C35   A    
N6    C96   S    
C97   H40   S    
N2    H8    S    
C22   C24   A    
O29   H18   S    
N10   H55   S    
Cu1   O1    S    
C54   O7    A    
C61   C62   A    
C16   N2    S    
C94   H24   S    
N7    C97   S    
C31   N4    S    
C109  H101  S    
C107  H90   S    
C71   O44   S    
C79   C80   A    
C5    C10   A    
C83   C86   A    
O33   H22   S    
C100  H56   S    
C34   O23   A    
N2    C92   S    
C82   C83   A    
C42   C43   A    
C13   C16   A    
C106  H85   S    
C27   C28   A    
N3    H14   S    
C35   O34   S    
O49   H98   S    
C105  H81   S    
C40   C41   A    
O31   H20   S    
C69   C70   A    
C71   C72   A    
N1    H2    S    
C21   C22   A    
C86   N16   S    
N11   H62   S    
N9    C99   S    
C81   C85   A    
O36   H37   S    
N7    H38   S    
C64   C66   A    
C91   H3    S    
C12   O19   A    
