data_mof_unit_24800.cif
_audit_creation_date              2012-12-11T16:44:24-0500
_audit_creation_method            fapswitch 2.2
_symmetry_space_group_name_H-M    P1
_symmetry_Int_Tables_number       1
_space_group_crystal_system       triclinic
_cell_length_a                    27.208056
_cell_length_b                    7.187865
_cell_length_c                    22.774585
_cell_angle_alpha                 90.000695
_cell_angle_beta                  101.38187
_cell_angle_gamma                 90.000138
_cell_volume                      4366.38287847

loop_
_atom_site_label
_atom_site_type_symbol
_atom_type_description
_atom_site_fract_x
_atom_site_fract_y
_atom_site_fract_z
_atom_type_partial_charge
O1    O     O_R   0.707300 0.594030 0.176840 -0.523332
O2    O     O_R   0.292700 0.405970 0.823160 -0.534134
O3    O     O_R   0.792700 0.094030 0.323160 -0.523342
O4    O     O_R   0.207300 0.905970 0.676840 -0.534134
O5    O     O_R   0.697330 0.262360 0.295660 -0.539041
O6    O     O_R   0.302670 0.737640 0.704340 -0.535876
O7    O     O_R   0.802670 0.762360 0.204340 -0.539041
O8    O     O_R   0.197330 0.237640 0.795660 -0.535876
C1    C     C_R   0.683843 0.433269 0.310596 0.697857
C2    C     C_R   0.316009 0.566752 0.689131 0.690420
C3    C     C_R   0.816157 0.933268 0.189404 0.697862
C4    C     C_R   0.183991 0.066753 0.810869 0.690417
O9    O     O_R   0.701410 0.264250 0.175600 -0.543035
O10   O     O_R   0.298590 0.735750 0.824400 -0.534725
O11   O     O_R   0.798590 0.764250 0.324400 -0.543032
O12   O     O_R   0.201410 0.235750 0.675600 -0.534722
O13   O     O_R   0.796800 0.094950 0.202240 -0.542426
O14   O     O_R   0.203200 0.905050 0.797760 -0.542866
O15   O     O_R   0.703200 0.594950 0.297760 -0.542425
O16   O     O_R   0.296800 0.405050 0.702240 -0.542866
C5    C     C_R   0.689870 0.432665 0.153352 0.743053
C6    C     C_R   0.310127 0.567322 0.846664 0.704107
C7    C     C_R   0.810130 0.932668 0.346648 0.743062
C8    C     C_R   0.189873 0.067320 0.653336 0.704108
O17   O     O_3   0.781290 0.427390 0.258880 -0.373219
O18   O     O_3   0.218710 0.572610 0.741120 -0.373169
O19   O     O_3   0.718710 0.927390 0.241120 -0.373216
O20   O     O_3   0.281290 0.072610 0.758880 -0.373171
V1    V     V_3+5 0.744190 0.152150 0.248350 1.421239
V2    V     V_3+5 0.255810 0.847850 0.751650 1.396163
V3    V     V_3+5 0.755810 0.652150 0.251650 1.421243
V4    V     V_3+5 0.244190 0.347850 0.748350 1.396164
C9    C     C_R   0.154709 0.060052 0.594723 -0.171928
C10   C     C_R   0.845489 0.939896 0.405085 -0.123933
C11   C     C_R   0.345292 0.560064 0.905277 -0.171931
C12   C     C_R   0.654511 0.439884 0.094914 -0.123937
C13   C     C_R   0.140498 0.079000 0.485963 0.242513
C14   C     C_R   0.860561 0.915670 0.513729 0.248929
C15   C     C_R   0.359505 0.579091 0.014037 0.242510
C16   C     C_R   0.639435 0.415581 0.986272 0.248925
C17   C     C_R   0.172619 0.096364 0.542028 0.113275
C18   C     C_R   0.828432 0.895819 0.457795 0.084403
C19   C     C_R   0.327384 0.596431 0.957971 0.113278
C20   C     C_R   0.671565 0.395753 0.042206 0.084408
C21   C     C_R   0.103011 0.025965 0.591469 0.121258
C22   C     C_R   0.896457 0.983477 0.407801 0.134052
C23   C     C_R   0.396988 0.525944 0.908532 0.121261
C24   C     C_R   0.603544 0.483501 0.092197 0.134055
C25   C     C_R   0.069149 0.027008 0.534771 0.042330
C26   C     C_R   0.930863 0.981685 0.464412 -0.002763
C27   C     C_R   0.430851 0.527015 0.965229 0.042331
C28   C     C_R   0.569137 0.481682 0.035587 -0.002765
C29   C     C_R   0.090043 0.022270 0.482231 -0.098216
C30   C     C_R   0.910309 0.980084 0.517208 -0.080298
C31   C     C_R   0.409959 0.522335 0.017770 -0.098216
C32   C     C_R   0.589690 0.480023 0.982790 -0.080296
C33   C     C_R   0.015450 0.024307 0.528001 0.064977
C34   C     C_R   0.984545 0.985193 0.471181 0.028710
C35   C     C_R   0.484550 0.524293 0.971998 0.064976
C36   C     C_R   0.515455 0.485213 0.028820 0.028708
C37   C     C_R   0.008469 0.931925 0.424646 -0.214655
C38   C     C_R   0.991436 0.074528 0.574852 -0.145281
C39   C     C_R   0.491531 0.431998 0.075360 -0.214659
C40   C     C_R   0.508564 0.574461 0.925142 -0.145284
C41   C     C_R   0.059921 0.953544 0.428830 0.203376
C42   C     C_R   0.940127 0.048942 0.570746 0.182123
C43   C     C_R   0.440080 0.453640 0.071176 0.203380
C44   C     C_R   0.559872 0.548852 0.929248 0.182126
H1    H     H_    0.987794 0.863534 0.385376 0.158096
H2    H     H_    0.011704 0.143499 0.614341 0.180449
H3    H     H_    0.512205 0.363632 0.114634 0.158095
H4    H     H_    0.488297 0.643408 0.885648 0.180449
C45   C     C_R   0.888039 0.105945 0.155195 0.136403
C46   C     C_R   0.113243 0.892933 0.847398 0.142622
C47   C     C_R   0.611964 0.605952 0.344810 0.136399
C48   C     C_R   0.386757 0.392933 0.652603 0.142619
C49   C     C_R   0.924138 0.114763 0.118454 0.235640
C50   C     C_R   0.077318 0.885544 0.884386 0.236301
C51   C     C_R   0.575864 0.614768 0.381550 0.235642
C52   C     C_R   0.422682 0.385543 0.615614 0.236303
C53   C     C_R   0.929587 0.966640 0.080016 0.075217
C54   C     C_R   0.071595 0.035710 0.921916 0.074735
C55   C     C_R   0.570412 0.466638 0.419984 0.075219
C56   C     C_R   0.428404 0.535705 0.578084 0.074733
C57   C     C_R   0.899496 0.808100 0.079329 -0.154979
C58   C     C_R   0.101243 0.194893 0.921418 -0.154277
C59   C     C_R   0.600501 0.308095 0.420666 -0.154976
C60   C     C_R   0.398756 0.694886 0.578581 -0.154278
H5    H     H_    0.903317 0.693103 0.049821 0.149441
H6    H     H_    0.097339 0.311190 0.950385 0.148531
H7    H     H_    0.596678 0.193093 0.450171 0.149436
H8    H     H_    0.402659 0.811181 0.549614 0.148532
C61   C     C_R   0.863694 0.797538 0.115746 -0.175926
C62   C     C_R   0.136670 0.204550 0.884473 -0.171811
C63   C     C_R   0.636303 0.297534 0.384250 -0.175918
C64   C     C_R   0.363329 0.704545 0.615526 -0.171811
H9    H     H_    0.840636 0.673840 0.113280 0.137290
H10   H     H_    0.159288 0.329103 0.885951 0.138390
H11   H     H_    0.659359 0.173832 0.386712 0.137292
H12   H     H_    0.340710 0.829096 0.614048 0.138390
C65   C     C_R   0.856587 0.946180 0.153465 -0.116121
C66   C     C_R   0.143994 0.054081 0.847528 -0.118077
C67   C     C_R   0.643413 0.446182 0.346535 -0.116128
C68   C     C_R   0.356005 0.554079 0.652471 -0.118080
C69   C     C_R   0.011385 0.880174 0.050304 0.188864
C70   C     C_R   0.989989 0.123566 0.951948 0.188686
C71   C     C_R   0.488614 0.380170 0.449694 0.188863
C72   C     C_R   0.510011 0.623561 0.548053 0.188686
C73   C     C_R   0.045519 0.901811 0.012043 -0.149149
C74   C     C_R   0.955877 0.102050 0.990248 -0.150524
C75   C     C_R   0.454480 0.401805 0.487956 -0.149151
C76   C     C_R   0.544123 0.602046 0.509753 -0.150521
H13   H     H_    0.080239 0.823623 0.020747 0.159975
H14   H     H_    0.921125 0.180042 0.981514 0.159437
H15   H     H_    0.419759 0.323617 0.479251 0.159976
H16   H     H_    0.578875 0.680038 0.518487 0.159438
C77   C     C_R   0.035390 0.023409 0.962836 0.030166
C78   C     C_R   0.965982 0.980250 0.039391 0.030411
C79   C     C_R   0.464609 0.523404 0.537164 0.030165
C80   C     C_R   0.534017 0.480247 0.460608 0.030409
I1    I     I_    0.088322 0.817132 0.359327 -0.227955
I2    I     I_    0.910933 0.179606 0.640646 -0.213678
I3    I     I_    0.411677 0.317304 0.140691 -0.227931
I4    I     I_    0.589067 0.679439 0.859337 -0.213658
I5    I     I_    0.031612 0.701213 0.125167 -0.302747
I6    I     I_    0.969536 0.301497 0.876864 -0.300898
I7    I     I_    0.468386 0.201210 0.374830 -0.302740
I8    I     I_    0.530464 0.801492 0.623138 -0.300895
N1    N     N_3   0.909904 0.055463 0.354192 -0.684404
H17   H     H_    0.940150 0.147425 0.363890 0.258331
H18   H     H_    0.917350 0.945296 0.327319 0.222594
N2    N     N_3   0.086121 0.970305 0.644678 -0.664849
H19   H     H_    0.095711 0.073805 0.677203 0.217922
H20   H     H_    0.104726 0.847669 0.660571 0.239052
N3    N     N_3   0.590102 0.555542 0.145802 -0.684384
H21   H     H_    0.559858 0.647510 0.136099 0.258328
H22   H     H_    0.582653 0.445403 0.172684 0.222581
N4    N     N_3   0.413875 0.470228 0.855326 -0.664853
H23   H     H_    0.404288 0.573708 0.822794 0.217912
H24   H     H_    0.395265 0.347591 0.839441 0.239066
N5    N     N_3   0.777796 0.834967 0.455292 -0.613286
H25   H     H_    0.753347 0.937064 0.433712 0.216758
H26   H     H_    0.771909 0.712507 0.430123 0.238247
N6    N     N_3   0.223980 0.148249 0.544728 -0.613257
H27   H     H_    0.247090 0.043234 0.566829 0.219273
H28   H     H_    0.231211 0.271049 0.569528 0.238060
N7    N     N_3   0.722198 0.334869 0.044711 -0.613285
H29   H     H_    0.746651 0.436966 0.066285 0.216759
H30   H     H_    0.728081 0.212423 0.069886 0.238255
N8    N     N_3   0.276025 0.648344 0.955270 -0.613256
H31   H     H_    0.252911 0.543326 0.933176 0.219273
H32   H     H_    0.268797 0.771131 0.930463 0.238066
I9    I     I_    0.166928 0.195989 0.411469 -0.177570
I10   I     I_    0.835870 0.791254 0.588281 -0.175303
I11   I     I_    0.333081 0.696158 0.088524 -0.177588
I12   I     I_    0.664119 0.291087 0.911726 -0.175323
N9    N     N_3   0.885275 0.259962 0.194516 -0.664467
H33   H     H_    0.851977 0.332882 0.179366 0.248610
H34   H     H_    0.886619 0.210669 0.237965 0.261597
N10   N     N_3   0.116592 0.735645 0.809596 -0.662956
H35   H     H_    0.150410 0.666263 0.825033 0.248323
H36   H     H_    0.114462 0.780966 0.765608 0.242692
N11   N     N_3   0.614731 0.759979 0.305494 -0.664467
H37   H     H_    0.648031 0.832888 0.320647 0.248606
H38   H     H_    0.613385 0.710698 0.262043 0.261595
N12   N     N_3   0.383410 0.235652 0.690407 -0.662955
H39   H     H_    0.349592 0.166264 0.674970 0.248325
H40   H     H_    0.385540 0.280980 0.734394 0.242694
N13   N     N_3   0.955714 0.275183 0.120052 -0.621854
H41   H     H_    0.932832 0.391859 0.108971 0.248568
H42   H     H_    0.975869 0.291813 0.163826 0.288347
N14   N     N_3   0.046141 0.724475 0.883913 -0.622490
H43   H     H_    0.025937 0.704979 0.840296 0.290080
H44   H     H_    0.069316 0.608935 0.895635 0.247566
N15   N     N_3   0.544290 0.775193 0.379956 -0.621856
H45   H     H_    0.567174 0.891864 0.391042 0.248561
H46   H     H_    0.524137 0.791836 0.336183 0.288347
N16   N     N_3   0.453859 0.224476 0.616088 -0.622489
H47   H     H_    0.474065 0.204988 0.659705 0.290080
H48   H     H_    0.430685 0.108933 0.604367 0.247568

loop_
_geom_bond_atom_site_label_1
_geom_bond_atom_site_label_2
_ccdc_geom_bond_type
C48   C68   A    
C55   C59   A    
C60   C64   A    
O1    C5    A    
N9    H33   S    
C59   H7    S    
O19   V1    S    
C9    C21   A    
N13   H41   S    
C24   N3    S    
O3    C7    A    
N11   H37   S    
C10   C18   A    
C52   C56   A    
C11   C23   A    
C44   I4    S    
C22   N1    S    
N16   H47   S    
C73   C77   A    
N3    H21   S    
N15   H46   S    
C5    C12   S    
O7    C3    A    
C6    C11   S    
C35   C40   A    
C26   C30   A    
C36   C39   A    
C40   C44   A    
O2    V4    S    
C75   C79   A    
N7    H30   S    
C14   C18   A    
N5    H26   S    
C70   C74   A    
O4    C8    A    
C63   H11   S    
C62   H10   S    
C37   H1    S    
C47   C67   A    
C45   N9    S    
O1    V3    S    
C20   N7    S    
O13   V1    S    
C31   C43   A    
C38   H2    S    
C47   N11   S    
O3    V1    S    
C58   C62   A    
C57   C61   A    
C1    O15   A    
C15   C31   A    
N7    H29   S    
C63   C67   A    
N2    H19   S    
C16   C32   A    
C59   C63   A    
O2    C6    A    
C42   I2    S    
C48   N12   S    
C10   C22   A    
C49   C53   A    
C11   C19   A    
C74   H14   S    
C16   C20   A    
C73   H13   S    
C46   C66   A    
C13   C29   A    
C34   C37   A    
O11   C7    A    
O15   V3    S    
C35   C36   A    
O12   C8    A    
N12   H40   S    
N13   H42   S    
C72   C79   A    
C74   C78   A    
O10   V2    S    
N14   H44   S    
O5    V1    S    
C39   C43   A    
O7    V3    S    
C38   C42   A    
O8    V4    S    
C13   I9    S    
C33   C38   A    
C17   N6    S    
N6    H28   S    
C58   H6    S    
C2    O16   A    
C76   C80   A    
C57   H5    S    
O18   V4    S    
C23   C27   A    
C54   C58   A    
C53   C78   S    
C72   C76   A    
C15   I11   S    
C52   N16   S    
C55   C80   S    
N9    H34   S    
C4    C66   S    
C51   N15   S    
C50   C54   A    
N16   H48   S    
N15   H45   S    
C14   C30   A    
C21   C25   A    
O8    C4    A    
C7    C10   S    
C18   N5    S    
C50   N14   S    
C26   C34   A    
O9    C5    A    
C3    C65   S    
C60   H8    S    
C72   I8    S    
C70   I6    S    
C19   N8    S    
N4    H24   S    
O14   V2    S    
N2    H20   S    
O6    V2    S    
C39   H3    S    
C41   I1    S    
C64   C68   A    
C70   C77   A    
N12   H39   S    
N8    H32   S    
C69   C78   A    
C12   C20   A    
C27   C35   A    
C14   I10   S    
C61   C65   A    
C61   H9    S    
C71   C80   A    
C76   H16   S    
C29   C41   A    
N14   H43   S    
N1    H17   S    
O16   V4    S    
O9    V1    S    
N3    H22   S    
C49   N13   S    
C69   C73   A    
C3    O13   A    
N11   H38   S    
C71   C75   A    
O17   V3    S    
C48   C52   A    
O5    C1    A    
N6    H27   S    
C43   I3    S    
O6    C2    A    
C25   C33   A    
C15   C19   A    
O11   V3    S    
C30   C42   A    
C69   I5    S    
O12   V4    S    
C22   C26   A    
C8    C9    S    
C46   N10   S    
C9    C17   A    
N10   H35   S    
O10   C6    A    
C2    C68   S    
C71   I7    S    
O20   V2    S    
C32   C44   A    
N5    H25   S    
C51   C55   A    
C33   C34   A    
C56   C60   A    
C56   C79   S    
C25   C29   A    
C64   H12   S    
C23   N4    S    
C45   C65   A    
C1    C67   S    
C12   C24   A    
C27   C31   A    
C40   H4    S    
C13   C17   A    
O4    V2    S    
N4    H23   S    
C37   C41   A    
C24   C28   A    
C62   C66   A    
C21   N2    S    
C28   C36   A    
C46   C50   A    
C4    O14   A    
C45   C49   A    
N8    H31   S    
C16   I12   S    
C75   H15   S    
C54   C77   S    
C47   C51   A    
C53   C57   A    
C28   C32   A    
N10   H36   S    
N1    H18   S    
