data_mof_unit_49411.cif
_audit_creation_date              2012-12-11T15:29:40-0500
_audit_creation_method            fapswitch 2.2
_symmetry_space_group_name_H-M    P1
_symmetry_Int_Tables_number       1
_space_group_crystal_system       triclinic
_cell_length_a                    21.451149
_cell_length_b                    7.23881
_cell_length_c                    14.71368
_cell_angle_alpha                 90.000012
_cell_angle_beta                  74.263618
_cell_angle_gamma                 90.000021
_cell_volume                      2199.11875308

loop_
_atom_site_label
_atom_site_type_symbol
_atom_type_description
_atom_site_fract_x
_atom_site_fract_y
_atom_site_fract_z
_atom_type_partial_charge
O1    O     O_R   0.464160 0.506670 0.130070 -0.534922
O2    O     O_R   0.535840 0.006670 0.869930 -0.534924
O3    O     O_R   0.589710 0.179080 0.006710 -0.512836
O4    O     O_R   0.410290 0.679080 0.993290 -0.512837
C1    C     C_R   0.616232 0.344215 0.002306 0.724463
C2    C     C_R   0.383769 0.844215 0.997693 0.724458
O5    O     O_R   0.467940 0.177220 0.138010 -0.538763
O6    O     O_R   0.532060 0.677220 0.861990 -0.538765
O7    O     O_R   0.413200 0.002810 0.002170 -0.545229
O8    O     O_R   0.586800 0.502810 0.997830 -0.545229
C3    C     C_R   0.455709 0.345459 0.174601 0.755337
C4    C     C_R   0.544291 0.845459 0.825399 0.755334
O9    O     O_3   0.482180 0.337850 0.955280 -0.381924
O10   O     O_3   0.517820 0.837850 0.044720 -0.381922
V1    V     V_3+5 0.503310 0.064600 0.008300 1.490911
V2    V     V_3+5 0.496690 0.564600 0.991700 1.490908
C5    C     C_R   0.574157 0.853510 0.723519 -0.076639
C6    C     C_R   0.425843 0.353509 0.276481 -0.076639
C7    C     C_R   0.929674 0.863355 0.277385 -0.103079
C8    C     C_R   0.070326 0.363354 0.722615 -0.103080
C9    C     C_R   0.563712 0.892020 0.565511 -0.145648
C10   C     C_R   0.436287 0.392022 0.434489 -0.145649
C11   C     C_R   0.536985 0.901968 0.662828 -0.279973
C12   C     C_R   0.463014 0.401972 0.337172 -0.279974
C13   C     C_R   0.639598 0.806662 0.687037 0.410138
C14   C     C_R   0.360402 0.306656 0.312964 0.410141
C15   C     C_R   0.670266 0.834288 0.589096 -0.048165
C16   C     C_R   0.329734 0.334283 0.410904 -0.048165
C17   C     C_R   0.630129 0.851469 0.527152 0.037320
C18   C     C_R   0.369870 0.351467 0.472848 0.037319
C19   C     C_R   0.738830 0.844981 0.550717 -0.036984
C20   C     C_R   0.261170 0.344973 0.449283 -0.036982
C21   C     C_R   0.765818 0.815326 0.451972 -0.014042
C22   C     C_R   0.234181 0.315322 0.548029 -0.014042
C23   C     C_R   0.722858 0.768732 0.396365 0.168947
C24   C     C_R   0.277142 0.268730 0.603635 0.168948
C25   C     C_R   0.656474 0.815708 0.429736 0.153402
C26   C     C_R   0.343526 0.315706 0.570264 0.153403
C27   C     C_R   0.780487 0.897171 0.606797 0.337591
C28   C     C_R   0.219512 0.397156 0.393203 0.337588
C29   C     C_R   0.847721 0.885294 0.569419 -0.241243
C30   C     C_R   0.152279 0.385276 0.430581 -0.241249
C31   C     C_R   0.875386 0.855348 0.473127 0.024938
C32   C     C_R   0.124613 0.355334 0.526873 0.024940
C33   C     C_R   0.834327 0.836415 0.412654 0.041751
C34   C     C_R   0.165673 0.336410 0.587346 0.041754
C35   C     C_R   0.943566 0.862256 0.435814 0.299841
C36   C     C_R   0.056433 0.362239 0.564186 0.299840
C37   C     C_R   0.970840 0.855125 0.336560 0.264395
C38   C     C_R   0.029160 0.355114 0.663441 0.264398
C39   C     C_R   0.862665 0.857525 0.315010 -0.308610
C40   C     C_R   0.137335 0.357526 0.684990 -0.308610
H1    H     H_    0.833306 0.875037 0.266694 0.146150
H2    H     H_    0.166694 0.375043 0.733305 0.146144
H3    H     H_    0.878476 0.914933 0.615113 0.175703
H4    H     H_    0.121523 0.414909 0.384887 0.175704
H5    H     H_    0.531613 0.915105 0.521270 0.142003
H6    H     H_    0.468386 0.415111 0.478730 0.142004
H7    H     H_    0.486134 0.935553 0.690773 0.123171
H8    H     H_    0.513865 0.435560 0.309227 0.123172
C41   C     C_3   0.228395 0.789928 0.905034 0.191146
C42   C     C_3   0.771604 0.289946 0.094969 0.191137
H9    H     H_    0.217497 0.877906 0.848833 0.026496
H10   H     H_    0.782503 0.377936 0.151166 0.026503
C43   C     C_3   0.302498 0.807957 0.897633 -0.021784
C44   C     C_3   0.697501 0.307976 0.102369 -0.021779
H11   H     H_    0.319737 0.932313 0.853126 0.090590
H12   H     H_    0.680263 0.432342 0.146870 0.090593
H13   H     H_    0.176840 0.592718 0.073444 0.221024
H14   H     H_    0.823158 0.092700 0.926568 0.221022
C45   C     C_3   0.197099 0.731620 0.080719 -0.379368
C46   C     C_3   0.802900 0.231602 0.919285 -0.379361
C47   C     C_3   0.213441 0.060020 0.018913 0.163183
C48   C     C_3   0.786562 0.560018 0.981075 0.163184
C49   C     C_3   0.186785 0.863426 0.002782 -0.043129
C50   C     C_3   0.813215 0.363425 0.997217 -0.043133
H15   H     H_    0.212736 0.147444 0.956897 0.131037
H16   H     H_    0.787267 0.647456 0.043087 0.131031
C51   C     C_3   0.312620 0.850320 0.997756 -0.038928
C52   C     C_3   0.687380 0.350320 0.002242 -0.038938
C53   C     C_3   0.270576 0.718963 0.076071 0.248689
C54   C     C_3   0.729423 0.218946 0.923934 0.248694
C55   C     C_3   0.284840 0.048466 0.023610 -0.504508
C56   C     C_3   0.715162 0.548462 0.976377 -0.504491
H17   H     H_    0.313957 0.151923 0.973798 0.164804
H18   H     H_    0.686046 0.651931 0.026184 0.164814
H19   H     H_    0.288816 0.087019 0.095049 0.218622
H20   H     H_    0.711187 0.587000 0.904936 0.218619
H21   H     H_    0.169237 0.780426 0.151683 0.128306
H22   H     H_    0.830764 0.280393 0.848319 0.128302
H23   H     H_    0.275858 0.767580 0.145391 0.121041
H24   H     H_    0.724143 0.267549 0.854610 0.121041
O11   O     O_R   0.913210 0.208550 0.002110 -0.524248
O12   O     O_R   0.086790 0.708550 0.997890 -0.524246
O13   O     O_R   0.032060 0.539960 0.861980 -0.536663
O14   O     O_R   0.967940 0.039960 0.138020 -0.536663
C57   C     C_R   0.043915 0.372491 0.825198 0.778008
C58   C     C_R   0.956085 0.872491 0.174802 0.778009
O15   O     O_R   0.910290 0.538020 0.993280 -0.527705
O16   O     O_R   0.089710 0.038020 0.006720 -0.527700
O17   O     O_R   0.964160 0.712340 0.130090 -0.545824
O18   O     O_R   0.035840 0.212340 0.869910 -0.545823
C59   C     C_R   0.884334 0.370161 0.996660 0.731777
C60   C     C_R   0.115666 0.870161 0.003340 0.731770
O19   O     O_3   0.017820 0.379210 0.044690 -0.376737
O20   O     O_3   0.982180 0.879210 0.955310 -0.376740
V3    V     V_3+5 0.996690 0.652500 0.991710 1.520353
V4    V     V_3+5 0.003310 0.152500 0.008290 1.520358
C61   C     C_3   0.612898 0.812520 0.363862 -0.810459
H25   H     H_    0.639332 0.786871 0.289160 0.217281
H26   H     H_    0.575570 0.703191 0.386365 0.210241
H27   H     H_    0.588896 0.948767 0.365270 0.205411
C62   C     C_3   0.387102 0.312519 0.636138 -0.810464
H28   H     H_    0.360668 0.286867 0.710839 0.217282
H29   H     H_    0.424431 0.203192 0.613633 0.210242
H30   H     H_    0.411103 0.448767 0.634730 0.205410
O21   O     O_3   0.981739 0.882240 0.497341 -0.649427
H31   H     H_    0.022272 0.946811 0.464419 0.310718
O22   O     O_3   0.018261 0.382213 0.502659 -0.649429
H32   H     H_    0.977726 0.446778 0.535581 0.310714
O23   O     O_3   0.211488 0.605361 0.892481 -0.641345
H33   H     H_    0.216160 0.587635 0.824074 0.281267
O24   O     O_3   0.788509 0.105381 0.107533 -0.641349
H34   H     H_    0.783832 0.087666 0.175942 0.281271
C63   C     C_3   0.343970 0.650797 0.840697 -0.703126
H35   H     H_    0.335406 0.516360 0.877561 0.232156
H36   H     H_    0.332817 0.635632 0.771652 0.195156
H37   H     H_    0.396272 0.684976 0.824688 0.178024
C64   C     C_3   0.656027 0.150826 0.159312 -0.703165
H38   H     H_    0.664583 0.016392 0.122449 0.232163
H39   H     H_    0.667182 0.135654 0.228351 0.195168
H40   H     H_    0.603726 0.185014 0.175327 0.178017
O25   O     O_3   0.292909 0.535128 0.066278 -0.607011
H41   H     H_    0.273991 0.471259 0.020553 0.328168
O26   O     O_3   0.707089 0.035111 0.933736 -0.607012
H42   H     H_    0.726006 0.971251 0.979464 0.328156
O27   O     O_3   0.174259 0.149974 0.099248 -0.613888
H43   H     H_    0.179351 0.086310 0.156429 0.309330
O28   O     O_3   0.825745 0.649956 0.900734 -0.613885
H44   H     H_    0.820653 0.586278 0.843556 0.309329
O29   O     O_3   0.036783 0.843684 0.295543 -0.660764
H45   H     H_    0.057151 0.781178 0.340103 0.293322
O30   O     O_3   0.963217 0.343671 0.704457 -0.660764
H46   H     H_    0.942850 0.281153 0.659900 0.293322
O31   O     O_3   0.670038 0.719740 0.746936 -0.626880
H47   H     H_    0.705504 0.641954 0.708467 0.288442
O32   O     O_3   0.329963 0.219731 0.253065 -0.626881
H48   H     H_    0.294498 0.141943 0.291534 0.288442
C65   C     C_3   0.743558 0.639825 0.312159 -0.817476
H49   H     H_    0.707208 0.527868 0.318299 0.214780
H50   H     H_    0.747798 0.715331 0.245067 0.195353
H51   H     H_    0.789895 0.568933 0.309410 0.219245
C66   C     C_3   0.256441 0.139826 0.687843 -0.817481
H52   H     H_    0.292791 0.027870 0.681704 0.214779
H53   H     H_    0.252202 0.215335 0.754933 0.195352
H54   H     H_    0.210104 0.068935 0.690593 0.219246
O33   O     O_3   0.755073 0.973638 0.695311 -0.615324
H55   H     H_    0.790539 0.004362 0.724171 0.302639
O34   O     O_3   0.244926 0.473620 0.304688 -0.615321
H56   H     H_    0.209460 0.504341 0.275828 0.302646

loop_
_geom_bond_atom_site_label_1
_geom_bond_atom_site_label_2
_ccdc_geom_bond_type
O17   V3    S    
C55   H19   S    
C3    C6    S    
O33   H55   S    
C43   C51   S    
C15   C17   A    
C21   C33   A    
C28   O34   S    
C44   H12   S    
O32   H48   S    
O1    C3    A    
C46   C50   S    
O2    C4    A    
O11   C59   A    
C2    O7    A    
O31   H47   S    
C65   H49   S    
O26   H42   S    
C27   C29   A    
C41   C49   S    
C11   H7    S    
C5    C11   A    
C48   C50   S    
C6    C12   A    
C23   C25   A    
C56   H18   S    
C62   H28   S    
C65   H50   S    
O11   V4    S    
O20   V3    S    
C33   C39   A    
O30   H46   S    
C34   C40   A    
O16   C60   A    
C54   H24   S    
C18   C26   A    
C41   O23   S    
C54   O26   S    
H13   C45   S    
C29   H3    S    
C42   H10   S    
C30   H4    S    
O29   H45   S    
C8    C57   S    
C32   C34   A    
C16   C18   A    
C43   H11   S    
C37   O29   S    
C4    C5    S    
C63   H37   S    
C8    C38   A    
C19   C21   A    
O18   V4    S    
C22   C34   A    
C66   H53   S    
C25   C61   S    
C57   O18   A    
C52   C56   S    
C62   H30   S    
C50   C59   S    
C36   C38   A    
O14   V4    S    
O12   C60   A    
O6    V2    S    
C45   C49   S    
C27   O33   S    
C29   C31   A    
C42   C50   S    
C30   C32   A    
C42   O24   S    
C7    C58   S    
C40   H2    S    
C24   C66   S    
C36   O22   S    
O19   V4    S    
O12   V3    S    
O16   V4    S    
C42   C44   S    
C15   C19   A    
O24   H34   S    
C35   C37   A    
O15   C59   A    
C61   H27   S    
C51   C53   S    
C26   C62   S    
C9    C17   A    
O14   C58   A    
C39   H1    S    
C43   C63   S    
O4    V2    S    
O5    C3    A    
C9    H5    S    
C41   C43   S    
O25   H41   S    
C46   H22   S    
C7    C37   A    
O34   H56   S    
C45   H21   S    
C16   C20   A    
O6    C4    A    
C6    C14   A    
C41   H9    S    
O1    V2    S    
C64   H39   S    
C1    C52   S    
O2    V1    S    
C31   C33   A    
O23   H33   S    
O13   V3    S    
C44   C64   S    
C52   C54   S    
C55   H17   S    
C9    C11   A    
C63   H35   S    
C10   C12   A    
C65   H51   S    
O4    C2    A    
C47   C49   S    
C24   C26   A    
O3    V1    S    
C38   O30   S    
C64   H38   S    
O27   H43   S    
C10   C18   A    
C44   C52   S    
C56   H20   S    
C48   C56   S    
C28   C30   A    
O3    C1    A    
C10   H6    S    
C13   O31   S    
O28   H44   S    
O13   C57   A    
C53   O25   S    
C13   C15   A    
C58   O17   A    
O15   V3    S    
C48   O28   S    
C14   C16   A    
C5    C13   A    
C64   H40   S    
C61   H26   S    
O7    V1    S    
C1    O8    A    
C8    C40   A    
O8    V2    S    
O21   H31   S    
C51   C55   S    
C66   H54   S    
C2    C51   S    
C49   C60   S    
C47   O27   S    
O5    V1    S    
C21   C23   A    
C19   C27   A    
C22   C24   A    
C20   C28   A    
C14   O32   S    
C53   H23   S    
C7    C39   A    
C35   O21   S    
O22   H32   S    
C48   H16   S    
O9    V2    S    
C17   C25   A    
C63   H36   S    
C47   H15   S    
O10   V1    S    
H14   C46   S    
C12   H8    S    
C23   C65   S    
C62   H29   S    
C66   H52   S    
C61   H25   S    
C31   C35   A    
C47   C55   S    
C46   C54   S    
C32   C36   A    
C20   C22   A    
C45   C53   S    
