data_mof_unit_19375.cif
_audit_creation_date              2012-12-10T20:38:23-0500
_audit_creation_method            fapswitch 2.2
_symmetry_space_group_name_H-M    P1
_symmetry_Int_Tables_number       1
_space_group_crystal_system       triclinic
_cell_length_a                    9.864238
_cell_length_b                    10.690914
_cell_length_c                    16.660271
_cell_angle_alpha                 90.259953
_cell_angle_beta                  85.023838
_cell_angle_gamma                 89.777091
_cell_volume                      1750.29781437

loop_
_atom_site_label
_atom_site_type_symbol
_atom_type_description
_atom_site_fract_x
_atom_site_fract_y
_atom_site_fract_z
_atom_type_partial_charge
C1    C     C_R   0.500019 0.739912 0.497771 0.883413
C2    C     C_R   0.531414 0.451485 0.263284 -0.028969
C3    C     C_R   0.377444 0.936706 0.495412 0.095262
C4    C     C_R   0.480776 0.497531 0.653533 0.843421
C5    C     C_R   0.500057 0.871307 0.486911 -0.092363
C6    C     C_R   0.622226 0.934688 0.466136 -0.226077
C7    C     C_R   0.622532 0.064100 0.467409 -0.214946
C8    C     C_R   0.500956 0.128335 0.490204 -0.103848
C9    C     C_R   0.378204 0.063994 0.498940 0.054172
C10   C     C_3   0.260928 0.068993 0.562880 -0.032518
C11   C     C_3   0.260121 0.926574 0.558065 -0.500606
C12   C     C_R   0.351419 0.413923 0.775320 -0.200142
C13   C     C_R   0.920558 0.573682 0.553042 0.182781
C14   C     C_R   0.936598 0.435214 0.443459 -0.135603
C15   C     C_R   0.080519 0.434940 0.443579 -0.129136
C16   C     C_R   0.500397 0.260056 0.498855 0.867597
C17   C     C_R   0.063462 0.574533 0.552772 0.158951
C18   C     C_3   0.054264 0.565907 0.642787 -0.126944
C19   C     C_3   0.900493 0.565212 0.642470 -0.505536
C20   C     C_R   0.519083 0.493343 0.346748 0.857405
C21   C     C_R   0.468243 0.472977 0.739663 -0.035642
C22   C     C_R   0.578840 0.494928 0.784801 -0.215436
C23   C     C_R   0.441077 0.327797 0.158772 -0.157861
C24   C     C_R   0.575213 0.453932 0.863698 -0.144772
C25   C     C_R   0.460776 0.389633 0.898252 0.203253
C26   C     C_R   0.347615 0.372911 0.854449 -0.176558
C27   C     C_3   0.297114 0.120262 0.644959 -0.345580
C28   C     C_3   0.177884 0.106841 0.709044 -0.895356
C29   C     C_R   0.426722 0.379010 0.235522 -0.205676
C30   C     C_R   0.653101 0.467860 0.214598 -0.206276
C31   C     C_R   0.666467 0.418348 0.136924 -0.172637
C32   C     C_R   0.558731 0.351723 0.107903 0.206635
C33   C     C_2   0.451226 0.353150 0.982892 -0.232819
C34   C     C_2   0.562050 0.328375 0.021292 -0.243660
H1    H     H_    0.668357 0.542977 0.759032 0.147268
H2    H     H_    0.096836 0.477696 0.665296 0.174263
H3    H     H_    0.334428 0.360104 0.273552 0.146016
H4    H     H_    0.854965 0.474626 0.662958 0.198082
H5    H     H_    0.848694 0.649730 0.669741 0.199144
H6    H     H_    0.736505 0.520367 0.236128 0.148683
H7    H     H_    0.660842 0.318067 0.987623 0.146960
H8    H     H_    0.257197 0.326713 0.881178 0.124734
H9    H     H_    0.358457 0.273024 0.138380 0.126532
H10   H     H_    0.265118 0.395170 0.741390 0.149779
H11   H     H_    0.352075 0.364144 0.015993 0.150035
H12   H     H_    0.757925 0.437446 0.098162 0.123487
H13   H     H_    0.660924 0.475071 0.897731 0.127874
H14   H     H_    0.088139 0.159604 0.691144 0.254290
H15   H     H_    0.150333 0.006891 0.717646 0.268153
H16   H     H_    0.206640 0.145091 0.767231 0.249357
H17   H     H_    0.387670 0.070973 0.665073 0.212461
H18   H     H_    0.322045 0.221031 0.639299 0.214757
H19   H     H_    0.210053 0.678659 0.671599 0.209448
H20   H     H_    0.068038 0.758370 0.654515 0.186850
H21   H     H_    0.717754 0.885119 0.453506 0.168141
H22   H     H_    0.718064 0.112857 0.454900 0.165851
H23   H     H_    0.169219 0.113198 0.540444 0.164794
H24   H     H_    0.288915 0.878250 0.613082 0.195857
H25   H     H_    0.167954 0.888885 0.532690 0.182890
H26   H     H_    0.889000 0.380673 0.398898 0.143227
H27   H     H_    0.141508 0.380016 0.399189 0.139490
N1    N     N_R   0.857140 0.500860 0.500530 -0.101661
N2    N     N_R   0.142780 0.500820 0.500530 -0.112755
N3    N     N_3   0.104052 0.677961 0.681458 -0.443878
O1    O     O_R   0.385310 0.683210 0.499990 -0.610943
O2    O     O_R   0.614650 0.683240 0.500000 -0.618605
O3    O     O_R   0.371780 0.500000 0.615800 -0.634409
O4    O     O_R   0.601120 0.500040 0.615800 -0.609549
O5    O     O_R   0.385350 0.316760 0.500000 -0.628632
O6    O     O_R   0.614690 0.316790 0.500010 -0.617143
O7    O     O_R   0.398880 0.499960 0.384200 -0.616784
O8    O     O_R   0.628220 0.500000 0.384200 -0.618938
Zn1   Zn    Zn3+2 0.346870 0.499980 0.499990 0.930071
Zn2   Zn    Zn3+2 0.653130 0.500020 0.500010 0.940878

loop_
_geom_bond_atom_site_label_1
_geom_bond_atom_site_label_2
_ccdc_geom_bond_type
C10   C27   S    
O6    Zn2   S    
C4    O3    A    
C1    O1    A    
C24   C25   A    
N2    Zn1   S    
C20   O7    A    
O5    Zn1   S    
C6    C7    A    
O3    Zn1   S    
C19   H4    S    
C11   H24   S    
C33   H11   S    
C9    C10   S    
C16   O5    A    
C31   C32   A    
C13   C17   A    
C6    H21   S    
C2    C30   A    
C23   C32   A    
C28   H16   S    
C8    C16   S    
C22   H1    S    
C33   C34   D    
C15   H27   S    
C23   H9    S    
C7    C8    A    
C12   H10   S    
C21   C22   A    
C17   N2    A    
C4    C21   S    
C32   C34   S    
C18   N3    S    
C5    C6    A    
C34   H7    S    
C19   H5    S    
C7    H22   S    
C2    C29   A    
C11   H25   S    
C23   C29   A    
C20   O8    A    
C3    C9    A    
C27   H17   S    
C17   C18   S    
C26   H8    S    
C12   C26   A    
C30   C31   A    
H19   N3    S    
C22   C24   A    
C3    C11   S    
C10   C11   S    
C13   C19   S    
O4    Zn2   S    
C14   N1    A    
O7    Zn1   S    
C1    C5    S    
C10   H23   S    
C14   H26   S    
C27   H18   S    
H20   N3    S    
O8    Zn2   S    
C18   C19   S    
C28   H15   S    
O1    Zn1   S    
C29   H3    S    
C27   C28   S    
C4    O4    A    
C2    C20   S    
C30   H6    S    
C14   C15   A    
C28   H14   S    
C15   N2    A    
C16   O6    A    
O2    Zn2   S    
C25   C26   A    
C24   H13   S    
C18   H2    S    
C12   C21   A    
N1    Zn2   S    
C13   N1    A    
C25   C33   S    
C8    C9    A    
C3    C5    A    
C31   H12   S    
C1    O2    A    
