data_mof_unit_48705.cif
_audit_creation_date              2012-12-11T17:43:33-0500
_audit_creation_method            fapswitch 2.2
_symmetry_space_group_name_H-M    P1
_symmetry_Int_Tables_number       1
_space_group_crystal_system       triclinic
_cell_length_a                    15.052868
_cell_length_b                    15.20288
_cell_length_c                    16.925233
_cell_angle_alpha                 108.772083
_cell_angle_beta                  106.126217
_cell_angle_gamma                 109.371196
_cell_volume                      3122.70670148

loop_
_atom_site_label
_atom_site_type_symbol
_atom_type_description
_atom_site_fract_x
_atom_site_fract_y
_atom_site_fract_z
_atom_type_partial_charge
C1    C     C_R   0.090466 0.277369 0.037602 -0.142411
C2    C     C_R   0.076598 0.058814 0.946744 -0.240814
C3    C     C_R   0.995509 0.889301 0.939412 0.058698
C4    C     C_R   0.998748 0.079314 0.965798 0.066381
C5    C     C_R   0.075774 0.962947 0.932673 0.021536
C6    C     C_R   0.916240 0.002516 0.967996 0.016929
C7    C     C_R   0.728567 0.955608 0.929561 -0.188255
C8    C     C_R   0.263084 0.015072 0.961611 -0.171904
C9    C     C_R   0.677033 0.043890 0.041365 -0.098953
C10   C     C_R   0.310870 0.897509 0.868335 -0.098134
C11   C     C_R   0.489963 0.689137 0.352301 -0.113434
C12   C     C_R   0.912942 0.708466 0.920202 -0.164299
C13   C     C_R   0.518623 0.420347 0.729811 -0.120786
C14   C     C_R   0.502115 0.677793 0.271228 -0.134134
C15   C     C_R   0.525623 0.441724 0.818657 -0.116058
C16   C     C_R   0.935617 0.450608 0.735067 -0.127608
C17   C     C_R   0.064326 0.483992 0.254873 -0.141680
C18   C     C_R   0.526292 0.599174 0.227169 0.116633
C19   C     C_R   0.554194 0.543845 0.881765 0.110232
C20   C     C_R   0.539767 0.533465 0.266782 -0.171128
C21   C     C_R   0.574072 0.623733 0.854396 -0.195730
C22   C     C_R   0.527942 0.545418 0.348113 -0.108296
C23   C     C_R   0.027821 0.464268 0.725971 0.057230
C24   C     C_R   0.568174 0.602135 0.765812 -0.119105
C25   C     C_R   0.502814 0.622971 0.390688 -0.101237
C26   C     C_R   0.540460 0.500471 0.703539 -0.101914
C27   C     C_R   0.619703 0.572184 0.127694 -0.241801
C28   C     C_R   0.479079 0.583259 0.988652 -0.229950
C29   C     C_R   0.628995 0.559543 0.045135 0.069427
C30   C     C_R   0.462757 0.584625 0.065967 0.058223
C31   C     C_R   0.558405 0.566615 0.975182 0.016992
C32   C     C_R   0.535879 0.585037 0.139346 0.022756
C33   C     C_R   0.650486 0.968782 0.953456 -0.118768
C34   C     C_R   0.972911 0.426637 0.257844 0.064907
C35   C     C_R   0.339471 0.993220 0.940941 -0.106879
C36   C     C_R   0.964239 0.388784 0.326138 0.131192
C37   C     C_R   0.036179 0.419159 0.639306 0.129577
C38   C     C_R   0.139936 0.436632 0.553392 -0.226884
C39   C     C_R   0.859221 0.318815 0.397509 -0.222371
C40   C     C_R   0.720970 0.215024 0.823147 -0.147993
C41   C     C_R   0.222860 0.796263 0.187564 -0.135104
C42   C     C_R   0.133899 0.450303 0.636719 -0.174481
C43   C     C_R   0.866294 0.339792 0.325021 -0.204169
C44   C     C_R   0.945074 0.358904 0.556367 -0.278083
C45   C     C_R   0.665025 0.216552 0.744001 0.066937
C46   C     C_R   0.054530 0.409434 0.397613 -0.286163
C47   C     C_R   0.950358 0.353185 0.474575 0.192763
C48   C     C_R   0.048672 0.396146 0.473801 0.189427
C49   C     C_R   0.556871 0.141512 0.676700 0.131915
C50   C     C_R   0.279910 0.896604 0.360452 0.132408
C51   C     C_R   0.384208 0.084900 0.444987 -0.231577
C52   C     C_R   0.410837 0.968406 0.606727 -0.225765
C53   C     C_R   0.314999 0.995412 0.362078 -0.170148
C54   C     C_R   0.503276 0.049302 0.681359 -0.175694
C55   C     C_R   0.299403 0.890200 0.443877 -0.286126
C56   C     C_R   0.239260 0.801722 0.274266 0.057235
C57   C     C_R   0.510355 0.156693 0.601541 -0.304270
C58   C     C_R   0.373237 0.978432 0.526406 0.190614
C59   C     C_R   0.420162 0.075182 0.525668 0.197876
C60   C     C_R   0.781656 0.105677 0.105446 -0.122055
C61   C     C_R   0.205778 0.823596 0.815942 -0.112905
C62   C     C_R   0.860188 0.093593 0.081702 -0.119842
C63   C     C_R   0.129099 0.845237 0.836078 -0.132822
C64   C     C_R   0.300863 0.597516 0.005796 -0.154831
C65   C     C_R   0.737305 0.463100 0.047781 -0.137388
C66   C     C_R   0.834121 0.018827 0.993229 0.113896
C67   C     C_R   0.359058 0.564962 0.055718 0.056578
C68   C     C_R   0.157075 0.940933 0.909711 0.115845
C69   C     C_R   0.726222 0.309418 0.746465 -0.137042
C70   C     C_R   0.217591 0.701680 0.265268 -0.129112
C71   C     C_R   0.295445 0.499223 0.079086 -0.122261
C72   C     C_R   0.754737 0.565632 0.977213 -0.107077
C73   C     C_R   0.109737 0.535479 0.812585 -0.135188
C74   C     C_R   0.891350 0.400268 0.177591 -0.139505
C75   C     C_R   0.916173 0.194307 0.954520 -0.110799
C76   C     C_R   0.085502 0.795963 0.000087 -0.126180
C77   C     C_R   0.003099 0.179786 0.981212 0.048656
C78   C     C_R   0.710089 0.536430 0.030923 0.045439
C79   C     C_R   0.999433 0.799957 0.949031 0.058931
C80   C     C_R   0.914939 0.907877 0.952701 -0.235030
H1    H     H_    0.170304 0.294051 0.073240 0.098933
H2    H     H_    0.508421 0.378976 0.838202 0.114216
H3    H     H_    0.557593 0.471847 0.233957 0.105860
H4    H     H_    0.595161 0.702692 0.902016 0.123997
H5    H     H_    0.537736 0.494135 0.377894 0.102803
H6    H     H_    0.584614 0.664087 0.745333 0.104429
H7    H     H_    0.676998 0.570755 0.182063 0.131620
H8    H     H_    0.422134 0.581765 0.931731 0.128959
H9    H     H_    0.130535 0.444999 0.399006 0.115389
H10   H     H_    0.869050 0.328584 0.556090 0.117462
H11   H     H_    0.795030 0.322017 0.270757 0.112714
H12   H     H_    0.834686 0.681298 0.870290 0.106303
H13   H     H_    0.205805 0.492308 0.699196 0.118964
H14   H     H_    0.215960 0.467819 0.553364 0.127313
H15   H     H_    0.783281 0.285445 0.397259 0.124793
H16   H     H_    0.856646 0.401349 0.682400 0.094859
H17   H     H_    0.142889 0.504794 0.298981 0.087596
H18   H     H_    0.569435 0.920433 0.903995 0.099908
H19   H     H_    0.420948 0.050355 0.981500 0.099947
H20   H     H_    0.548963 0.227301 0.596684 0.111853
H21   H     H_    0.267946 0.815403 0.444425 0.119099
H22   H     H_    0.535391 0.036108 0.739450 0.114689
H23   H     H_    0.707027 0.896712 0.861364 0.111884
H24   H     H_    0.296716 0.003728 0.299318 0.115289
H25   H     H_    0.417470 0.159565 0.444230 0.122879
H26   H     H_    0.374421 0.895055 0.608767 0.125290
H27   H     H_    0.616535 0.053719 0.060058 0.095646
H28   H     H_    0.370126 0.880655 0.852632 0.092549
H29   H     H_    0.801815 0.162290 0.173765 0.122033
H30   H     H_    0.183670 0.749478 0.759663 0.113569
H31   H     H_    0.940937 0.141816 0.132144 0.114508
H32   H     H_    0.047970 0.787268 0.794411 0.113545
H33   H     H_    0.691435 0.163101 0.851025 0.093501
H34   H     H_    0.286783 0.089058 0.018931 0.107157
H35   H     H_    0.232478 0.859036 0.168917 0.093303
H36   H     H_    0.329084 0.658757 0.986208 0.096201
H37   H     H_    0.713583 0.422528 0.086086 0.097454
H38   H     H_    0.317864 0.466031 0.124150 0.104979
H39   H     H_    0.752410 0.623430 0.954196 0.113017
H40   H     H_    0.192166 0.564201 0.831412 0.094110
H41   H     H_    0.810933 0.342896 0.149905 0.086752
H42   H     H_    0.836013 0.135783 0.910887 0.111966
H43   H     H_    0.166439 0.850846 0.025762 0.103746
H44   H     H_    0.854597 0.851605 0.959639 0.134056
H45   H     H_    0.493326 0.631800 0.453437 0.097222
H46   H     H_    0.137068 0.117209 0.941885 0.132580
H47   H     H_    0.702168 0.344712 0.704114 0.088271
H48   H     H_    0.222838 0.676664 0.318407 0.094745
H49   H     H_    0.535225 0.483612 0.634738 0.096203
H50   H     H_    0.470515 0.749223 0.385325 0.114720
H51   H     H_    0.495430 0.341516 0.681113 0.115945
H52   H     H_    0.492232 0.730025 0.242613 0.114499
N1    N     N_R   0.055660 0.348550 0.045620 -0.040117
N2    N     N_R   0.185200 0.638170 0.176300 -0.039798
N3    N     N_R   0.201680 0.494570 0.045620 -0.039816
N4    N     N_R   0.798320 0.505430 0.954380 -0.042276
N5    N     N_R   0.068420 0.560530 0.871650 -0.038954
N6    N     N_R   0.931580 0.439470 0.128350 -0.036742
N7    N     N_R   0.948070 0.295860 0.997670 -0.042406
N8    N     N_R   0.051930 0.704140 0.002330 -0.039830
N9    N     N_R   0.944340 0.651450 0.954380 -0.037773
N10   N     N_R   0.960830 0.507850 0.823700 -0.041188
N11   N     N_R   0.039170 0.492150 0.176300 -0.038437
N12   N     N_R   0.811290 0.303410 0.871650 -0.038982
N13   N     N_R   0.188710 0.696590 0.128350 -0.040751
N14   N     N_R   0.205200 0.552990 0.997670 -0.037663
N15   N     N_R   0.794800 0.447010 0.002330 -0.040799
N16   N     N_R   0.814800 0.361830 0.823700 -0.038568
Ni1   Ni    Ni4+2 0.119340 0.493420 0.109960 0.214145
Ni2   Ni    Ni4+2 0.880660 0.506580 0.890040 0.215513
Ni3   Ni    Ni4+2 0.872590 0.372590 0.000000 0.215447
Ni4   Ni    Ni4+2 0.127410 0.627410 0.000000 0.214583

loop_
_geom_bond_atom_site_label_1
_geom_bond_atom_site_label_2
_ccdc_geom_bond_type
N5    N10   A    
C64   H36   S    
C27   C29   A    
C75   H42   S    
C1    C77   A    
C14   C18   A    
C16   N10   A    
C76   C79   A    
N12   N16   A    
C19   C31   S    
C46   H9    S    
C14   H52   S    
C15   C19   A    
C74   N6    A    
C19   C21   A    
N16   Ni2   S    
C38   C42   A    
N12   Ni3   S    
N6    N11   A    
C71   N3    A    
C11   C14   A    
C1    N1    A    
C57   C59   A    
C11   C25   A    
C53   H24   S    
C1    H1    S    
C49   C54   A    
C42   H13   S    
C12   C79   A    
C63   H32   S    
C49   C57   A    
C12   N9    A    
C60   C62   A    
C33   H18   S    
C22   H5    S    
C37   C42   A    
C61   C63   A    
C25   H45   S    
C72   C78   A    
C60   H29   S    
C10   H28   S    
C29   C78   S    
C47   C48   A    
C22   C25   A    
C28   H8    S    
N11   Ni1   S    
N5    Ni4   S    
C36   C46   A    
C10   C35   A    
C65   N15   A    
N8    Ni4   S    
C67   C71   A    
C30   C67   S    
C44   C47   A    
C8    H34   S    
C52   H26   S    
C73   H40   S    
C7    H23   S    
C9    C33   A    
C7    C33   A    
C23   C73   A    
C5    C68   S    
C35   H19   S    
C3    C80   A    
C52   C54   A    
N9    Ni2   S    
C15   H2    S    
C76   N8    A    
C40   C45   A    
C46   C48   A    
C16   H16   S    
C50   C53   A    
C62   C66   A    
C45   C69   A    
N4    N15   A    
C64   C67   A    
N1    Ni1   S    
N8    N9    A    
C4    C6    A    
C39   C43   A    
C58   C59   A    
N3    Ni1   S    
N2    Ni1   S    
C50   C56   S    
C24   H6    S    
C51   C53   A    
C8    C35   A    
C2    C4    A    
C41   C56   A    
C6    C80   A    
C40   H33   S    
C21   H4    S    
C45   C49   S    
C51   H25   S    
N3    N14   A    
C38   H14   S    
C13   H51   S    
C41   N13   A    
C62   H31   S    
C27   H7    S    
C75   C77   A    
C39   H15   S    
C3    C79   S    
C26   H49   S    
C52   C58   A    
C61   H30   S    
C34   C74   A    
N14   Ni4   S    
C2    H46   S    
C20   C22   A    
C8    C68   A    
C16   C23   A    
C56   C70   A    
C40   N12   A    
C13   C15   A    
C13   C26   A    
C55   C58   A    
C10   C61   A    
C51   C59   A    
C17   C34   A    
C21   C24   A    
C41   H35   S    
C11   H50   S    
C44   H10   S    
C39   C47   A    
C80   H44   S    
C70   H48   S    
N2    N13   A    
C63   C68   A    
C65   C78   A    
C71   H38   S    
C64   N14   A    
C27   C32   A    
C76   H43   S    
C38   C48   A    
C12   H12   S    
C28   C31   A    
C24   C26   A    
C3    C5    A    
N4    Ni2   S    
N1    N7    A    
N6    Ni3   S    
C9    H27   S    
C55   H21   S    
C50   C55   A    
C17   N11   A    
C9    C60   A    
C54   H22   S    
N10   Ni2   S    
C37   C44   A    
C28   C30   A    
C4    C77   S    
C29   C31   A    
C23   C37   S    
C7    C66   A    
C30   C32   A    
C57   H20   S    
C73   N5    A    
N15   Ni3   S    
C72   H39   S    
N7    Ni3   S    
C34   C36   S    
C18   C20   A    
C43   H11   S    
N13   Ni4   S    
C72   N4    A    
C2    C5    A    
C6    C66   S    
C74   H41   S    
C18   C32   S    
C69   H47   S    
C20   H3    S    
C70   N2    A    
C69   N16   A    
C65   H37   S    
C36   C43   A    
C75   N7    A    
C17   H17   S    
