data_mof_unit_11055.cif
_audit_creation_date              2013-03-05T16:04:29-0500
_audit_creation_method            fapswitch 2.2
_symmetry_space_group_name_H-M    P1
_symmetry_Int_Tables_number       1
_space_group_crystal_system       triclinic
_cell_length_a                    10.832416
_cell_length_b                    9.647952
_cell_length_c                    15.066801
_cell_angle_alpha                 90.310341
_cell_angle_beta                  93.229828
_cell_angle_gamma                 89.15613
_cell_volume                      1571.95254432

loop_
_atom_site_label
_atom_site_type_symbol
_atom_site_description
_atom_site_fract_x
_atom_site_fract_y
_atom_site_fract_z
_atom_type_partial_charge
O1    O     O_R   0.319640 0.618740 0.499990 -0.544800
O2    O     O_R   0.680360 0.381260 0.500010 -0.542062
O3    O     O_R   0.680360 0.618740 0.500010 -0.567367
O4    O     O_R   0.319640 0.381260 0.499990 -0.560054
C1    C     C_R   0.262773 0.501040 0.500461 0.861882
C2    C     C_R   0.737281 0.499284 0.499286 0.864866
O5    O     O_R   0.499970 0.618800 0.370260 -0.592759
O6    O     O_R   0.500030 0.381200 0.629740 -0.586336
O7    O     O_R   0.500030 0.618800 0.629740 -0.611229
O8    O     O_R   0.499970 0.381200 0.370260 -0.606661
C3    C     C_R   0.499591 0.499019 0.329177 0.767636
C4    C     C_R   0.498181 0.500718 0.670974 0.775440
Cu1   Cu    Cu3+1 0.500000 0.640660 0.500000 0.974036
Cu2   Cu    Cu3+1 0.500000 0.359340 0.500000 0.981283
C5    C     C_R   0.580854 0.413147 0.816930 0.394106
C6    C     C_R   0.392776 0.555570 0.183422 0.377728
C7    C     C_R   0.496752 0.500826 0.768332 -0.181952
C8    C     C_R   0.493632 0.492911 0.232015 -0.169301
C9    C     C_R   0.406464 0.578851 0.811756 0.058425
C10   C     C_R   0.582400 0.412547 0.188901 0.074345
C11   C     C_R   0.388874 0.552374 0.902534 -0.003651
C12   C     C_R   0.567199 0.391055 0.095961 -0.010669
C13   C     C_R   0.478179 0.472006 0.952383 -0.129976
C14   C     C_R   0.476889 0.470197 0.046094 -0.132634
C15   C     C_R   0.570527 0.396215 0.909005 -0.014158
C16   C     C_R   0.386319 0.548798 0.089690 -0.011984
C17   C     C_R   0.283712 0.602391 0.945391 0.265366
C18   C     C_R   0.640410 0.293360 0.050818 0.265456
C19   C     C_R   0.286942 0.611346 0.038627 0.451604
C20   C     C_R   0.648809 0.302485 0.958339 0.449527
C21   C     C_R   0.069776 0.419193 0.563153 0.269294
C22   C     C_R   0.930781 0.586557 0.438871 0.270578
C23   C     C_R   0.940229 0.414407 0.558915 0.388390
C24   C     C_R   0.060260 0.588785 0.442010 0.390136
C25   C     C_R   0.871403 0.498376 0.497538 -0.280741
C26   C     C_R   0.128816 0.503754 0.502684 -0.280772
C27   C     C_R   0.407592 0.074601 0.455197 0.435624
C28   C     C_R   0.592400 0.925394 0.544815 0.433427
C29   C     C_R   0.592459 0.071904 0.544668 0.419672
C30   C     C_R   0.407624 0.928087 0.455255 0.417027
N1    N     N_R   0.500000 0.852070 0.500000 -0.347902
N2    N     N_R   0.500000 0.147930 0.500000 -0.347707
O9    O     O_3   0.677874 0.348986 0.776244 -0.631615
H1    H     H_    0.703512 0.408422 0.727366 0.332288
O10   O     O_3   0.300408 0.624449 0.226355 -0.629717
H2    H     H_    0.288395 0.577800 0.283444 0.334265
C31   C     C_3   0.339970 0.698592 0.763094 -0.731241
H3    H     H_    0.408451 0.768350 0.735434 0.248162
H4    H     H_    0.276299 0.658798 0.708773 0.221294
H5    H     H_    0.288357 0.768011 0.806917 0.265827
C32   C     C_3   0.698976 0.363720 0.241407 -0.699215
H6    H     H_    0.726507 0.438507 0.294429 0.190343
H7    H     H_    0.683465 0.262364 0.273114 0.240020
H8    H     H_    0.779485 0.356768 0.199160 0.268426
O11   O     O_3   0.172367 0.630141 0.899130 -0.726240
H9    H     H_    0.167516 0.571170 0.844972 0.354888
O12   O     O_3   0.696894 0.181405 0.093839 -0.726815
H10   H     H_    0.641336 0.150169 0.139588 0.347823
O13   O     O_3   0.190548 0.674445 0.080842 -0.625295
H11   H     H_    0.137156 0.728238 0.037603 0.376294
O14   O     O_3   0.727394 0.214583 0.914391 -0.622491
H12   H     H_    0.786514 0.168015 0.957417 0.378028
O15   O     O_3   0.135292 0.343244 0.628213 -0.696289
H13   H     H_    0.215274 0.388289 0.643449 0.326930
O16   O     O_3   0.866575 0.670707 0.377447 -0.692915
H14   H     H_    0.781981 0.636559 0.364999 0.335575
O17   O     O_3   0.877529 0.335076 0.617401 -0.682262
H15   H     H_    0.936119 0.277763 0.654793 0.407075
O18   O     O_3   0.123227 0.668988 0.384181 -0.676980
H16   H     H_    0.065063 0.725454 0.345878 0.412264
O19   O     O_3   0.312062 0.139359 0.406958 -0.636726
H17   H     H_    0.344069 0.224393 0.381794 0.360050
O20   O     O_3   0.687909 0.860629 0.593067 -0.632931
H18   H     H_    0.655872 0.775619 0.618239 0.361767
O21   O     O_3   0.687838 0.133877 0.592926 -0.599710
H19   H     H_    0.656798 0.222616 0.615121 0.396874
O22   O     O_3   0.312481 0.866107 0.406761 -0.603944
H20   H     H_    0.343794 0.777706 0.384187 0.393058

loop_
_geom_bond_atom_site_label_1
_geom_bond_atom_site_label_2
_geom_bond_distance
_ccdc_geom_bond_type
O11   H9    0.991623 S    
C3    C8    1.462613 S    
C17   C19   1.405452 A    
O20   H18   0.981602 S    
O21   H19   0.979265 S    
O3    C2    1.299334 A    
Cu1   N1    2.039674 S    
C31   H4    1.110740 S    
O10   H2    0.988885 S    
O5    C3    1.307964 A    
O1    C1    1.300081 A    
C9    C11   1.416621 A    
C14   C16   1.419289 A    
C10   C32   1.521952 S    
O18   H16   0.989505 S    
C28   C29   1.413546 A    
C9    C31   1.521893 S    
C5    C15   1.408613 A    
C1    C26   1.453190 S    
C2    C25   1.454486 S    
C27   N2    1.377590 A    
O7    Cu1   1.967228 S    
C7    C9    1.412933 A    
C19   O13   1.384701 S    
C4    C7    1.467827 S    
C13   C14   1.412974 A    
C21   C23   1.402583 A    
C29   O21   1.372035 S    
C29   N2    1.379059 A    
C24   C26   1.404954 A    
O3    Cu1   1.962039 S    
O22   H20   0.979536 S    
Cu2   N2    2.039674 S    
C11   C17   1.418033 A    
O13   H11   0.990283 S    
C12   C18   1.418372 A    
Cu1   Cu2   2.714162 S    
O2    C2    1.303259 A    
C31   H5    1.105838 S    
C11   C13   1.415462 A    
C6    C16   1.411243 A    
O17   H15   0.989297 S    
C22   C25   1.416742 A    
C21   O15   1.384031 S    
C28   N1    1.377578 A    
O8    Cu2   1.967228 S    
C18   O12   1.380095 S    
C32   H6    1.104999 S    
C32   H7    1.109790 S    
C22   C24   1.401180 A    
O9    H1    0.990258 S    
C31   H3    1.108838 S    
O6    C4    1.307279 A    
C24   O18   1.383103 S    
C30   N1    1.378927 A    
C10   C12   1.415221 A    
C27   O19   1.374983 S    
C12   C14   1.416317 A    
O1    Cu1   1.968233 S    
C23   O17   1.383361 S    
C15   C20   1.415271 A    
C5    C7    1.410860 A    
O6    Cu2   1.964958 S    
C30   O22   1.371929 S    
O4    C1    1.301706 A    
C6    O10   1.381983 S    
C27   C30   1.413554 A    
C17   O11   1.382044 S    
C32   H8    1.109336 S    
C18   C20   1.404754 A    
C5    O9    1.383044 S    
O19   H17   0.981620 S    
O12   H10   0.991199 S    
C23   C25   1.407119 A    
C8    C10   1.410937 A    
C13   C15   1.417573 A    
O4    Cu2   1.962040 S    
O14   H12   0.990020 S    
O2    Cu2   1.968232 S    
O7    C4    1.301541 A    
O8    C3    1.297104 A    
O15   H13   0.989862 S    
O5    Cu1   1.964958 S    
C16   C19   1.416858 A    
C6    C8    1.410765 A    
O16   H14   0.986048 S    
C20   O14   1.385098 S    
C21   C26   1.412008 A    
C22   O16   1.385036 S    
C28   O20   1.374950 S    
