data_mof_unit_32604.cif
_audit_creation_date              2012-12-10T17:18:53-0500
_audit_creation_method            fapswitch 2.2
_symmetry_space_group_name_H-M    P1
_symmetry_Int_Tables_number       1
_space_group_crystal_system       triclinic
_cell_length_a                    9.573865
_cell_length_b                    10.856801
_cell_length_c                    13.427718
_cell_angle_alpha                 92.22364
_cell_angle_beta                  72.273692
_cell_angle_gamma                 89.226523
_cell_volume                      1327.96160283

loop_
_atom_site_label
_atom_site_type_symbol
_atom_type_description
_atom_site_fract_x
_atom_site_fract_y
_atom_site_fract_z
_atom_type_partial_charge
C1    C     C_R   0.499068 0.738034 0.496776 0.799235
C2    C     C_R   0.437039 0.498622 0.978516 0.089519
C3    C     C_R   0.461839 0.539132 0.875380 0.092283
C4    C     C_R   0.539061 0.530502 0.033001 0.079051
C5    C     C_R   0.657229 0.607851 0.986206 0.149471
C6    C     C_R   0.671186 0.655426 0.888946 -0.240701
C7    C     C_R   0.573647 0.623366 0.835150 -0.207518
C8    C     C_R   0.527192 0.488643 0.132776 -0.276377
C9    C     C_R   0.742639 0.601170 0.138876 -0.019271
C10   C     C_R   0.373603 0.494892 0.814751 -0.102143
C11   C     C_R   0.225675 0.891901 0.503942 -0.181945
C12   C     C_R   0.420986 0.502512 0.700274 0.778545
C13   C     C_R   0.092642 0.957807 0.540639 -0.169058
C14   C     C_R   0.087633 0.074539 0.587451 -0.130395
C15   C     C_R   0.217440 0.129842 0.588488 -0.150721
C16   C     C_R   0.355094 0.068727 0.541674 0.098055
C17   C     C_R   0.357817 0.942084 0.513426 0.102328
C18   C     C_R   0.492324 0.873139 0.496293 -0.120220
C19   C     C_R   0.621862 0.935210 0.490047 -0.226789
C20   C     C_R   0.621900 0.062318 0.497119 -0.225993
C21   C     C_R   0.490067 0.130243 0.520493 -0.110571
C22   C     C_R   0.915472 0.334154 0.363139 -0.160794
C23   C     C_R   0.496501 0.263402 0.508889 0.784346
C24   C     C_R   0.016567 0.251505 0.296878 -0.238617
C25   C     C_R   0.160398 0.250446 0.296974 -0.221618
C26   C     C_R   0.204064 0.332231 0.363095 -0.149213
C27   C     C_R   0.104261 0.417255 0.433185 0.204076
C28   C     C_R   0.954508 0.417646 0.433202 0.215875
C29   C     C_R   0.897960 0.579006 0.563089 -0.047142
C30   C     C_R   0.045907 0.578791 0.563240 -0.093157
C31   C     C_R   0.578842 0.504861 0.300187 0.782652
C32   C     C_R   0.758846 0.640027 0.038163 -0.234386
C33   C     C_R   0.623003 0.527026 0.187732 -0.092028
C34   C     C_R   0.249086 0.427040 0.861620 -0.186835
C35   C     C_R   0.217209 0.395849 0.965214 -0.150177
C36   C     C_R   0.311181 0.428237 0.022586 -0.193630
Cu1   Cu    Cu3+1 0.359340 0.500010 0.500010 0.914644
Cu2   Cu    Cu3+1 0.640660 0.499990 0.499990 0.936656
H1    H     H_    0.221382 0.805046 0.464035 0.167051
H2    H     H_    0.992910 0.917227 0.534063 0.128829
H3    H     H_    0.983597 0.123765 0.620327 0.136426
H4    H     H_    0.208243 0.219940 0.627480 0.154636
H5    H     H_    0.725951 0.107349 0.483617 0.168629
H6    H     H_    0.819835 0.644043 0.614525 0.128507
H7    H     H_    0.808961 0.329718 0.354891 0.200210
H8    H     H_    0.983112 0.188664 0.244290 0.148080
H9    H     H_    0.239524 0.186691 0.244454 0.151097
H10   H     H_    0.317717 0.324885 0.354506 0.199513
H11   H     H_    0.757803 0.718329 0.854272 0.138750
H12   H     H_    0.078291 0.643312 0.615050 0.141860
H13   H     H_    0.441442 0.428129 0.171569 0.139882
H14   H     H_    0.179558 0.393314 0.816740 0.148530
H15   H     H_    0.280544 0.397814 0.101447 0.129890
H16   H     H_    0.121610 0.342166 0.000306 0.135535
H17   H     H_    0.585579 0.667276 0.762246 0.153014
H18   H     H_    0.725024 0.885478 0.477319 0.167042
N1    N     N_R   0.852480 0.498790 0.499000 -0.193229
N2    N     N_R   0.148360 0.498710 0.498970 -0.202058
O1    O     O_R   0.381190 0.680360 0.500010 -0.594698
O2    O     O_R   0.618760 0.680340 0.500000 -0.577618
O3    O     O_R   0.323240 0.499990 0.650990 -0.581580
O4    O     O_R   0.560820 0.499960 0.650980 -0.573858
O5    O     O_R   0.381240 0.319660 0.500000 -0.605802
O6    O     O_R   0.618810 0.319640 0.499990 -0.597622
O7    O     O_R   0.439180 0.500040 0.349020 -0.600155
O8    O     O_R   0.676760 0.500010 0.349010 -0.588499
C37   C     C_R   0.847291 0.647013 0.191960 0.133875
C38   C     C_R   0.833610 0.768647 0.233911 -0.143268
C39   C     C_R   0.938544 0.814715 0.277735 -0.150334
C40   C     C_R   0.057202 0.739699 0.279981 -0.108165
C41   C     C_R   0.071354 0.618622 0.238320 -0.121126
C42   C     C_R   0.966793 0.572205 0.194304 -0.100692
H19   H     H_    0.742712 0.827853 0.231714 0.122258
H20   H     H_    0.928629 0.908889 0.309150 0.126600
H21   H     H_    0.138851 0.775697 0.313103 0.122949
H22   H     H_    0.163770 0.561081 0.239770 0.135748
H23   H     H_    0.979164 0.478567 0.161548 0.120888
H24   H     H_    0.849045 0.698927 0.001400 0.141467

loop_
_geom_bond_atom_site_label_1
_geom_bond_atom_site_label_2
_ccdc_geom_bond_type
C19   H18   S    
C31   O8    A    
C16   C21   A    
C19   C20   A    
C7    H17   S    
C4    C8    A    
C28   N1    A    
C1    C18   S    
Cu1   Cu2   S    
C37   C42   A    
C3    C7    A    
C1    O1    A    
C5    C6    A    
C15   C16   A    
C34   C35   A    
C13   H2    S    
C36   H15   S    
C42   H23   S    
C38   C39   A    
Cu2   O8    S    
C16   C17   A    
Cu1   O7    S    
C31   C33   S    
C40   C41   A    
C25   H9    S    
Cu1   N2    S    
C9    C32   A    
C26   H10   S    
C5    C32   A    
C23   O5    A    
C30   H12   S    
C22   C28   A    
C13   C14   A    
C35   H16   S    
C9    C33   A    
Cu1   O5    S    
Cu2   O6    S    
C37   C38   A    
C24   C25   A    
C1    O2    A    
C18   C19   A    
C25   C26   A    
C35   C36   A    
C2    C4    A    
C9    C37   S    
C29   C30   A    
Cu2   N1    S    
C12   O4    A    
C17   C18   A    
C26   C27   A    
C39   H20   S    
C10   C34   A    
C11   H1    S    
C8    H13   S    
Cu1   O1    S    
C10   C12   S    
C14   H3    S    
Cu2   O2    S    
C23   O6    A    
C29   N1    A    
C21   C23   S    
C29   H6    S    
C22   C24   A    
C40   H21   S    
C20   H5    S    
C2    C36   A    
C31   O7    A    
C11   C17   A    
C15   H4    S    
C4    C5    A    
C27   N2    A    
Cu1   O3    S    
C6    C7    A    
C34   H14   S    
C24   H8    S    
C2    C3    A    
C38   H19   S    
C41   C42   A    
C3    C10   A    
C12   O3    A    
C11   C13   A    
C41   H22   S    
C30   N2    A    
C8    C33   A    
C6    H11   S    
C39   C40   A    
C32   H24   S    
C22   H7    S    
C20   C21   A    
C27   C28   A    
C14   C15   A    
Cu2   O4    S    
