data_mof_unit_12578.cif
_audit_creation_date              2012-12-10T17:48:16-0500
_audit_creation_method            fapswitch 2.2
_symmetry_space_group_name_H-M    P1
_symmetry_Int_Tables_number       1
_space_group_crystal_system       triclinic
_cell_length_a                    13.911539
_cell_length_b                    14.767807
_cell_length_c                    14.667865
_cell_angle_alpha                 115.617738
_cell_angle_beta                  106.995895
_cell_angle_gamma                 71.823535
_cell_volume                      2537.63773463

loop_
_atom_site_label
_atom_site_type_symbol
_atom_type_description
_atom_site_fract_x
_atom_site_fract_y
_atom_site_fract_z
_atom_type_partial_charge
C1    C     C_R   0.516833 0.119182 0.689359 0.790429
C2    C     C_R   0.482345 0.881044 0.310900 0.821676
C3    C     C_R   0.563407 0.359453 0.921138 0.073285
C4    C     C_R   0.526886 0.640487 0.072444 0.071791
C5    C     C_R   0.609007 0.320180 0.000401 -0.052743
C6    C     C_R   0.481990 0.679877 0.993250 -0.005193
C7    C     C_R   0.553423 0.465711 0.942917 -0.089055
C8    C     C_R   0.571760 0.533526 0.046945 -0.091485
C9    C     C_R   0.632655 0.491108 0.121672 0.356677
C10   C     C_R   0.524844 0.507499 0.865002 0.341350
C11   C     C_R   0.645867 0.386232 0.100109 -0.041909
C12   C     C_R   0.485069 0.613377 0.889546 -0.034768
C13   C     C_R   0.307664 0.316893 0.354927 -0.283603
C14   C     C_R   0.694321 0.681375 0.641925 -0.268705
C15   C     C_R   0.340930 0.227397 0.374668 0.608068
C16   C     C_R   0.658663 0.773044 0.626203 0.597128
C17   C     C_R   0.494456 0.280144 0.481616 -0.054664
C18   C     C_R   0.509305 0.716519 0.512386 -0.067062
C19   C     C_R   0.463909 0.372948 0.462039 -0.024610
C20   C     C_R   0.542163 0.621526 0.528116 0.005739
C21   C     C_R   0.368398 0.389061 0.396844 0.065899
C22   C     C_R   0.636817 0.606197 0.594696 0.072422
C23   C     C_R   0.687190 0.986527 0.504173 0.821102
C24   C     C_R   0.312807 0.013475 0.495820 0.812015
C25   C     C_R   0.523038 0.450570 0.505218 0.104826
C26   C     C_R   0.484731 0.542323 0.482116 0.111752
C27   C     C_R   0.389676 0.552495 0.415184 -0.228004
C28   C     C_R   0.619027 0.439521 0.570559 -0.167854
C29   C     C_R   0.332814 0.477349 0.373769 -0.190247
C30   C     C_R   0.674471 0.515993 0.614340 -0.156990
C31   C     C_1   0.206970 0.021392 0.492980 -0.156641
C32   C     C_1   0.792999 0.978601 0.506890 -0.150720
C33   C     C_2   0.012342 0.033522 0.488293 -0.162680
C34   C     C_2   0.987552 0.966520 0.511320 -0.159994
C35   C     C_1   0.881811 0.972641 0.509030 0.017358
C36   C     C_1   0.118113 0.027395 0.490702 0.011638
C37   C     C_R   0.537317 0.187084 0.799825 -0.178482
C38   C     C_R   0.476702 0.813331 0.200690 -0.100349
C39   C     C_R   0.617914 0.215205 0.977953 -0.168663
C40   C     C_R   0.433854 0.785024 0.019426 -0.274344
C41   C     C_R   0.581342 0.149176 0.879926 0.409368
C42   C     C_R   0.433796 0.852521 0.122152 0.425677
C43   C     C_R   0.522447 0.292794 0.823957 -0.277640
C44   C     C_R   0.516994 0.707517 0.174376 -0.310804
Cu1   Cu    Cu3+1 0.526370 0.916390 0.524860 0.947006
Cu2   Cu    Cu3+1 0.473630 0.083610 0.475140 0.969392
H1    H     H_    0.046568 0.906709 0.532093 0.155957
H2    H     H_    0.953354 0.093338 0.467517 0.150534
H3    H     H_    0.233701 0.329337 0.305622 0.161233
H4    H     H_    0.767773 0.669472 0.692133 0.163920
H5    H     H_    0.356181 0.618350 0.393725 0.130189
H6    H     H_    0.653905 0.372357 0.589662 0.127249
H7    H     H_    0.538526 0.677837 0.234685 0.221506
H8    H     H_    0.477073 0.322586 0.765530 0.216760
H9    H     H_    0.652655 0.183002 0.036755 0.170031
H10   H     H_    0.395038 0.816126 0.960463 0.144160
H11   H     H_    0.259508 0.488840 0.323292 0.144029
H12   H     H_    0.747723 0.504559 0.664902 0.136675
H13   H     H_    0.439775 0.733003 0.460582 0.142122
H14   H     H_    0.564560 0.263390 0.532671 0.148737
N1    N     N_R   0.433980 0.209250 0.437830 -0.225688
N2    N     N_R   0.566020 0.790750 0.562170 -0.233451
O1    O     O_R   0.534760 0.019630 0.662610 -0.604691
O2    O     O_R   0.465240 0.980370 0.337390 -0.550513
O3    O     O_R   0.490220 0.160840 0.620610 -0.572591
O4    O     O_R   0.509780 0.839160 0.379390 -0.587616
O5    O     O_R   0.663260 0.919400 0.523940 -0.549688
O6    O     O_R   0.336740 0.080600 0.476060 -0.557513
O7    O     O_R   0.618720 0.060610 0.481950 -0.589020
O8    O     O_R   0.381280 0.939390 0.518050 -0.595157
C45   C     C_R   0.697105 0.348009 0.184568 0.158661
C46   C     C_R   0.804454 0.332123 0.215897 -0.079900
C47   C     C_R   0.852249 0.297027 0.296308 -0.133831
C48   C     C_R   0.793226 0.277448 0.345560 -0.107341
C49   C     C_R   0.686316 0.293069 0.314589 -0.119299
C50   C     C_R   0.638124 0.328933 0.234818 -0.153260
H15   H     H_    0.850820 0.346929 0.178101 0.133079
H16   H     H_    0.935046 0.284853 0.320340 0.146126
H17   H     H_    0.830305 0.250055 0.407598 0.121379
H18   H     H_    0.640883 0.277135 0.352251 0.135678
H19   H     H_    0.555151 0.341366 0.211842 0.136501
C51   C     C_R   0.443793 0.652823 0.804845 0.173098
C52   C     C_R   0.484501 0.727667 0.802592 -0.166307
C53   C     C_R   0.436011 0.774754 0.731405 -0.134132
C54   C     C_R   0.349284 0.744577 0.659353 -0.118188
C55   C     C_R   0.311550 0.666502 0.657733 -0.141491
C56   C     C_R   0.358320 0.620910 0.730387 -0.082170
H20   H     H_    0.551021 0.752448 0.858685 0.144799
H21   H     H_    0.465703 0.834648 0.732075 0.144078
H22   H     H_    0.312159 0.780761 0.603910 0.130725
H23   H     H_    0.245174 0.642320 0.601072 0.140090
H24   H     H_    0.326247 0.562893 0.730488 0.134908
O9    O     O_3   0.389643 0.955971 0.146554 -0.734235
H25   H     H_    0.363919 0.970697 0.082737 0.323438
O10   O     O_3   0.589811 0.048927 0.866405 -0.730471
H26   H     H_    0.524824 0.028473 0.823117 0.324380
O11   O     O_3   0.686724 0.547943 0.213501 -0.738372
H27   H     H_    0.704893 0.601773 0.202411 0.327074
O12   O     O_3   0.544004 0.449289 0.766449 -0.753401
H28   H     H_    0.605700 0.393784 0.770066 0.320586
O13   O     O_3   0.723553 0.840540 0.673315 -0.721187
H29   H     H_    0.682068 0.910490 0.688301 0.377690
O14   O     O_3   0.274400 0.161672 0.331042 -0.729843
H30   H     H_    0.315262 0.091227 0.314354 0.386569

loop_
_geom_bond_atom_site_label_1
_geom_bond_atom_site_label_2
_ccdc_geom_bond_type
C7    C10   A    
O9    H25   S    
C27   C29   A    
C42   O9    S    
C47   C48   A    
C23   O7    A    
O10   H26   S    
C4    C8    A    
O11   H27   S    
C24   O8    A    
C7    C8    A    
C39   C41   A    
C14   H4    S    
Cu1   Cu2   S    
C25   C28   A    
C38   C44   A    
C3    C43   A    
C26   C27   A    
O13   H29   S    
C16   O13   S    
C19   C21   A    
C5    C11   A    
C3    C7    A    
C55   H23   S    
C6    C12   A    
C45   C50   A    
C11   C45   S    
C51   C56   A    
Cu1   N2    S    
C33   C36   S    
C34   C35   S    
C23   O5    A    
Cu2   O7    S    
C17   N1    A    
C44   H7    S    
C39   H9    S    
O12   H28   S    
C27   H5    S    
C8    C9    A    
C40   H10   S    
Cu1   O5    S    
C1    O3    A    
C47   H16   S    
C49   H18   S    
C18   C20   A    
C1    C37   S    
C40   C42   A    
C52   H20   S    
C56   H24   S    
C16   N2    A    
C1    O1    A    
C2    O2    A    
C48   C49   A    
Cu2   N1    S    
C12   C51   S    
C32   C35   T    
C53   C54   A    
Cu2   O3    S    
C4    C6    A    
C55   C56   A    
C18   N2    A    
C4    C44   A    
C3    C5    A    
C25   C26   A    
C54   C55   A    
C21   C29   A    
Cu1   O1    S    
Cu2   O2    S    
C37   C43   A    
C49   C50   A    
Cu2   O6    S    
C46   H15   S    
C2    C38   S    
C43   H8    S    
C52   C53   A    
C33   C34   D    
C15   N1    A    
C13   C21   A    
C9    C11   A    
C10   C12   A    
C13   H3    S    
C29   H11   S    
C48   H17   S    
C13   C15   A    
C14   C16   A    
C53   H21   S    
O14   H30   S    
C9    O11   S    
C22   C30   A    
Cu1   O8    S    
C20   C22   A    
C46   C47   A    
C2    O4    A    
C50   H19   S    
C54   H22   S    
C38   C42   A    
C23   C32   S    
C14   C22   A    
C5    C39   A    
C24   C31   S    
C45   C46   A    
C28   H6    S    
C41   O10   S    
C20   C26   A    
C30   H12   S    
C28   C30   A    
C17   C19   A    
C6    C40   A    
C37   C41   A    
C10   O12   S    
C19   C25   A    
C24   O6    A    
C17   H14   S    
C18   H13   S    
C51   C52   A    
Cu1   O4    S    
C33   H2    S    
C31   C36   T    
C34   H1    S    
C15   O14   S    
