data_mof_unit_65138.cif
_audit_creation_date              2012-12-10T18:38:07-0500
_audit_creation_method            fapswitch 2.2
_symmetry_space_group_name_H-M    P1
_symmetry_Int_Tables_number       1
_space_group_crystal_system       triclinic
_cell_length_a                    15.110512
_cell_length_b                    13.833972
_cell_length_c                    10.677218
_cell_angle_alpha                 89.493081
_cell_angle_beta                  90.007065
_cell_angle_gamma                 90.0
_cell_volume                      2231.86119519

loop_
_atom_site_label
_atom_site_type_symbol
_atom_type_description
_atom_site_fract_x
_atom_site_fract_y
_atom_site_fract_z
_atom_type_partial_charge
C1    C     C_R   0.329849 0.500000 0.500013 0.875832
C2    C     C_R   0.670156 0.500000 0.499989 0.876350
C3    C     C_R   0.567070 0.106769 0.560878 0.560760
C4    C     C_R   0.432848 0.892377 0.560795 0.557226
C5    C     C_R   0.432835 0.107623 0.439210 0.557227
C6    C     C_R   0.567057 0.893231 0.439117 0.560759
C7    C     C_R   0.565409 0.208671 0.560541 -0.037075
C8    C     C_R   0.434558 0.790480 0.560496 -0.043365
C9    C     C_R   0.434545 0.209520 0.439510 -0.043366
C10   C     C_R   0.565396 0.791329 0.439454 -0.037078
C11   C     C_R   0.499953 0.054471 0.500023 -0.054693
C12   C     C_R   0.499953 0.945529 0.499977 -0.054689
C13   C     C_R   0.500031 0.500552 0.259563 0.807287
C14   C     C_R   0.500079 0.499448 0.740437 0.807284
C15   C     C_3   0.500090 0.592163 0.037805 -0.064732
C16   C     C_3   0.500115 0.407837 0.962194 -0.064733
C17   C     C_3   0.572506 0.545109 0.957088 -0.085290
C18   C     C_3   0.427690 0.454886 0.042911 -0.082642
C19   C     C_3   0.427692 0.545099 0.957031 -0.082630
C20   C     C_3   0.572504 0.454907 0.042968 -0.085276
C21   C     C_3   0.500117 0.498193 0.876428 -0.128595
C22   C     C_3   0.500088 0.501807 0.123572 -0.128596
C23   C     C_R   0.095051 0.577762 0.446045 0.679809
C24   C     C_R   0.904958 0.422717 0.446643 0.680534
C25   C     C_R   0.904964 0.577281 0.553371 0.680538
C26   C     C_R   0.095060 0.422239 0.553988 0.679816
C27   C     C_R   0.187079 0.578097 0.447381 -0.242397
C28   C     C_R   0.812934 0.422354 0.448020 -0.240678
C29   C     C_R   0.812939 0.577645 0.551978 -0.240693
C30   C     C_R   0.187088 0.421905 0.552654 -0.242411
C31   C     C_R   0.233399 0.500001 0.500017 -0.232723
C32   C     C_R   0.766615 0.500000 0.499994 -0.242855
C33   C     C_R   0.048511 0.500000 0.500015 -0.111076
C34   C     C_R   0.951505 0.499999 0.500010 -0.116264
Cu1   Cu    Cu3+1 0.500000 0.596430 0.500000 0.983956
Cu2   Cu    Cu3+1 0.500000 0.403570 0.500000 0.983956
H1    H     H_    0.222130 0.638466 0.405231 0.207742
H2    H     H_    0.777888 0.362314 0.406445 0.214561
H3    H     H_    0.777898 0.637684 0.593550 0.214548
H4    H     H_    0.222146 0.361535 0.594803 0.207739
H5    H     H_    0.616771 0.247728 0.609245 0.184896
H6    H     H_    0.383187 0.750740 0.609153 0.189418
H7    H     H_    0.383163 0.249260 0.390858 0.189416
H8    H     H_    0.616747 0.752272 0.390745 0.184894
N1    N     N_R   0.500000 0.258690 0.500000 -0.251648
N2    N     N_R   0.500000 0.741310 0.500000 -0.251646
O1    O     O_R   0.371460 0.581430 0.500010 -0.582798
O2    O     O_R   0.628540 0.418570 0.499990 -0.583302
O3    O     O_R   0.628540 0.581430 0.499990 -0.583306
O4    O     O_R   0.371460 0.418570 0.500010 -0.582801
O5    O     O_R   0.499980 0.581420 0.316850 -0.580528
O6    O     O_R   0.500020 0.418580 0.683150 -0.580530
O7    O     O_R   0.500020 0.581420 0.683150 -0.574009
O8    O     O_R   0.499980 0.418580 0.316850 -0.574007
C35   C     C_1   0.348539 0.593801 0.907424 0.269458
N3    N     N_1   0.286259 0.632105 0.868106 -0.196771
C36   C     C_1   0.651760 0.406217 0.092248 0.276886
N4    N     N_1   0.714154 0.367916 0.131199 -0.203482
C37   C     C_1   0.500123 0.693322 0.078635 0.315411
N5    N     N_1   0.500154 0.772957 0.110860 -0.196708
C38   C     C_1   0.500176 0.306678 0.921364 0.315414
N6    N     N_1   0.500230 0.227043 0.889139 -0.196711
C39   C     C_1   0.651764 0.593813 0.907867 0.276883
N7    N     N_1   0.714159 0.632126 0.868962 -0.203420
C40   C     C_1   0.348535 0.406167 0.092454 0.269469
N8    N     N_1   0.286252 0.367849 0.131722 -0.196733
F1    F     F_    0.051464 0.652348 0.390143 -0.573355
F2    F     F_    0.948533 0.348633 0.391316 -0.569724
F3    F     F_    0.948544 0.651365 0.608706 -0.569724
F4    F     F_    0.051482 0.347652 0.609888 -0.573354
F5    F     F_    0.633054 0.059613 0.622251 -0.580915
F6    F     F_    0.366831 0.938673 0.622105 -0.579914
F7    F     F_    0.366804 0.061327 0.377906 -0.579910
F8    F     F_    0.633028 0.940388 0.377738 -0.580919

loop_
_geom_bond_atom_site_label_1
_geom_bond_atom_site_label_2
_ccdc_geom_bond_type
C35   N3    T    
C9    N1    A    
C16   C21   S    
Cu1   O7    S    
Cu1   Cu2   S    
C4    C8    A    
Cu1   O1    S    
C18   C40   S    
C15   C19   S    
C7    N1    A    
C14   C21   S    
C19   C21   S    
C8    H6    S    
C5    C11   A    
C29   C32   A    
C3    C7    A    
C6    C12   A    
C30   C31   A    
C1    C31   S    
C17   C20   S    
C2    C32   S    
C18   C19   S    
C23   F1    S    
C13   O5    A    
C15   C22   S    
C14   O6    A    
C23   C33   A    
Cu1   O3    S    
C23   C27   A    
C4    C12   A    
C1    O4    A    
Cu2   O6    S    
C25   C34   A    
C37   N5    T    
C6    F8    S    
C25   C29   A    
C9    H7    S    
C27   C31   A    
C28   C32   A    
Cu2   O8    S    
C1    O1    A    
C2    O2    A    
C10   H8    S    
C24   C34   A    
C3    F5    S    
C5    C9    A    
C2    O3    A    
C26   C33   A    
C28   H2    S    
C16   C20   S    
C29   H3    S    
C33   C34   S    
C30   H4    S    
Cu2   N1    S    
C20   C22   S    
C26   C30   A    
Cu1   O5    S    
C26   F4    S    
C25   F3    S    
C16   C38   S    
C10   N2    A    
C4    F6    S    
Cu2   O4    S    
C13   O8    A    
C19   C35   S    
C15   C17   S    
C18   C22   S    
C15   C37   S    
C24   C28   A    
C6    C10   A    
C11   C12   S    
C17   C39   S    
C36   N4    T    
C27   H1    S    
C13   C22   S    
Cu2   O2    S    
C7    H5    S    
C5    F7    S    
C38   N6    T    
C8    N2    A    
C3    C11   A    
C24   F2    S    
C39   N7    T    
C14   O7    A    
C16   C18   S    
C40   N8    T    
C20   C36   S    
Cu1   N2    S    
C17   C21   S    
