data_mof_unit_54345.cif
_audit_creation_date              2012-12-10T17:16:34-0500
_audit_creation_method            fapswitch 2.2
_symmetry_space_group_name_H-M    P1
_symmetry_Int_Tables_number       1
_space_group_crystal_system       triclinic
_cell_length_a                    10.123585
_cell_length_b                    11.001273
_cell_length_c                    11.074864
_cell_angle_alpha                 88.365943
_cell_angle_beta                  96.142832
_cell_angle_gamma                 82.709469
_cell_volume                      1215.32810958

loop_
_atom_site_label
_atom_site_type_symbol
_atom_type_description
_atom_site_fract_x
_atom_site_fract_y
_atom_site_fract_z
_atom_type_partial_charge
C1    C     C_R   0.443201 0.514231 0.268518 0.948372
C2    C     C_R   0.501022 0.739591 0.495764 0.976293
C3    C     C_R   0.545634 0.132659 0.290149 0.278630
C4    C     C_R   0.450516 0.868098 0.709365 0.274542
C5    C     C_R   0.615415 0.073454 0.202490 -0.169685
C6    C     C_R   0.379372 0.927698 0.796043 -0.172366
C7    C     C_R   0.614789 0.947471 0.194184 0.366433
C8    C     C_R   0.379620 0.053764 0.803920 0.381947
C9    C     C_R   0.555035 0.884921 0.281831 0.277982
C10   C     C_R   0.441090 0.115806 0.717236 0.304975
C11   C     C_R   0.533654 0.938811 0.394085 -0.064594
C12   C     C_R   0.556733 0.485658 0.731549 0.960753
C13   C     C_R   0.464462 0.061527 0.605618 -0.055346
C14   C     C_R   0.528068 0.067065 0.397491 -0.020552
C15   C     C_R   0.470048 0.933277 0.602329 -0.016453
C16   C     C_R   0.504591 0.872021 0.497360 -0.039162
C17   C     C_R   0.494730 0.128125 0.502772 -0.035109
C18   C     C_1   0.666667 0.144617 0.110978 0.470798
C19   C     C_1   0.327566 0.856925 0.887575 0.455718
C20   C     C_1   0.366213 0.434261 0.893569 0.452226
C21   C     C_1   0.631731 0.568365 0.105788 0.468145
C22   C     C_2   0.407947 0.523532 0.137459 0.260412
C23   C     C_2   0.591418 0.476313 0.862806 0.266263
C24   C     C_2   0.507079 0.522004 0.062645 -0.175271
C25   C     C_2   0.491737 0.478860 0.937234 -0.178765
C26   C     C_2   0.075645 0.469153 0.532063 0.447775
C27   C     C_2   0.926945 0.500643 0.521853 0.443102
C28   C     C_R   0.498942 0.260440 0.504434 0.971005
Cl1   Cl    Cl    0.331889 0.126025 0.935666 -0.452370
Cl2   Cl    Cl    0.133607 0.312557 0.561352 -0.481990
Cl3   Cl    Cl    0.898121 0.357154 0.334854 -0.394047
Cl4   Cl    Cl    0.094312 0.702950 0.509425 -0.394783
Cl5   Cl    Cl    0.659628 0.876227 0.061060 -0.465137
Cl6   Cl    Cl    0.417707 0.248826 0.233288 -0.525302
Cl7   Cl    Cl    0.576832 0.751373 0.767766 -0.519710
Cl8   Cl    Cl    0.446785 0.784145 0.225431 -0.610630
Cl9   Cl    Cl    0.548290 0.216811 0.774827 -0.623418
Cl10  Cl    Cl    0.765790 0.459755 0.911842 -0.394669
Cl11  Cl    Cl    0.233317 0.538765 0.089567 -0.407698
Cl12  Cl    Cl    0.867496 0.600232 0.631575 -0.394402
N1    N     N_2   0.157300 0.551390 0.551120 0.002752
N2    N     N_2   0.842700 0.448610 0.448880 0.003328
N3    N     N_1   0.709095 0.201688 0.038503 -0.027819
N4    N     N_1   0.284879 0.800156 0.960136 -0.034414
N5    N     N_1   0.266545 0.400107 0.856858 -0.005714
N6    N     N_1   0.730713 0.604013 0.142022 -0.004831
O1    O     O_R   0.568940 0.489660 0.307530 -0.648714
O2    O     O_R   0.431060 0.510340 0.692470 -0.661160
O3    O     O_R   0.348880 0.522640 0.340350 -0.523812
O4    O     O_R   0.651120 0.477360 0.659650 -0.520799
O5    O     O_R   0.610030 0.300280 0.483580 -0.587891
O6    O     O_R   0.389970 0.699720 0.516420 -0.563682
O7    O     O_R   0.389970 0.333270 0.516400 -0.559565
O8    O     O_R   0.610030 0.666730 0.483600 -0.579053
Zn1   Zn    Zn3+2 0.646940 0.477980 0.478080 1.143046
Zn2   Zn    Zn3+2 0.353060 0.522020 0.521920 1.154413

loop_
_geom_bond_atom_site_label_1
_geom_bond_atom_site_label_2
_ccdc_geom_bond_type
C9    Cl8   S    
C12   O4    A    
Cl4   N1    S    
N1    Zn2   S    
Cl3   N2    S    
N2    Zn1   S    
C23   Cl10  S    
C2    C16   S    
C11   C16   A    
C20   N5    T    
C27   N2    D    
C13   C17   A    
C27   Cl12  S    
C12   O2    A    
C4    C15   A    
C23   C25   D    
C4    Cl7   S    
C1    C22   S    
C18   N3    T    
C24   C25   S    
C28   O7    A    
C6    C19   S    
C9    C11   A    
C12   C23   S    
C26   C27   S    
C3    C14   A    
C2    O6    A    
C10   Cl9   S    
C8    Cl1   S    
C8    C10   A    
C11   C14   A    
C26   Cl2   S    
O5    Zn1   S    
C13   C15   A    
C28   O5    A    
C22   C24   D    
O7    Zn2   S    
C4    C6    A    
C20   C25   S    
C22   Cl11  S    
O6    Zn2   S    
C15   C16   A    
O3    Zn2   S    
C7    C9    A    
O1    Zn1   S    
C19   N4    T    
O2    Zn2   S    
C21   N6    T    
C2    O8    A    
C21   C24   S    
C5    C7    A    
C7    Cl5   S    
O8    Zn1   S    
C1    O1    A    
C6    C8    A    
C5    C18   S    
C3    Cl6   S    
C17   C28   S    
C1    O3    A    
O4    Zn1   S    
C26   N1    D    
C3    C5    A    
C10   C13   A    
C14   C17   A    
