data_mof_unit_29966.cif
_audit_creation_date              2012-12-10T17:56:19-0500
_audit_creation_method            fapswitch 2.2
_symmetry_space_group_name_H-M    P1
_symmetry_Int_Tables_number       1
_space_group_crystal_system       triclinic
_cell_length_a                    13.08963
_cell_length_b                    10.777506
_cell_length_c                    9.578434
_cell_angle_alpha                 89.822528
_cell_angle_beta                  96.314412
_cell_angle_gamma                 91.137342
_cell_volume                      1342.80098829

loop_
_atom_site_label
_atom_site_type_symbol
_atom_type_description
_atom_site_fract_x
_atom_site_fract_y
_atom_site_fract_z
_atom_type_partial_charge
C1    C     C_R   0.497590 0.262442 0.499638 0.862928
C2    C     C_R   0.502409 0.737558 0.500362 0.862928
C3    C     C_R   0.503179 0.871469 0.500483 -0.161580
C4    C     C_R   0.496821 0.128531 0.499517 -0.161580
C5    C     C_R   0.437260 0.420852 0.066018 -0.131621
C6    C     C_R   0.562740 0.579147 0.933982 -0.131621
C7    C     C_R   0.436619 0.420719 0.918054 0.459087
C8    C     C_R   0.563381 0.579281 0.081946 0.459087
C9    C     C_R   0.300597 0.505275 0.472748 0.851759
C10   C     C_R   0.699403 0.494725 0.527252 0.851759
C11   C     C_R   0.812759 0.487592 0.546230 -0.234488
C12   C     C_R   0.187240 0.512408 0.453770 -0.234489
C13   C     C_R   0.023562 0.470679 0.314320 0.453099
C14   C     C_R   0.976438 0.529319 0.685680 0.453098
C15   C     C_R   0.130021 0.486525 0.322690 0.124182
C16   C     C_R   0.869979 0.513474 0.677311 0.124182
C17   C     C_R   0.134422 0.547299 0.567626 0.241746
C18   C     C_R   0.865577 0.452700 0.432374 0.241745
C19   C     C_R   0.027983 0.520546 0.563882 -0.125838
C20   C     C_R   0.972017 0.479453 0.436118 -0.125838
C21   C     C_R   0.432931 0.060522 0.398334 0.408825
C22   C     C_R   0.567069 0.939477 0.601665 0.408825
C23   C     C_R   0.437003 0.932105 0.399114 -0.248940
C24   C     C_R   0.562997 0.067895 0.600886 -0.248940
Cu1   Cu    Cu3+1 0.500000 0.500020 0.640660 1.010693
Cu2   Cu    Cu3+1 0.500000 0.499980 0.359340 1.010693
H1    H     H_    0.386744 0.879281 0.322579 0.184566
H2    H     H_    0.613255 0.120719 0.677421 0.184566
H3    H     H_    0.387578 0.357006 0.115112 0.216184
H4    H     H_    0.612422 0.642994 0.884888 0.216184
N1    N     N_R   0.500030 0.500030 0.852080 -0.233053
N2    N     N_R   0.499970 0.499970 0.147920 -0.233054
O1    O     O_R   0.499990 0.319660 0.618740 -0.542603
O2    O     O_R   0.500010 0.680340 0.381260 -0.542603
O3    O     O_R   0.499990 0.319630 0.381170 -0.560178
O4    O     O_R   0.500010 0.680370 0.618830 -0.560178
O5    O     O_R   0.349000 0.499990 0.599490 -0.543588
O6    O     O_R   0.651000 0.500010 0.400510 -0.543588
O7    O     O_R   0.348990 0.499960 0.361920 -0.599420
O8    O     O_R   0.651010 0.500040 0.638080 -0.599421
N3    N     N_2   0.815311 0.376699 0.322868 -0.378294
H5    H     H_    0.762987 0.419598 0.251247 0.306689
C25   C     C_3   0.787013 0.252166 0.362861 -0.567777
H6    H     H_    0.759242 0.198027 0.267282 0.244557
H7    H     H_    0.724732 0.254006 0.432613 0.186007
H8    H     H_    0.854841 0.205127 0.417673 0.242177
N4    N     N_2   0.184688 0.623301 0.677131 -0.378295
H9    H     H_    0.237013 0.580403 0.748753 0.306689
C26   C     C_3   0.212986 0.747834 0.637138 -0.567779
H10   H     H_    0.145157 0.794873 0.582326 0.242177
H11   H     H_    0.275266 0.745994 0.567386 0.186007
H12   H     H_    0.240757 0.801974 0.732717 0.244557
N5    N     N_2   0.823412 0.517359 0.804744 -0.346229
H13   H     H_    0.771638 0.586928 0.812617 0.295808
C27   C     C_3   0.797404 0.397419 0.861655 -0.439954
H14   H     H_    0.763316 0.410428 0.961609 0.226161
H15   H     H_    0.867571 0.341083 0.882478 0.269478
H16   H     H_    0.741307 0.345059 0.787781 0.184719
N6    N     N_2   0.176588 0.482640 0.195255 -0.346228
H17   H     H_    0.228362 0.413071 0.187383 0.295809
C28   C     C_3   0.202595 0.602580 0.138345 -0.439954
H18   H     H_    0.258693 0.654941 0.212219 0.184719
H19   H     H_    0.132429 0.658916 0.117522 0.269478
H20   H     H_    0.236684 0.589572 0.038392 0.226161
Cl1   Cl    Cl    0.958326 0.448500 0.144811 -0.521347
Cl2   Cl    Cl    0.041674 0.551496 0.855190 -0.521347
Cl3   Cl    Cl    0.342685 0.131541 0.274676 -0.595737
Cl4   Cl    Cl    0.657315 0.868459 0.725324 -0.595738
Cl5   Cl    Cl    0.351528 0.315613 0.823321 -0.538013
Cl6   Cl    Cl    0.648472 0.684387 0.176679 -0.538014

loop_
_geom_bond_atom_site_label_1
_geom_bond_atom_site_label_2
_ccdc_geom_bond_type
C12   C17   A    
Cu1   N1    S    
C28   H20   S    
C27   H14   S    
N3    H5    S    
C11   C18   A    
Cu2   N2    S    
C13   C15   A    
C14   C16   A    
C23   H1    S    
N3    C25   S    
C11   C16   A    
N5    C27   S    
C18   C20   A    
C19   C20   A    
C12   C15   A    
C10   O6    A    
C1    C4    S    
Cu1   O5    S    
C2    O2    A    
C26   H11   S    
C27   H15   S    
C2    C3    S    
C14   Cl2   S    
C1    O1    A    
N6    H17   S    
N4    C26   S    
Cu1   Cu2   S    
C13   Cl1   S    
N5    H13   S    
C21   Cl3   S    
C4    C21   A    
C25   H7    S    
C22   Cl4   S    
C15   N6    S    
C25   H6    S    
C26   H12   S    
C14   C19   A    
C9    O5    A    
C6    H4    S    
C6    N1    A    
C5    H3    S    
C21   C23   A    
Cu1   O8    S    
C28   H18   S    
C4    C24   A    
C25   H8    S    
C22   C24   A    
Cu2   O7    S    
N6    C28   S    
C7    N1    A    
C9    C12   S    
C18   N3    S    
Cu1   O4    S    
C8    N2    A    
C24   H2    S    
Cu2   O3    S    
C9    O7    A    
C1    O3    A    
C10   O8    A    
C26   H10   S    
C10   C11   S    
C27   H16   S    
C2    O4    A    
C5    C7    A    
C16   N5    S    
Cu2   O6    S    
C3    C22   A    
C6    C8    A    
C13   C20   A    
C17   C19   A    
C3    C23   A    
C8    Cl6   S    
C7    Cl5   S    
Cu2   O2    S    
C5    N2    A    
N4    H9    S    
C17   N4    S    
Cu1   O1    S    
C28   H19   S    
