data_mof_unit_46858.cif
_audit_creation_date              2013-03-05T15:53:16-0500
_audit_creation_method            fapswitch 2.2
_symmetry_space_group_name_H-M    P1
_symmetry_Int_Tables_number       1
_space_group_crystal_system       triclinic
_cell_length_a                    11.536111
_cell_length_b                    10.601717
_cell_length_c                    9.947045
_cell_angle_alpha                 92.436931
_cell_angle_beta                  89.228709
_cell_angle_gamma                 92.534962
_cell_volume                      1214.17795069

loop_
_atom_site_label
_atom_site_type_symbol
_atom_site_description
_atom_site_fract_x
_atom_site_fract_y
_atom_site_fract_z
_atom_type_partial_charge
O1    O     O_R   0.500000 0.316780 0.614690 -0.644787
O2    O     O_R   0.499990 0.316750 0.385360 -0.572617
C1    C     C_R   0.520117 0.263565 0.497988 0.911596
O3    O     O_R   0.334450 0.500030 0.614670 -0.636118
O4    O     O_R   0.334440 0.500000 0.385330 -0.602949
C2    C     C_R   0.282178 0.501074 0.500859 0.956154
Zn1   Zn    Zn3+2 0.500010 0.500020 0.653130 0.940992
Zn2   Zn    Zn3+2 0.499990 0.499980 0.346870 1.050466
O5    O     O_R   0.500010 0.683250 0.614640 -0.623814
O6    O     O_R   0.500000 0.683220 0.385310 -0.583458
O7    O     O_R   0.665560 0.500000 0.614670 -0.649362
O8    O     O_R   0.665550 0.499970 0.385330 -0.554597
C3    C     C_R   0.511285 0.741222 0.503075 0.875438
C4    C     C_R   0.717933 0.500655 0.499310 0.864051
C5    C     C_1   0.161633 0.501261 0.502152 -0.140727
C6    C     C_1   0.059406 0.501096 0.501242 0.019266
C7    C     C_1   0.940699 0.500834 0.499211 0.016890
C8    C     C_1   0.838468 0.500698 0.498220 -0.147379
H1    H     H_    0.545125 0.104727 0.281187 0.236006
C9    C     C_R   0.646462 0.154766 0.720732 -0.219039
H2    H     H_    0.672126 0.253186 0.709763 0.181205
C10   C     C_R   0.668276 0.103047 0.842939 -0.202848
H3    H     H_    0.703312 0.163607 0.924331 0.181511
C11   C     C_R   0.642440 0.975362 0.861045 0.372263
C12   C     C_R   0.603057 0.897748 0.751460 -0.258245
H4    H     H_    0.596296 0.798754 0.769236 0.199841
C13   C     C_R   0.578987 0.948748 0.625196 0.062721
C14   C     C_R   0.594537 0.080721 0.614523 0.114475
C15   C     C_R   0.559056 0.135476 0.495832 -0.164863
C16   C     C_R   0.550349 0.062740 0.377404 -0.104748
H5    H     H_    0.522046 0.881411 0.289510 0.235619
C17   C     C_R   0.539065 0.934238 0.383200 -0.115184
C18   C     C_R   0.541160 0.876300 0.507493 -0.139902
C19   C     C_R   0.309574 0.377935 0.131537 0.381141
C20   C     C_R   0.207088 0.356679 0.058517 -0.201853
H6    H     H_    0.130259 0.315789 0.106540 0.190221
C21   C     C_R   0.213254 0.348409 0.919560 -0.242667
H7    H     H_    0.140600 0.307459 0.862520 0.177516
C22   C     C_R   0.317777 0.377551 0.855506 -0.086537
H8    H     H_    0.326948 0.343769 0.753406 0.208816
C23   C     C_R   0.408873 0.441487 0.925744 0.130098
C24   C     C_R   0.407189 0.441618 0.069876 -0.058048
N1    N     N_R   0.498930 0.498800 0.142780 -0.140325
C25   C     C_R   0.589883 0.553421 0.073154 0.571455
H9    H     H_    0.661037 0.597346 0.875408 0.146305
C26   C     C_R   0.589083 0.553251 0.929322 -0.199439
N2    N     N_R   0.498900 0.498720 0.857170 -0.130602
N3    N     N_R   0.655159 0.924260 0.991020 0.194077
O9    O     O_R   0.724655 0.979951 0.079217 -0.403665
O10   O     O_R   0.585240 0.832449 0.028261 -0.428595
O11   O     O_3   0.681250 0.609324 0.144767 -0.700116
H10   H     H_    0.740567 0.642509 0.080772 0.333896
N4    N     N_R   0.326742 0.283164 0.225552 0.234655
O12   O     O_R   0.249549 0.264411 0.320105 -0.418509
O13   O     O_R   0.384268 0.186944 0.181547 -0.415676

loop_
_geom_bond_atom_site_label_1
_geom_bond_atom_site_label_2
_geom_bond_distance
_ccdc_geom_bond_type
O4    Zn2   1.942696 S    
Zn1   O7    1.942693 S    
N1    C25   1.369922 A    
C3    C18   1.457015 S    
C21   H7    1.082844 S    
C12   C13   1.423827 A    
C23   C24   1.433495 A    
C4    C8    1.390384 S    
H5    C17   1.082373 S    
C19   C24   1.431606 A    
Zn2   N1    2.029797 S    
Zn2   O8    1.952903 S    
C17   C18   1.404681 A    
N3    O10   1.299385 A    
O2    C1    1.303551 A    
C23   N2    1.368371 A    
O11   H10   0.991601 S    
C21   C22   1.385086 A    
O1    Zn1   1.963909 S    
N4    O12   1.301839 A    
C9    H2    1.081561 S    
C16   C17   1.366402 A    
C15   C16   1.382572 A    
O3    Zn1   1.952906 S    
C25   O11   1.377931 S    
O3    C2    1.290500 A    
C14   C15   1.410921 A    
C20   C21   1.382339 A    
O8    C4    1.291509 A    
C7    C8    1.179455 T    
N4    O13   1.298732 A    
O4    C2    1.290367 A    
O7    C4    1.289757 A    
C10   C11   1.391877 A    
C2    C5    1.390605 S    
C24   N1    1.392834 A    
C9    C10   1.385194 A    
C5    C6    1.179376 T    
C11   N3    1.434659 S    
Zn1   O5    1.995831 S    
C22   H8    1.067909 S    
C11   C12   1.405586 A    
C22   C23   1.403003 A    
C19   N4    1.423289 S    
Zn2   O6    1.963909 S    
C19   C20   1.400632 A    
C26   N2    1.365024 A    
O2    Zn2   1.995831 S    
C13   C14   1.411013 A    
C1    C15   1.448286 S    
O5    C3    1.293527 A    
C10   H3    1.082908 S    
N3    O9    1.301537 A    
C9    C14   1.412833 A    
C12   H4    1.070969 S    
H9    C26   1.081743 S    
H1    C16   1.076072 S    
C13   C18   1.434844 A    
C20   H6    1.083456 S    
C25   C26   1.430782 A    
C6    C7    1.369717 S    
O1    C1    1.291643 A    
O6    C3    1.305014 A    
Zn1   N2    2.030092 S    
