data_mof_unit_47150.cif
_audit_creation_date              2013-03-05T15:55:18-0500
_audit_creation_method            fapswitch 2.2
_symmetry_space_group_name_H-M    P1
_symmetry_Int_Tables_number       1
_space_group_crystal_system       triclinic
_cell_length_a                    27.699904
_cell_length_b                    10.65864
_cell_length_c                    9.952741
_cell_angle_alpha                 89.77091
_cell_angle_beta                  88.534549
_cell_angle_gamma                 93.642188
_cell_volume                      2931.53935487

loop_
_atom_site_label
_atom_site_type_symbol
_atom_site_description
_atom_site_fract_x
_atom_site_fract_y
_atom_site_fract_z
_atom_type_partial_charge
O1    O     O_R   0.500000 0.316780 0.614690 -0.616455
O2    O     O_R   0.500000 0.316750 0.385360 -0.643443
C1    C     C_R   0.503547 0.260458 0.500383 0.863188
O3    O     O_R   0.428760 0.500030 0.614650 -0.576459
O4    O     O_R   0.428750 0.500010 0.385320 -0.648175
C2    C     C_R   0.406115 0.500629 0.501510 0.857726
Zn1   Zn    Zn3+2 0.500000 0.500020 0.653130 0.984262
Zn2   Zn    Zn3+2 0.500000 0.499980 0.346870 0.925022
O5    O     O_R   0.500000 0.683250 0.614640 -0.571402
O6    O     O_R   0.500000 0.683220 0.385310 -0.642765
O7    O     O_R   0.571250 0.499990 0.614680 -0.628400
O8    O     O_R   0.571240 0.499970 0.385350 -0.631986
C3    C     C_R   0.494284 0.738061 0.501141 0.909513
C4    C     C_R   0.593894 0.500393 0.498404 0.866292
C5    C     C_R   0.174739 0.404745 0.552820 0.537207
O9    O     O_2   0.196993 0.300796 0.587753 -0.559460
N1    N     N_R   0.201631 0.511580 0.515654 -0.357914
C6    C     C_R   0.180674 0.619139 0.480944 0.499345
C7    C     C_R   0.277797 0.502834 0.388641 -0.105605
C8    C     C_R   0.327862 0.499282 0.384983 -0.216624
C9    C     C_R   0.328159 0.511450 0.628747 -0.250110
C10   C     C_R   0.278112 0.514691 0.632048 -0.108588
C11   C     C_R   0.252999 0.510317 0.512096 0.324735
C12   C     C_R   0.101645 0.511242 0.515349 -0.055149
C13   C     C_R   0.124163 0.402511 0.553128 -0.093655
C14   C     C_R   0.096065 0.295328 0.594272 -0.241077
C15   C     C_R   0.130247 0.621368 0.481008 0.003066
C16   C     C_R   0.353406 0.503458 0.505163 -0.043153
H1    H     H_    0.346955 0.515504 0.722800 0.167144
H2    H     H_    0.258769 0.520577 0.727529 0.139167
H3    H     H_    0.113639 0.216388 0.635085 0.199229
C17   C     C_R   0.646684 0.500852 0.494507 -0.042153
C18   C     C_R   0.971991 0.393665 0.515676 0.063797
C19   C     C_R   0.977374 0.624266 0.489691 0.052273
C20   C     C_R   0.949462 0.508403 0.499672 0.066555
C21   C     C_R   0.943526 0.279983 0.501772 -0.142437
C22   C     C_R   0.893644 0.279049 0.491471 -0.156595
C23   C     C_R   0.870646 0.391855 0.490636 -0.022587
C24   C     C_R   0.898512 0.507021 0.492127 -0.055295
C25   C     C_R   0.875394 0.620737 0.485752 -0.020110
C26   C     C_R   0.824880 0.617118 0.482713 0.506695
N2    N     N_R   0.798675 0.504230 0.484137 -0.361078
C27   C     C_R   0.820253 0.392649 0.486316 0.513432
C28   C     C_R   0.722146 0.492883 0.367557 -0.095448
C29   C     C_R   0.671938 0.492011 0.370958 -0.210797
C30   C     C_R   0.672330 0.510540 0.614337 -0.206253
C31   C     C_R   0.722502 0.511705 0.610470 -0.102911
C32   C     C_R   0.747292 0.502893 0.487247 0.322547
O10   O     O_2   0.792916 0.283205 0.485667 -0.542318
C33   C     C_R   0.022384 0.396324 0.538668 -0.072792
C34   C     C_R   0.050666 0.510232 0.512550 0.008105
C35   C     C_R   0.028409 0.623505 0.483902 0.081429
C36   C     C_R   0.045385 0.290192 0.588456 0.513556
H4    H     H_    0.653000 0.484226 0.277184 0.161887
H5    H     H_    0.741563 0.486004 0.272301 0.138358
H6    H     H_    0.873216 0.189374 0.483641 0.195299
H7    H     H_    0.959244 0.190439 0.492583 0.184256
O11   O     O_2   0.208632 0.723378 0.447014 -0.559752
C37   C     C_R   0.108078 0.730697 0.447026 -0.141306
H8    H     H_    0.346443 0.493034 0.288384 0.167554
H9    H     H_    0.258165 0.499050 0.295885 0.137727
H10   H     H_    0.129322 0.816047 0.418841 0.189963
C38   C     C_R   0.953141 0.736950 0.484878 -0.221125
C39   C     C_R   0.903013 0.735003 0.483884 -0.128342
O12   O     O_2   0.802010 0.725150 0.478764 -0.544834
C40   C     C_R   0.058061 0.732168 0.449015 -0.225372
H11   H     H_    0.971934 0.828572 0.485478 0.130210
H12   H     H_    0.653739 0.517702 0.710818 0.163687
H13   H     H_    0.886014 0.823731 0.480866 0.189399
H14   H     H_    0.742218 0.519450 0.702966 0.137732
H15   H     H_    0.043627 0.819028 0.418227 0.136467
H16   H     H_    0.493391 0.111574 0.287162 0.169453
C41   C     C_R   0.527669 0.111436 0.743376 -0.163617
H17   H     H_    0.550242 0.198093 0.740508 0.181043
C42   C     C_R   0.520401 0.049706 0.867175 0.096655
C43   C     C_R   0.490942 0.938222 0.874155 -0.270626
H18   H     H_    0.481696 0.894114 0.970458 0.155679
C44   C     C_R   0.472999 0.882998 0.756888 0.528690
C45   C     C_R   0.487912 0.935790 0.629253 -0.035712
C46   C     C_R   0.507410 0.059534 0.625131 -0.016383
C47   C     C_R   0.505217 0.126076 0.502247 -0.076974
C48   C     C_R   0.495050 0.062746 0.382406 -0.207752
H19   H     H_    0.483480 0.886628 0.288353 0.158364
C49   C     C_R   0.487473 0.934752 0.383438 -0.224267
C50   C     C_R   0.486259 0.870027 0.505566 -0.103242
C51   C     C_R   0.441353 0.323809 0.153404 -0.152678
H20   H     H_    0.436332 0.328780 0.258750 0.220215
C52   C     C_R   0.415834 0.224335 0.096006 -0.253804
H21   H     H_    0.394946 0.155903 0.158123 0.169795
C53   C     C_R   0.414682 0.216557 0.959308 -0.225361
H22   H     H_    0.392016 0.141359 0.915914 0.149997
C54   C     C_R   0.438007 0.309991 0.876907 0.141239
C55   C     C_R   0.470211 0.408774 0.932401 0.126482
C56   C     C_R   0.470876 0.411442 0.077258 0.095244
N3    N     N_R   0.499540 0.498800 0.142780 -0.132774
C57   C     C_R   0.527954 0.585214 0.066752 0.111823
H23   H     H_    0.550348 0.653499 0.868204 0.156874
C58   C     C_R   0.527795 0.584243 0.924746 -0.062887
N4    N     N_R   0.499520 0.498720 0.857170 -0.120060
N5    N     N_3   0.542053 0.103315 0.984991 -0.436522
H24   H     H_    0.526141 0.187817 0.004642 0.192766
H25   H     H_    0.534064 0.044797 0.068234 0.182951
O13   O     O_3   0.439926 0.780476 0.770806 -0.588335
C59   C     C_3   0.394397 0.814746 0.727933 -0.296457
H26   H     H_    0.393450 0.818538 0.616458 0.163581
H27   H     H_    0.384277 0.905806 0.771858 0.144393
H28   H     H_    0.366531 0.741966 0.763005 0.194553
N6    N     N_3   0.558322 0.680643 0.128090 -0.465101
H29   H     H_    0.536623 0.744572 0.175010 0.210013
H30   H     H_    0.580077 0.639914 0.197612 0.229493
N7    N     N_3   0.422649 0.305316 0.742300 -0.360179
H31   H     H_    0.426180 0.214340 0.705538 0.169727
H32   H     H_    0.385526 0.318375 0.743462 0.169142
O14   O     O_3   0.017911 0.193026 0.653235 -0.598749
C60   C     C_3   0.032590 0.073879 0.612938 -0.359161
H33   H     H_    0.062883 0.045191 0.674655 0.193219
H34   H     H_    0.042365 0.070411 0.503725 0.146328
H35   H     H_    0.001866 0.003647 0.631689 0.198020

loop_
_geom_bond_atom_site_label_1
_geom_bond_atom_site_label_2
_geom_bond_distance
_ccdc_geom_bond_type
C55   C56   1.442684 A    
N3    C57   1.382848 A    
C26   N2    1.365015 A    
C20   C24   1.414351 A    
N7    H31   1.047270 S    
C12   C15   1.409648 A    
C59   H27   1.115083 S    
C47   C48   1.398947 A    
C28   C29   1.389737 A    
Zn1   O7    2.000766 S    
N1    C11   1.423360 S    
Zn1   N4    2.030446 S    
H19   C49   1.083030 S    
C54   C55   1.455985 A    
C21   C22   1.387560 A    
C43   C44   1.397743 A    
C37   C40   1.386195 A    
C23   C24   1.408267 A    
O7    C4    1.301999 A    
C51   C52   1.371290 A    
C5    C13   1.399559 A    
C5    O9    1.350205 S    
C18   C21   1.412307 A    
N6    H29   1.041089 S    
C5    N1    1.364973 A    
C19   C20   1.416523 A    
C41   H17   1.081840 S    
O5    C3    1.287654 A    
C19   C38   1.413879 A    
C51   C56   1.407531 A    
C22   H6    1.083496 S    
C49   C50   1.393837 A    
C6    O11   1.350013 S    
C2    C16   1.461792 S    
C40   H15   1.077899 S    
C60   H34   1.114776 S    
C57   C58   1.413548 A    
C1    C47   1.436077 S    
C8    H8    1.083162 S    
C55   N4    1.415322 A    
C12   C34   1.412461 A    
C57   N6    1.427355 S    
C14   H3    1.081365 S    
O1    Zn1   1.991709 S    
C9    C10   1.388478 A    
C41   C42   1.398432 A    
Zn2   N3    2.031705 S    
O3    Zn1   2.019763 S    
C59   H26   1.111098 S    
H23   C58   1.082560 S    
C38   H11   1.077180 S    
C33   C36   1.426319 A    
C34   C35   1.421215 A    
C12   C13   1.404961 A    
O3    C2    1.303097 A    
C21   H7    1.077161 S    
C4    C17   1.461483 S    
C24   C25   1.408291 A    
C44   C45   1.427889 A    
C27   O10   1.349923 S    
C26   O12   1.349947 S    
C8    C16   1.404644 A    
C33   C34   1.421819 A    
C18   C33   1.418794 A    
C9    H1    1.082392 S    
C38   C39   1.387652 A    
O1    C1    1.292882 A    
C7    C11   1.397319 A    
C42   C43   1.398550 A    
C31   H14   1.083111 S    
C30   H12   1.083229 S    
C22   C23   1.396081 A    
C53   C54   1.402293 A    
C31   C32   1.396591 A    
Zn2   O8    2.019760 S    
C60   H35   1.108758 S    
N5    H25   1.045634 S    
N1    C6    1.364658 A    
N7    H32   1.046191 S    
C17   C29   1.405559 A    
N2    C32   1.421994 S    
C39   H13   1.083558 S    
C43   H18   1.083435 S    
C25   C26   1.398395 A    
C9    C16   1.404858 A    
O8    C4    1.302176 A    
C29   H4    1.083172 S    
C48   C49   1.367009 A    
N2    C27   1.364888 A    
C14   C36   1.404095 A    
C45   C50   1.419349 A    
C35   C40   1.413489 A    
C36   O14   1.391707 S    
Zn1   O5    1.988696 S    
C30   C31   1.388595 A    
C37   H10   1.083541 S    
C10   H2    1.082947 S    
C44   O13   1.384792 S    
C51   H20   1.056111 S    
C17   C30   1.404532 A    
O2    Zn2   1.988694 S    
C6    C15   1.398520 A    
C52   C53   1.364440 A    
C46   C47   1.415936 A    
O6    C3    1.305211 A    
O4    Zn2   2.000769 S    
C54   N7    1.416078 S    
O14   C60   1.414308 S    
C19   C35   1.413897 A    
C25   C39   1.396314 A    
C7    C8    1.389263 A    
O2    C1    1.299215 A    
C13   C14   1.394844 A    
C23   C27   1.398207 A    
C15   C37   1.395631 A    
C28   H5    1.083033 S    
C53   H22   1.084355 S    
O4    C2    1.301517 A    
C7    H9    1.082962 S    
C42   N5    1.434908 S    
C18   C20   1.418069 A    
C41   C46   1.416150 A    
N6    H30   1.040461 S    
C56   N3    1.363853 A    
C45   C46   1.393179 A    
C28   C32   1.396296 A    
C52   H21   1.083271 S    
Zn2   O6    1.991708 S    
C58   N4    1.355683 A    
C3    C50   1.438588 S    
O13   C59   1.410959 S    
C10   C11   1.396481 A    
N5    H24   1.044593 S    
C59   H28   1.107887 S    
H16   C48   1.082993 S    
C60   H33   1.110127 S    
