data_mof_unit_37181.cif
_audit_creation_date              2012-12-11T15:23:31-0500
_audit_creation_method            fapswitch 2.2
_symmetry_space_group_name_H-M    P1
_symmetry_Int_Tables_number       1
_space_group_crystal_system       triclinic
_cell_length_a                    6.936525
_cell_length_b                    17.481571
_cell_length_c                    19.254231
_cell_angle_alpha                 109.450104
_cell_angle_beta                  90.282185
_cell_angle_gamma                 90.543322
_cell_volume                      2201.3718273

loop_
_atom_site_label
_atom_site_type_symbol
_atom_type_description
_atom_site_fract_x
_atom_site_fract_y
_atom_site_fract_z
_atom_type_partial_charge
O1    O     O_R   0.505810 0.439670 0.562310 -0.530381
O2    O     O_R   0.169070 0.404920 0.411210 -0.538371
O3    O     O_R   0.005550 0.560330 0.437690 -0.547502
C1    C     C_R   0.338285 0.381252 0.383234 0.737087
O4    O     O_R   0.175650 0.430000 0.560110 -0.546324
O5    O     O_R   0.012170 0.585580 0.587650 -0.552817
C2    C     C_R   0.344688 0.414980 0.581839 0.736724
O6    O     O_R   0.499180 0.414420 0.412350 -0.521392
O7    O     O_3   0.341430 0.551020 0.508860 -0.389266
V1    V     V_3+5 0.063930 0.490540 0.498360 1.443876
O8    O     O_R   0.682850 0.595080 0.588790 -0.527892
C3    C     C_R   0.852896 0.618298 0.616724 0.778095
O9    O     O_R   0.676280 0.570000 0.439890 -0.555690
C4    C     C_R   0.844798 0.586666 0.419661 0.732365
V2    V     V_3+5 0.564760 0.509460 0.501640 1.471552
O10   O     O_3   0.837130 0.448980 0.491140 -0.352132
C5    C     C_R   0.827455 0.899957 0.200701 -0.169118
C6    C     C_R   0.915514 0.867120 0.131875 -0.084756
C7    C     C_R   0.993733 0.789186 0.111502 -0.187344
C8    C     C_R   0.981218 0.743269 0.158965 0.066934
C9    C     C_R   0.894155 0.776591 0.228640 0.017942
C10   C     C_R   0.818324 0.855944 0.250119 0.039085
C11   C     C_R   0.051818 0.664050 0.137243 -0.258795
C12   C     C_R   0.042146 0.618028 0.184446 0.416559
C13   C     C_R   0.956452 0.650814 0.254476 0.016720
C14   C     C_R   0.881251 0.730148 0.276417 -0.057602
C15   C     C_R   0.792406 0.763046 0.345867 -0.005940
C16   C     C_R   0.725528 0.843190 0.367610 -0.214281
C17   C     C_R   0.735861 0.889061 0.320476 0.355894
C18   C     C_R   0.942919 0.605472 0.302517 -0.288805
C19   C     C_R   0.852771 0.636908 0.371045 -0.178834
C20   C     C_R   0.772476 0.715539 0.392390 0.361350
H1    H     H_    0.769205 0.960486 0.215485 0.178055
H2    H     H_    0.060829 0.763828 0.058069 0.106013
H3    H     H_    0.112634 0.637094 0.082890 0.133619
H4    H     H_    0.000753 0.544749 0.286598 0.156500
H5    H     H_    0.664189 0.871009 0.421570 0.180980
C21   C     C_3   0.709664 0.780029 0.771065 0.282555
C22   C     C_3   0.807650 0.776102 0.698599 0.365327
C23   C     C_3   0.868398 0.688463 0.687086 -0.181308
C24   C     C_3   0.774636 0.693182 0.760209 0.362835
C25   C     C_3   0.965832 0.724017 0.802119 -0.228535
C26   C     C_3   0.061158 0.719754 0.728005 -0.127068
C27   C     C_3   0.000493 0.808488 0.739210 -0.221675
C28   C     C_3   0.902302 0.811829 0.812457 -0.159478
H6    H     H_    0.031592 0.703352 0.845366 0.127611
H7    H     H_    0.204375 0.693477 0.708966 0.194844
H8    H     H_    0.099334 0.855606 0.732131 0.152490
C29   C     C_3   0.495367 0.239363 0.303349 0.382012
C30   C     C_3   0.337895 0.180350 0.259827 0.433868
C31   C     C_3   0.415556 0.188743 0.187975 -0.107907
C32   C     C_3   0.573663 0.248146 0.231400 -0.204989
C33   C     C_3   0.434214 0.319964 0.240950 -0.171071
C34   C     C_3   0.275831 0.259927 0.196664 -0.172825
C35   C     C_3   0.196499 0.251103 0.269157 -0.288329
C36   C     C_3   0.356031 0.310468 0.312715 -0.122907
H9    H     H_    0.727711 0.246927 0.215836 0.134212
H10   H     H_    0.474178 0.378372 0.233619 0.113516
H11   H     H_    0.187226 0.268561 0.151730 0.131171
H12   H     H_    0.042322 0.254746 0.284802 0.160810
C37   C     C_R   0.249850 0.129610 0.824697 -0.218466
C38   C     C_R   0.415625 0.134179 0.868524 -0.079448
C39   C     C_R   0.569186 0.185792 0.864716 -0.228784
C40   C     C_R   0.557076 0.233043 0.818454 0.091708
C41   C     C_R   0.391386 0.227161 0.773981 0.059227
C42   C     C_R   0.237654 0.175001 0.776961 0.077106
C43   C     C_R   0.707582 0.286236 0.815925 -0.177060
C44   C     C_R   0.695537 0.332305 0.768984 -0.198409
C45   C     C_R   0.532731 0.325989 0.723733 0.081662
C46   C     C_R   0.379491 0.273425 0.726362 0.061625
C47   C     C_R   0.214432 0.267019 0.681435 0.088272
C48   C     C_R   0.063998 0.213786 0.683946 -0.177373
C49   C     C_R   0.075335 0.168347 0.731437 -0.193613
C50   C     C_R   0.520434 0.371411 0.676035 -0.197718
C51   C     C_R   0.355734 0.365959 0.631452 -0.073692
C52   C     C_R   0.202864 0.313818 0.634775 -0.226628
H13   H     H_    0.131416 0.089444 0.826616 0.124511
H14   H     H_    0.696992 0.190086 0.898508 0.126320
H15   H     H_    0.835350 0.291880 0.849963 0.136066
H16   H     H_    0.814371 0.372504 0.767716 0.131418
H17   H     H_    0.638416 0.411893 0.674362 0.135442
H18   H     H_    0.075890 0.308900 0.600416 0.139765
H19   H     H_    0.936743 0.207722 0.649559 0.144506
H20   H     H_    0.956716 0.128159 0.732773 0.127174
O11   O     O_R   0.271890 0.085690 0.087580 -0.539121
O12   O     O_R   0.595690 0.070020 0.939870 -0.546561
O13   O     O_R   0.758900 0.914390 0.912370 -0.519070
C53   C     C_R   0.426715 0.084982 0.918012 0.718940
O14   O     O_R   0.602020 0.095100 0.088770 -0.546646
O15   O     O_R   0.765280 0.939660 0.062330 -0.538024
C54   C     C_R   0.432914 0.118441 0.117023 0.734587
O16   O     O_R   0.265520 0.060430 0.937620 -0.543830
O17   O     O_3   0.429560 0.949050 0.991100 -0.344496
V3    V     V_3+5 0.707160 0.009450 0.001650 1.455571
O18   O     O_R   0.094540 0.929890 0.060190 -0.535872
C55   C     C_R   0.925752 0.914953 0.081678 0.699144
O19   O     O_R   0.088200 0.904800 0.911290 -0.516488
C56   C     C_R   0.918115 0.881797 0.883097 0.753626
V4    V     V_3+5 0.206300 0.990390 0.998440 1.496892
O20   O     O_3   0.934030 0.050940 0.008900 -0.385297
Cl1   Cl    Cl    0.474314 0.816263 0.800002 -0.713777
O21   O     O_3   0.654782 0.630177 0.766659 -0.572121
C57   C     C_3   0.605864 0.644042 0.841115 0.125257
H21   H     H_    0.446820 0.637542 0.843835 0.147778
H22   H     H_    0.643955 0.706020 0.879369 0.126016
C58   C     C_3   0.701278 0.580150 0.867747 -0.343339
H23   H     H_    0.650271 0.518789 0.833048 0.207600
H24   H     H_    0.860180 0.583282 0.861977 0.189520
C59   C     C_3   0.653966 0.592927 0.948175 -0.837147
H25   H     H_    0.708453 0.653122 0.984177 0.232764
H26   H     H_    0.724036 0.545189 0.965380 0.238972
H27   H     H_    0.495711 0.589088 0.955256 0.228748
O22   O     O_3   0.307337 0.102665 0.265987 -0.558071
C60   C     C_3   0.151895 0.101865 0.312970 0.126174
H28   H     H_    0.114194 0.037162 0.303124 0.175195
H29   H     H_    0.019757 0.129283 0.298928 0.138368
C61   C     C_3   0.207919 0.141396 0.394532 -0.285060
H30   H     H_    0.351065 0.119114 0.404701 0.284862
H31   H     H_    0.217104 0.208322 0.408537 0.188502
C62   C     C_3   0.061877 0.121453 0.445187 -0.722646
H32   H     H_    0.916831 0.143200 0.436837 0.298714
H33   H     H_    0.106283 0.151742 0.503483 0.216588
H34   H     H_    0.054823 0.054944 0.434220 0.249584
Cl2   Cl    Cl    0.645586 0.226337 0.373717 -0.698680
O23   O     O_3   0.094706 0.537426 0.157769 -0.577235
C63   C     C_3   0.287798 0.529063 0.177658 0.063841
H35   H     H_    0.296604 0.469895 0.187059 0.141165
H36   H     H_    0.335810 0.576211 0.230182 0.097672
C64   C     C_3   0.423818 0.528129 0.114926 -0.338788
H37   H     H_    0.360790 0.489763 0.061295 0.212644
H38   H     H_    0.442816 0.590867 0.113722 0.189876
C65   C     C_3   0.620326 0.494643 0.124888 -0.771247
H39   H     H_    0.680238 0.528518 0.180202 0.243813
H40   H     H_    0.720855 0.500805 0.082331 0.247669
H41   H     H_    0.607037 0.429425 0.119110 0.220555
O24   O     O_3   0.698229 0.750291 0.462498 -0.584720
C66   C     C_3   0.502961 0.726737 0.465029 0.135283
H42   H     H_    0.490762 0.702682 0.511480 0.192407
H43   H     H_    0.450185 0.677865 0.414406 0.084450
C67   C     C_3   0.371299 0.800249 0.480038 -0.372680
H44   H     H_    0.443275 0.855033 0.518552 0.218585
H45   H     H_    0.341772 0.811487 0.427490 0.196708
C68   C     C_3   0.180479 0.786657 0.513553 -0.749013
H46   H     H_    0.111636 0.729354 0.478476 0.239030
H47   H     H_    0.082141 0.837761 0.517926 0.236503
H48   H     H_    0.204490 0.783022 0.569446 0.223294
Cl3   Cl    Cl    0.643046 0.988129 0.352448 -0.685544
O25   O     O_3   0.718239 0.795150 0.640339 -0.558822
C69   C     C_3   0.737835 0.878342 0.648386 0.125519
H49   H     H_    0.762950 0.881509 0.592488 0.166703
H50   H     H_    0.863180 0.909934 0.682299 0.072239
C70   C     C_3   0.552740 0.923847 0.679197 -0.310815
H51   H     H_    0.425018 0.885834 0.653890 0.220980
H52   H     H_    0.548346 0.936844 0.739618 0.224041
C71   C     C_3   0.541709 0.004120 0.664228 -0.841007
H53   H     H_    0.657996 0.046145 0.694726 0.232911
H54   H     H_    0.400312 0.032339 0.682679 0.248103
H55   H     H_    0.554781 0.994235 0.604409 0.237854

loop_
_geom_bond_atom_site_label_1
_geom_bond_atom_site_label_2
_ccdc_geom_bond_type
C44   H16   S    
C68   H48   S    
C35   C36   S    
O17   V3    S    
C10   C17   A    
C71   H54   S    
C6    C55   S    
C24   C25   S    
O18   C55   A    
C67   C68   S    
C4    C19   S    
C1    O6    A    
C60   H28   S    
O11   C54   A    
C33   C34   S    
C32   C33   S    
C66   H43   S    
C14   C15   A    
C63   H35   S    
C16   C17   A    
C67   H45   S    
O22   C60   S    
C21   Cl1   S    
C28   C56   S    
C59   H26   S    
O5    C3    A    
C47   C52   A    
O12   C53   A    
C58   H23   S    
V2    O10   S    
O13   V3    S    
O19   C56   A    
C24   O21   S    
C5    C6    A    
C6    C7    A    
C25   H6    S    
O14   V3    S    
C21   C28   S    
O12   V3    S    
C31   C54   S    
O8    V2    S    
C37   C42   A    
C23   C26   S    
C53   O16   A    
C37   H13   S    
C65   H39   S    
C22   O25   S    
C11   C12   A    
C70   C71   S    
C46   C47   A    
O1    V2    S    
O14   C54   A    
O7    V1    S    
O17   V4    S    
C49   H20   S    
C62   H34   S    
C64   C65   S    
C35   H12   S    
C41   C46   A    
O9    C4    A    
C1    C36   S    
C71   H55   S    
C69   H50   S    
C37   C38   A    
C5    H1    S    
O19   V4    S    
C9    C14   A    
C62   H33   S    
O15   V3    S    
C34   H11   S    
C21   C22   S    
C66   C67   S    
C71   H53   S    
C50   C51   A    
C43   C44   A    
C60   C61   S    
C40   C43   A    
C43   H15   S    
C12   C13   A    
C21   C24   S    
C69   C70   S    
C52   H18   S    
C22   C23   S    
C20   O24   S    
C44   C45   A    
C2    C51   S    
C63   C64   S    
C13   C14   A    
C42   C49   A    
C38   C53   S    
C31   C32   S    
C25   C28   S    
C3    C23   S    
O2    C1    A    
C51   C52   A    
C17   Cl3   S    
C38   C39   A    
O11   V4    S    
C19   C20   A    
C8    C11   A    
V3    O20   S    
C33   H10   S    
C29   C32   S    
C30   C31   S    
C45   C50   A    
C57   H22   S    
C67   H44   S    
O3    C4    A    
C23   C24   S    
C70   H52   S    
C41   C42   A    
O6    V2    S    
C11   H3    S    
O9    V2    S    
C26   C27   S    
O23   C63   S    
C59   H27   S    
C25   C26   S    
C50   H17   S    
O2    V1    S    
C57   H21   S    
C62   H32   S    
O4    C2    A    
C64   H37   S    
C33   C36   S    
C13   C18   A    
C68   H47   S    
C34   C35   S    
C63   H36   S    
C15   C20   A    
O1    C2    A    
O13   C56   A    
C27   C28   S    
C5    C10   A    
C48   C49   A    
C7    H2    S    
O5    V1    S    
C60   H29   S    
O8    C3    A    
O15   C55   A    
C22   C27   S    
C29   C36   S    
C66   H42   S    
C61   H30   S    
C30   C35   S    
V4    O20   S    
C18   H4    S    
C31   C34   S    
C40   C41   A    
C30   O22   S    
C7    C8    A    
C61   H31   S    
O7    V2    S    
C47   C48   A    
O3    V1    S    
V1    O10   S    
C69   H49   S    
C29   Cl2   S    
C18   C19   A    
C58   H24   S    
C16   H5    S    
C65   H41   S    
C61   C62   S    
C57   C58   S    
O18   V4    S    
O25   C69   S    
O21   C57   S    
C45   C46   A    
C48   H19   S    
C32   H9    S    
C39   C40   A    
C27   H8    S    
O4    V1    S    
C8    C9    A    
C65   H40   S    
C29   C30   S    
C59   H25   S    
C15   C16   A    
O24   C66   S    
C70   H51   S    
C12   O23   S    
C9    C10   A    
C26   H7    S    
C39   H14   S    
C68   H46   S    
O16   V4    S    
C64   H38   S    
C58   C59   S    
