data_mof_unit_11259.cif
_audit_creation_date              2012-12-11T15:37:11-0500
_audit_creation_method            fapswitch 2.2
_symmetry_space_group_name_H-M    P1
_symmetry_Int_Tables_number       1
_space_group_crystal_system       triclinic
_cell_length_a                    16.678689
_cell_length_b                    7.058824
_cell_length_c                    15.194444
_cell_angle_alpha                 89.999976
_cell_angle_beta                  94.751247
_cell_angle_gamma                 89.999453
_cell_volume                      1782.72412221

loop_
_atom_site_label
_atom_site_type_symbol
_atom_type_description
_atom_site_fract_x
_atom_site_fract_y
_atom_site_fract_z
_atom_type_partial_charge
O1    O     O_R   0.578230 0.505720 0.424270 -0.537857
O2    O     O_R   0.421770 0.005720 0.575730 -0.537847
O3    O     O_R   0.412470 0.173950 0.404530 -0.532839
O4    O     O_R   0.587530 0.673950 0.595470 -0.532834
C1    C     C_R   0.386083 0.345601 0.380456 0.755750
C2    C     C_R   0.613915 0.845600 0.619546 0.755730
O5    O     O_R   0.577030 0.175880 0.413670 -0.521440
O6    O     O_R   0.422970 0.675880 0.586330 -0.521442
O7    O     O_R   0.587510 0.007580 0.584940 -0.543832
O8    O     O_R   0.412490 0.507580 0.415060 -0.543850
C3    C     C_R   0.603696 0.344699 0.393406 0.769556
C4    C     C_R   0.396304 0.844700 0.606594 0.769554
O9    O     O_3   0.503240 0.339850 0.556180 -0.363724
O10   O     O_3   0.496760 0.839850 0.443820 -0.363758
V1    V     V_3+5 0.499400 0.064230 0.489580 1.574039
V2    V     V_3+5 0.500600 0.564230 0.510420 1.574032
C5    C     C_1   0.333830 0.854927 0.668770 -0.091749
C6    C     C_1   0.666170 0.354924 0.331229 -0.091751
C7    C     C_1   0.281278 0.865631 0.720160 0.054448
C8    C     C_1   0.718722 0.365629 0.279840 0.054450
C9    C     C_1   0.219181 0.879123 0.780395 0.042214
C10   C     C_1   0.780819 0.379124 0.219606 0.042203
C11   C     C_1   0.166494 0.889880 0.831619 -0.149705
C12   C     C_1   0.833506 0.389882 0.168382 -0.149714
C13   C     C_3   0.771721 0.668887 0.811963 -0.053062
C14   C     C_3   0.228269 0.168894 0.188049 -0.053040
C15   C     C_3   0.692716 0.667555 0.745707 -0.281241
C16   C     C_3   0.307284 0.167572 0.254286 -0.281254
H1    H     H_    0.699999 0.555733 0.695052 0.121229
H2    H     H_    0.300024 0.055719 0.304933 0.121210
H3    H     H_    0.887769 0.857564 0.708973 0.140521
H4    H     H_    0.112222 0.357579 0.291041 0.140534
H5    H     H_    0.778918 0.770809 0.614487 0.139334
H6    H     H_    0.221081 0.270792 0.385520 0.139325
C17   C     C_3   0.833158 0.936760 0.724796 -0.441275
C18   C     C_3   0.166834 0.436767 0.275217 -0.441236
C19   C     C_3   0.739617 0.027271 0.837552 -0.245754
C20   C     C_3   0.260371 0.527280 0.162458 -0.245782
C21   C     C_3   0.807573 0.881406 0.817948 0.018115
C22   C     C_3   0.192418 0.381413 0.182063 0.018089
H7    H     H_    0.767126 0.169680 0.834154 0.120291
H8    H     H_    0.232859 0.669688 0.165853 0.120265
C23   C     C_3   0.681956 0.860257 0.693756 -0.040802
C24   C     C_3   0.318039 0.360262 0.306250 -0.040774
C25   C     C_3   0.763670 0.900059 0.651641 -0.189132
C26   C     C_3   0.236325 0.400051 0.348370 -0.189138
C27   C     C_3   0.669182 0.026595 0.761121 -0.176529
C28   C     C_3   0.330804 0.526619 0.238893 -0.176503
H9    H     H_    0.676001 0.160428 0.723975 0.098222
H10   H     H_    0.323969 0.660439 0.276043 0.098096
H11   H     H_    0.851654 0.088332 0.725505 0.184477
H12   H     H_    0.148341 0.588342 0.274510 0.184469
O11   O     O_R   0.087480 0.241090 0.084980 -0.508341
O12   O     O_R   0.912520 0.741090 0.915020 -0.508310
O13   O     O_R   0.922960 0.569060 0.086330 -0.517178
O14   O     O_R   0.077040 0.069060 0.913670 -0.517221
C29   C     C_R   0.896203 0.400179 0.106477 0.729252
C30   C     C_R   0.103798 0.900178 0.893524 0.729128
O15   O     O_R   0.087520 0.570920 0.095480 -0.535115
O16   O     O_R   0.912480 0.070920 0.904520 -0.535091
O17   O     O_R   0.078240 0.739160 0.924260 -0.547677
O18   O     O_R   0.921760 0.239160 0.075740 -0.547665
C31   C     C_R   0.117934 0.400763 0.115377 0.698110
C32   C     C_R   0.882059 0.900764 0.884632 0.698241
O19   O     O_3   0.996740 0.404980 0.943840 -0.345790
O20   O     O_3   0.003260 0.904980 0.056160 -0.345789
V3    V     V_3+5 0.000600 0.680640 0.010420 1.582589
V4    V     V_3+5 0.999400 0.180640 0.989580 1.582574
C33   C     C_2   0.832689 0.536482 0.772693 0.249157
H13   H     H_    0.842227 0.543392 0.703081 0.062376
O21   O     O_2   0.871521 0.419706 0.817378 -0.525799
C34   C     C_2   0.167305 0.036500 0.227338 0.249118
H14   H     H_    0.157792 0.043385 0.296956 0.062389
O22   O     O_2   0.128447 0.919759 0.182659 -0.525799
C35   C     C_2   0.759424 0.061563 0.585700 0.386698
H15   H     H_    0.750450 0.206157 0.607032 0.031254
O23   O     O_2   0.766854 0.031015 0.507700 -0.536570
C36   C     C_2   0.240571 0.561541 0.414319 0.386684
H16   H     H_    0.249524 0.706146 0.392991 0.031248
O24   O     O_2   0.233168 0.530970 0.492322 -0.536572
C37   C     C_2   0.754089 0.582010 0.901418 0.481488
H17   H     H_    0.724888 0.444901 0.902211 -0.010567
O25   O     O_2   0.772841 0.657782 0.972247 -0.527510
C38   C     C_2   0.245887 0.081976 0.098600 0.481183
H18   H     H_    0.275054 0.944747 0.097830 -0.010523
O26   O     O_2   0.227255 0.157886 0.027774 -0.527590
C39   C     C_2   0.616506 0.611004 0.787713 0.385069
H19   H     H_    0.600127 0.679647 0.847320 0.149241
O27   O     O_2   0.573161 0.485370 0.755558 -0.535393
C40   C     C_2   0.383485 0.111094 0.212247 0.385168
H20   H     H_    0.399822 0.179740 0.152622 0.149286
O28   O     O_2   0.426875 0.985537 0.244399 -0.535380
C41   C     C_2   0.716247 0.020518 0.932012 0.401239
H21   H     H_    0.754881 0.089552 0.983402 0.061790
O29   O     O_2   0.656774 0.936261 0.952781 -0.515178
C42   C     C_2   0.283727 0.520515 0.067991 0.401451
H22   H     H_    0.244990 0.589236 0.016584 0.061799
O30   O     O_2   0.343305 0.436579 0.047237 -0.515154
C43   C     C_2   0.585370 0.051273 0.792124 0.464990
H23   H     H_    0.575572 0.160532 0.840281 0.119040
O31   O     O_2   0.527866 0.957306 0.762782 -0.546423
C44   C     C_2   0.414618 0.551359 0.207905 0.465050
H24   H     H_    0.424415 0.660702 0.159786 0.119125
O32   O     O_2   0.472121 0.457336 0.237212 -0.546391

loop_
_geom_bond_atom_site_label_1
_geom_bond_atom_site_label_2
_ccdc_geom_bond_type
C11   C30   S    
O20   V4    S    
C39   H19   S    
C3    C6    S    
C41   H21   S    
C15   H1    S    
C14   C34   S    
O1    C3    A    
O2    C4    A    
C2    O7    A    
C37   H17   S    
C27   C43   S    
C29   O18   A    
C27   H9    S    
O5    C3    A    
C21   C32   S    
C22   C31   S    
H4    C18   S    
C10   C12   T    
C7    C9    S    
C38   O26   D    
C20   H8    S    
C44   O32   D    
C36   O24   D    
H5    C25   S    
C33   O21   D    
O11   V4    S    
O15   V3    S    
O14   C30   A    
C12   C29   S    
O19   V3    S    
C42   O30   D    
C4    C5    S    
C18   C26   S    
H6    C26   S    
C19   C27   S    
C20   C28   S    
C18   H12   S    
C30   O17   A    
C28   H10   S    
O20   V3    S    
C41   O29   D    
C13   C37   S    
C33   H13   S    
C37   O25   D    
C24   C26   S    
C18   C22   S    
C38   H18   S    
C34   O22   D    
C26   C36   S    
C36   H16   S    
O12   V3    S    
O14   V4    S    
C16   C24   S    
O4    V2    S    
C17   C21   S    
C35   H15   S    
C23   C25   S    
O17   V3    S    
C40   O28   D    
C43   H23   S    
O6    C4    A    
O19   V4    S    
C28   C44   S    
C42   H22   S    
C19   C41   S    
O1    V2    S    
C15   C39   S    
O2    V1    S    
C35   O23   D    
C25   C35   S    
O4    C2    A    
C43   O31   D    
C1    C24   S    
C8    C10   S    
C2    C23   S    
O13   C29   A    
C17   H11   S    
H3    C17   S    
C13   C33   S    
C17   C25   S    
O3    V1    S    
C14   C38   S    
C14   C16   S    
C34   H14   S    
O3    C1    A    
O13   V3    S    
C13   C15   S    
O15   C31   A    
O18   V4    S    
O16   C32   A    
C9    C11   T    
O7    V1    S    
C1    O8    A    
C19   C21   S    
O8    V2    S    
C13   C21   S    
C20   C22   S    
O11   C31   A    
C14   C22   S    
C40   H20   S    
O12   C32   A    
O5    V1    S    
C5    C7    T    
C16   H2    S    
C6    C8    T    
C19   H7    S    
C44   H24   S    
C15   C23   S    
O16   V4    S    
O6    V2    S    
O9    V2    S    
C20   C42   S    
C39   O27   D    
O10   V1    S    
C16   C40   S    
C23   C27   S    
C24   C28   S    
