data_mof_unit_50511.cif
_audit_creation_date              2012-12-10T17:41:52-0500
_audit_creation_method            fapswitch 2.2
_symmetry_space_group_name_H-M    P1
_symmetry_Int_Tables_number       1
_space_group_crystal_system       triclinic
_cell_length_a                    13.800902
_cell_length_b                    13.926307
_cell_length_c                    15.072273
_cell_angle_alpha                 87.585295
_cell_angle_beta                  88.369504
_cell_angle_gamma                 85.677403
_cell_volume                      2885.09041954

loop_
_atom_site_label
_atom_site_type_symbol
_atom_type_description
_atom_site_fract_x
_atom_site_fract_y
_atom_site_fract_z
_atom_type_partial_charge
C1    C     C_R   0.501096 0.500125 0.328628 0.805199
C2    C     C_R   0.498972 0.498681 0.671323 0.799857
C3    C     C_R   0.497448 0.491521 0.953654 0.056560
C4    C     C_R   0.500545 0.494542 0.046548 0.058174
C5    C     C_R   0.582190 0.460568 0.905353 0.089831
C6    C     C_R   0.415897 0.526373 0.094598 0.089384
C7    C     C_R   0.324535 0.548273 0.958569 -0.022181
C8    C     C_R   0.672120 0.433082 0.041681 -0.019432
C9    C     C_R   0.329453 0.553057 0.050763 -0.238028
C10   C     C_R   0.667524 0.430252 0.949335 -0.237123
C11   C     C_R   0.790700 0.575824 0.457975 0.282728
C12   C     C_R   0.208440 0.427945 0.546734 0.268562
C13   C     C_R   0.798403 0.424671 0.538735 0.010237
C14   C     C_R   0.202681 0.572845 0.456652 0.008264
C15   C     C_R   0.901139 0.421077 0.534847 -0.021534
C16   C     C_R   0.100087 0.576969 0.460294 -0.018116
C17   C     C_R   0.948714 0.500741 0.499696 0.060394
C18   C     C_R   0.052283 0.497785 0.495813 0.066584
C19   C     C_R   0.892932 0.583539 0.469071 -0.061961
C20   C     C_R   0.108148 0.416920 0.530026 -0.088321
C21   C     C_R   0.956973 0.338005 0.562975 -0.217844
C22   C     C_R   0.044991 0.660948 0.434453 -0.232831
C23   C     C_R   0.515110 0.317381 0.500836 0.802906
C24   C     C_R   0.484864 0.682643 0.499194 0.812605
C25   C     C_R   0.059199 0.333537 0.557502 -0.021461
C26   C     C_R   0.943104 0.667599 0.444650 -0.028396
C27   C     C_1   0.476588 0.785157 0.495791 -0.090825
C28   C     C_1   0.522767 0.214943 0.506799 -0.098984
C29   C     C_2   0.461937 0.975387 0.487050 -0.120055
C30   C     C_2   0.532809 0.025035 0.521186 -0.100853
C31   C     C_1   0.527872 0.128596 0.513071 0.062616
C32   C     C_1   0.469584 0.871603 0.492199 0.057564
C33   C     C_R   0.581298 0.461597 0.813096 -0.203424
C34   C     C_R   0.417794 0.529441 0.186549 -0.204564
C35   C     C_R   0.497203 0.494206 0.768187 -0.081255
C36   C     C_R   0.502593 0.499858 0.231713 -0.085797
C37   C     C_R   0.412177 0.522890 0.815657 -0.207684
C38   C     C_R   0.586908 0.467655 0.184627 -0.218019
C39   C     C_R   0.410058 0.520072 0.908860 0.032003
C40   C     C_R   0.587922 0.465734 0.091431 0.030222
Cu1   Cu    Cu3+1 0.597420 0.500010 0.499990 0.957089
Cu2   Cu    Cu3+1 0.402580 0.499990 0.500010 0.959542
H1    H     H_    0.646717 0.437962 0.776067 0.157736
H2    H     H_    0.352562 0.554356 0.223214 0.157611
H3    H     H_    0.349488 0.551002 0.778956 0.180841
H4    H     H_    0.650121 0.442003 0.221780 0.191516
H5    H     H_    0.264474 0.575178 0.089135 0.182277
H6    H     H_    0.732010 0.406407 0.911037 0.179536
H7    H     H_    0.762195 0.364879 0.569164 0.144899
H8    H     H_    0.239556 0.631305 0.424540 0.143960
H9    H     H_    0.920614 0.274569 0.585175 0.185901
H10   H     H_    0.082087 0.724374 0.413539 0.183377
N1    N     N_R   0.743820 0.499960 0.499930 -0.196962
N2    N     N_R   0.256180 0.500040 0.500070 -0.193490
O1    O     O_R   0.582280 0.500030 0.370250 -0.605279
O2    O     O_R   0.417720 0.499970 0.629750 -0.604831
O3    O     O_R   0.417740 0.500020 0.370270 -0.572747
O4    O     O_R   0.582260 0.499980 0.629730 -0.570365
O5    O     O_R   0.593900 0.362160 0.500010 -0.580581
O6    O     O_R   0.406100 0.637840 0.499990 -0.581265
O7    O     O_R   0.429360 0.362150 0.500030 -0.568329
O8    O     O_R   0.570640 0.637850 0.499970 -0.582195
C41   C     C_2   0.617500 0.978165 0.570469 0.853396
O9    O     O_2   0.690242 0.022054 0.577722 -0.579775
O10   O     O_R   0.613821 0.886335 0.611201 -0.751188
H11   H     H_    0.675598 0.864138 0.643319 0.357054
C42   C     C_2   0.375182 0.021934 0.440221 0.890827
O11   O     O_2   0.305470 0.974877 0.428906 -0.565327
O12   O     O_R   0.372802 0.117464 0.407292 -0.746326
H12   H     H_    0.309921 0.138960 0.376649 0.365306
C43   C     C_2   0.228026 0.570544 0.918251 0.844945
O13   O     O_2   0.201533 0.521665 0.859222 -0.616865
O14   O     O_R   0.165153 0.644831 0.951333 -0.744237
H13   H     H_    0.100927 0.652255 0.919806 0.347252
C44   C     C_2   0.766829 0.402006 0.081832 0.845814
O15   O     O_2   0.800352 0.449803 0.138044 -0.627178
O16   O     O_R   0.820427 0.320171 0.051325 -0.739141
H14   H     H_    0.884570 0.306883 0.082341 0.348760
C45   C     C_3   0.741207 0.639170 0.384450 -0.407217
C46   C     C_3   0.788577 0.619803 0.292803 -0.381897
C47   C     C_3   0.733847 0.677151 0.218844 -0.744631
H15   H     H_    0.657240 0.657882 0.218008 0.244834
H16   H     H_    0.734985 0.755668 0.228684 0.258442
H17   H     H_    0.769198 0.660552 0.153608 0.271949
H18   H     H_    0.865049 0.639376 0.289832 0.240563
H19   H     H_    0.788419 0.541742 0.280863 0.270041
H20   H     H_    0.665599 0.627232 0.378058 0.256003
H21   H     H_    0.737684 0.716451 0.397843 0.206795
C48   C     C_3   0.239312 0.396116 0.641218 -0.349252
C49   C     C_3   0.313871 0.308325 0.651480 -0.316785
C50   C     C_3   0.297561 0.250460 0.738310 -0.819598
H22   H     H_    0.302613 0.297058 0.795828 0.274364
H23   H     H_    0.225149 0.220763 0.740031 0.282278
H24   H     H_    0.354063 0.189540 0.744142 0.246995
H25   H     H_    0.312329 0.260032 0.595294 0.266429
H26   H     H_    0.388111 0.332291 0.654294 0.226820
H27   H     H_    0.264066 0.458367 0.674934 0.220285
H28   H     H_    0.173431 0.381039 0.682214 0.194619
C51   C     C_2   0.111162 0.237424 0.569587 0.853754
O17   O     O_2   0.176155 0.211858 0.517045 -0.587898
O18   O     O_R   0.081165 0.173379 0.636988 -0.754753
H29   H     H_    0.121067 0.109189 0.637249 0.348603
C52   C     C_2   0.894908 0.766137 0.443427 0.839929
O19   O     O_2   0.917119 0.825897 0.386089 -0.569402
O20   O     O_R   0.826777 0.791815 0.510346 -0.754296
H30   H     H_    0.799600 0.861248 0.502887 0.356467

loop_
_geom_bond_atom_site_label_1
_geom_bond_atom_site_label_2
_ccdc_geom_bond_type
C2    C35   S    
C41   O10   S    
O18   H29   S    
Cu1   Cu2   S    
C24   C27   S    
C6    C9    A    
C45   H20   S    
C47   H15   S    
C49   H25   S    
O16   H14   S    
C23   O5    A    
C11   C19   A    
C46   H18   S    
C35   C37   A    
Cu1   O4    S    
C29   C32   S    
C7    C43   S    
C30   C31   S    
C33   C35   A    
C20   C25   A    
C7    C9    A    
O14   H13   S    
C19   C26   A    
Cu1   O1    S    
C46   H19   S    
Cu2   O2    S    
C29   C42   S    
C25   C51   S    
C4    C40   A    
C5    C33   A    
C24   O8    A    
C18   C20   A    
C11   N1    A    
C3    C39   A    
C30   C41   S    
Cu1   O8    S    
Cu2   O3    S    
C45   H21   S    
C47   H16   S    
C13   N1    A    
C42   O11   D    
C33   H1    S    
C12   C48   S    
C34   H2    S    
C45   C46   S    
Cu1   O5    S    
C4    C6    A    
Cu2   O6    S    
C50   H22   S    
C43   O14   S    
C8    C44   S    
C6    C34   A    
C48   H27   S    
C42   O12   S    
C44   O15   D    
C29   C30   D    
C1    O3    A    
C26   C52   S    
C50   H23   S    
C51   O17   D    
C15   C21   A    
C24   O6    A    
C12   C20   A    
C17   C18   A    
C52   O20   S    
C23   C28   S    
C44   O16   S    
Cu2   O7    S    
Cu1   N1    S    
C11   C45   S    
C13   H7    S    
C16   C18   A    
C51   O18   S    
C9    H5    S    
C13   C15   A    
C10   H6    S    
C14   C16   A    
C37   H3    S    
C3    C4    A    
C21   H9    S    
C47   H17   S    
C22   H10   S    
C15   C17   A    
C21   C25   A    
C16   C22   A    
C14   N2    A    
C27   C32   T    
C28   C31   T    
C46   C47   S    
C3    C5    A    
C2    O4    A    
C49   H26   S    
O20   H30   S    
C48   H28   S    
C36   C38   A    
C1    O1    A    
C5    C10   A    
C37   C39   A    
C2    O2    A    
Cu2   N2    S    
C50   H24   S    
C38   C40   A    
C49   C50   S    
C14   H8    S    
C17   C19   A    
C34   C36   A    
O12   H12   S    
C38   H4    S    
C41   O9    D    
C23   O7    A    
C43   O13   D    
C8    C10   A    
O10   H11   S    
C22   C26   A    
C52   O19   D    
C7    C39   A    
C8    C40   A    
C48   C49   S    
C12   N2    A    
C1    C36   S    
