data_mof_unit_62508.cif
_audit_creation_date              2012-12-10T16:50:07-0500
_audit_creation_method            fapswitch 2.2
_symmetry_space_group_name_H-M    P1
_symmetry_Int_Tables_number       1
_space_group_crystal_system       triclinic
_cell_length_a                    26.215691
_cell_length_b                    26.158909
_cell_length_c                    22.352939
_cell_angle_alpha                 89.860351
_cell_angle_beta                  53.818587
_cell_angle_gamma                 89.971428
_cell_volume                      12372.8355108

loop_
_atom_site_label
_atom_site_type_symbol
_atom_type_description
_atom_site_fract_x
_atom_site_fract_y
_atom_site_fract_z
_atom_type_partial_charge
C1    C     C_R   0.650449 0.749966 0.699011 0.837341
C2    C     C_3   0.034370 0.238604 0.041549 -0.154101
C3    C     C_2   0.557767 0.745256 0.496699 -0.277630
C4    C     C_2   0.003739 0.736353 0.438935 0.002662
C5    C     C_2   0.003819 0.263521 0.438737 -0.008849
C6    C     C_2   0.503770 0.236469 0.438869 0.001607
C7    C     C_2   0.503865 0.763382 0.438640 -0.009499
C8    C     C_2   0.942303 0.783549 0.930202 0.365396
C9    C     C_2   0.944157 0.209400 0.932007 0.367006
C10   C     C_2   0.443296 0.286152 0.930181 0.365763
C11   C     C_2   0.442432 0.713516 0.931988 0.366706
C12   C     C_2   0.981635 0.652774 0.070742 0.414186
C13   C     C_3   0.533846 0.265833 0.041343 -0.161448
C14   C     C_2   0.965731 0.348941 0.072914 0.433985
C15   C     C_2   0.478880 0.152330 0.070767 0.413586
C16   C     C_2   0.470134 0.848847 0.072917 0.439496
C17   C     C_2   0.061922 0.741082 0.075546 0.390774
C18   C     C_2   0.059890 0.271197 0.074152 0.422291
C19   C     C_2   0.561623 0.238267 0.075563 0.390458
C20   C     C_2   0.560664 0.766990 0.074191 0.424242
C21   C     C_2   0.675358 0.049476 0.460730 0.442470
C22   C     C_2   0.639801 0.945931 0.528254 0.452637
C23   C     C_2   0.175344 0.549480 0.460744 0.446898
C24   C     C_3   0.533754 0.736276 0.041584 -0.155809
C25   C     C_2   0.139798 0.445929 0.528244 0.457664
C26   C     C_2   0.828482 0.444538 0.531681 0.441089
C27   C     C_2   0.865213 0.548411 0.456575 0.582858
C28   C     C_2   0.344964 0.956922 0.370822 0.502444
C29   C     C_2   0.360735 0.043298 0.456562 0.480318
C30   C     C_2   0.021170 0.728894 0.363012 0.487618
C31   C     C_2   0.021251 0.270852 0.362742 0.491463
C32   C     C_2   0.521208 0.229142 0.362921 0.480994
C33   C     C_2   0.521289 0.770610 0.362631 0.488573
C34   C     C_2   0.013009 0.846129 0.931337 0.490709
C35   C     C_3   0.938124 0.789147 0.045518 -0.434085
C36   C     C_2   0.020586 0.152190 0.930568 0.494938
C37   C     C_2   0.515734 0.346693 0.931318 0.492792
C38   C     C_2   0.516231 0.653023 0.930641 0.496509
C39   C     C_3   0.942185 0.206563 0.046041 -0.455657
C40   C     C_3   0.439247 0.290234 0.045505 -0.433649
C41   C     C_3   0.440238 0.708278 0.046057 -0.455325
C42   C     C_3   0.982372 0.793177 0.958156 -0.017921
C43   C     C_3   0.985800 0.203475 0.958564 -0.018045
C44   C     C_3   0.483611 0.294249 0.958143 -0.019378
C45   C     C_R   0.650513 0.249984 0.699016 0.823597
C46   C     C_3   0.483735 0.705180 0.958585 -0.018995
C47   C     C_1   0.110876 0.750182 0.778253 -0.101404
C48   C     C_1   0.110737 0.249617 0.778255 -0.105789
C49   C     C_1   0.610885 0.250187 0.778253 -0.100886
C50   C     C_1   0.610698 0.749669 0.778262 -0.105164
C51   C     C_3   0.964418 0.749871 0.073351 0.105223
C52   C     C_3   0.963949 0.250259 0.073354 0.128319
C53   C     C_3   0.464413 0.249838 0.073352 0.104783
C54   C     C_3   0.463912 0.750342 0.073370 0.128002
C55   C     C_3   0.076501 0.762168 0.955403 -0.372762
C56   C     C_R   0.150453 0.249961 0.699009 0.836903
C57   C     C_3   0.077114 0.242073 0.955478 -0.474446
C58   C     C_3   0.576821 0.260633 0.955411 -0.372175
C59   C     C_3   0.576657 0.739768 0.955515 -0.472692
C60   C     C_3   0.036063 0.751363 0.926663 0.136254
C61   C     C_3   0.036011 0.248353 0.926689 0.179816
C62   C     C_3   0.536105 0.251381 0.926663 0.135857
C63   C     C_3   0.535896 0.748495 0.926704 0.180317
C64   C     C_3   0.006507 0.697457 0.956156 -0.481359
C65   C     C_3   0.002311 0.300946 0.955672 -0.487968
C66   C     C_3   0.505034 0.197914 0.956164 -0.481571
C67   C     C_R   0.150511 0.749982 0.699016 0.823338
C68   C     C_3   0.504539 0.801888 0.955669 -0.489533
C69   C     C_3   0.963583 0.696451 0.042345 -0.152431
C70   C     C_3   0.957079 0.301230 0.041772 -0.174238
C71   C     C_3   0.462078 0.196902 0.042354 -0.151804
C72   C     C_3   0.459347 0.802282 0.041781 -0.177330
C73   C     C_R   0.849550 0.749983 0.300997 0.831327
C74   C     C_R   0.849604 0.250073 0.301005 0.837752
C75   C     C_R   0.349549 0.249981 0.300997 0.832254
C76   C     C_R   0.349594 0.750085 0.301008 0.847088
C77   C     C_1   0.077374 0.750582 0.844923 -0.096301
C78   C     C_2   0.945097 0.749790 0.498343 -0.285181
C79   C     C_1   0.077252 0.249156 0.844932 -0.093599
C80   C     C_1   0.577395 0.250590 0.844923 -0.096105
C81   C     C_1   0.577181 0.749258 0.844942 -0.093759
C82   C     C_1   0.923036 0.749989 0.155107 -0.084936
C83   C     C_1   0.922922 0.250253 0.155106 -0.019195
C84   C     C_1   0.423032 0.249970 0.155108 -0.084696
C85   C     C_1   0.422888 0.750320 0.155119 -0.018620
C86   C     C_1   0.889380 0.750016 0.221773 -0.083667
C87   C     C_1   0.889442 0.250207 0.221776 -0.057712
C88   C     C_1   0.389376 0.250008 0.221774 -0.083588
C89   C     C_2   0.945134 0.250159 0.498313 -0.296109
C90   C     C_1   0.389414 0.750248 0.221786 -0.049973
C91   C     C_2   0.706362 0.027108 0.492971 -0.077415
C92   C     C_2   0.699948 0.970852 0.506603 -0.079635
C93   C     C_2   0.206354 0.527109 0.492977 -0.079592
C94   C     C_2   0.199943 0.470852 0.506604 -0.082761
C95   C     C_2   0.737065 0.055800 0.513026 -0.314597
C96   C     C_2   0.747182 0.944321 0.500801 -0.297063
C97   C     C_2   0.237060 0.555801 0.513029 -0.313037
C98   C     C_2   0.247175 0.444321 0.500806 -0.296449
C99   C     C_2   0.792858 0.470741 0.507172 -0.071899
C100  C     C_2   0.445106 0.249807 0.498327 -0.289774
C101  C     C_2   0.800770 0.526908 0.492738 -0.009390
C102  C     C_2   0.298141 0.973537 0.448993 -0.117395
C103  C     C_2   0.301492 0.026576 0.467354 -0.095347
C104  C     C_2   0.752406 0.444380 0.499766 -0.364381
C105  C     C_2   0.749844 0.555834 0.513625 -0.357899
C106  C     C_2   0.251233 0.943897 0.503277 -0.300316
C107  C     C_2   0.249756 0.056081 0.495939 -0.293195
C108  C     C_R   0.750355 0.611167 0.502465 0.886695
C109  C     C_R   0.750385 0.388720 0.500409 0.833324
C110  C     C_R   0.250324 0.111317 0.501105 0.910732
C111  C     C_2   0.445159 0.750114 0.498264 -0.299350
C112  C     C_R   0.249973 0.888675 0.498708 0.910349
C113  C     C_R   0.749282 0.888691 0.500424 0.941442
C114  C     C_R   0.747250 0.111195 0.502448 0.900240
C115  C     C_R   0.249279 0.388691 0.500427 0.941163
C116  C     C_R   0.247248 0.611194 0.502449 0.898806
C117  C     C_R   0.611408 0.749611 0.499804 0.893386
C118  C     C_R   0.611441 0.250398 0.499811 0.886178
C119  C     C_R   0.111405 0.249616 0.499811 0.894407
C120  C     C_R   0.111440 0.750395 0.499813 0.890099
C121  C     C_R   0.889582 0.750840 0.498270 0.909800
C122  C     C_3   0.033382 0.767368 0.041336 -0.161856
C123  C     C_R   0.889620 0.249137 0.498266 0.899277
C124  C     C_R   0.389585 0.250846 0.498265 0.908253
C125  C     C_R   0.389629 0.749121 0.498246 0.897373
C126  C     C_2   0.055140 0.728836 0.447013 -0.227874
C127  C     C_2   0.055257 0.271076 0.446715 -0.242880
C128  C     C_2   0.555184 0.228932 0.446923 -0.232784
C129  C     C_2   0.555322 0.770952 0.446588 -0.248717
C130  C     C_2   0.057762 0.754708 0.496739 -0.279622
C131  C     C_2   0.057755 0.245283 0.496720 -0.277063
C132  C     C_2   0.557763 0.254722 0.496735 -0.281401
H1    H     H_    0.045083 0.668640 0.933077 0.186582
H2    H     H_    0.911752 0.241403 0.951229 0.084638
H3    H     H_    0.412598 0.253008 0.948451 0.079912
H4    H     H_    0.411469 0.746498 0.951169 0.084789
H5    H     H_    0.030417 0.647453 0.050488 0.070669
H6    H     H_    0.012495 0.363613 0.050184 0.058917
H7    H     H_    0.527495 0.145916 0.050516 0.070097
H8    H     H_    0.517518 0.862191 0.049713 0.055417
H9    H     H_    0.914264 0.689029 0.061168 0.179449
H10   H     H_    0.907854 0.302689 0.058092 0.176765
H11   H     H_    0.412568 0.190611 0.061171 0.179590
H12   H     H_    0.038637 0.331628 0.934392 0.184057
H13   H     H_    0.410225 0.805603 0.058121 0.177459
H14   H     H_    0.034498 0.714598 0.121449 0.090541
H15   H     H_    0.076356 0.309753 0.054418 0.058088
H16   H     H_    0.533453 0.211916 0.121466 0.089476
H17   H     H_    0.578490 0.805326 0.054742 0.058251
H18   H     H_    0.111290 0.730637 0.937440 0.199925
H19   H     H_    0.110663 0.274803 0.935524 0.176443
H20   H     H_    0.610710 0.228387 0.937456 0.199942
H21   H     H_    0.611616 0.771432 0.935576 0.176457
H22   H     H_    0.978633 0.685969 0.935554 0.175384
H23   H     H_    0.542787 0.168347 0.933096 0.186439
H24   H     H_    0.975340 0.310040 0.933001 0.177240
H25   H     H_    0.476854 0.187509 0.935557 0.175005
H26   H     H_    0.477986 0.812654 0.933014 0.177036
H27   H     H_    0.679465 0.030110 0.415190 0.042896
H28   H     H_    0.608921 0.965263 0.518198 0.054319
H29   H     H_    0.179444 0.530115 0.415207 0.045265
H30   H     H_    0.108921 0.465261 0.518185 0.062095
H31   H     H_    0.752747 0.038138 0.543578 0.153111
H32   H     H_    0.788889 0.963459 0.489069 0.124870
H33   H     H_    0.252744 0.538137 0.543578 0.153229
H34   H     H_    0.542196 0.831406 0.934345 0.183852
H35   H     H_    0.288880 0.463460 0.489080 0.124816
H36   H     H_    0.824807 0.403605 0.541026 0.065518
H37   H     H_    0.905649 0.527884 0.410964 0.047351
H38   H     H_    0.389412 0.977274 0.335562 0.038839
H39   H     H_    0.404611 0.023255 0.417447 0.029611
H40   H     H_    0.022099 0.782730 0.533023 0.159620
H41   H     H_    0.022004 0.217275 0.533251 0.160920
H42   H     H_    0.522064 0.282699 0.533094 0.159802
H43   H     H_    0.521977 0.717298 0.533313 0.161313
H44   H     H_    0.723658 0.463644 0.486352 0.156877
H45   H     H_    0.093973 0.703870 0.407617 0.182795
H46   H     H_    0.703312 0.538255 0.545354 0.164206
H47   H     H_    0.215359 0.960444 0.557021 0.151987
H48   H     H_    0.206328 0.039436 0.508726 0.150608
H49   H     H_    0.059646 0.703283 0.325026 0.055362
H50   H     H_    0.059946 0.296298 0.324392 0.053661
H51   H     H_    0.559783 0.203646 0.324808 0.053386
H52   H     H_    0.560077 0.795947 0.324166 0.051013
H53   H     H_    0.935577 0.756906 0.551821 0.139365
H54   H     H_    0.935586 0.243121 0.551865 0.141835
H55   H     H_    0.435576 0.256842 0.551827 0.139026
H56   H     H_    0.094193 0.295995 0.407066 0.175581
H57   H     H_    0.435608 0.743140 0.551831 0.141192
H58   H     H_    0.104746 0.797752 0.930118 0.184687
H59   H     H_    0.106908 0.207153 0.931828 0.189922
H60   H     H_    0.606062 0.295763 0.930123 0.185539
H61   H     H_    0.604902 0.704095 0.931871 0.190799
H62   H     H_    0.031397 0.808667 0.054635 0.194306
H63   H     H_    0.036257 0.198258 0.056412 0.206458
H64   H     H_    0.533024 0.306982 0.054637 0.194428
H65   H     H_    0.533839 0.695554 0.056456 0.206588
H66   H     H_    0.889370 0.777336 0.066385 0.156669
H67   H     H_    0.594055 0.204024 0.407449 0.182153
H68   H     H_    0.891900 0.213140 0.068159 0.158441
H69   H     H_    0.390177 0.279510 0.066367 0.157054
H70   H     H_    0.390298 0.716618 0.068141 0.159241
H71   H     H_    0.931242 0.826600 0.072674 0.231264
H72   H     H_    0.940805 0.170078 0.072500 0.232874
H73   H     H_    0.433417 0.327482 0.072657 0.231417
H74   H     H_    0.437188 0.671302 0.072548 0.232517
H75   H     H_    0.043349 0.854198 0.872274 0.094779
H76   H     H_    0.050810 0.144727 0.871395 0.093559
H77   H     H_    0.546303 0.354736 0.872254 0.095907
H78   H     H_    0.594302 0.795805 0.406853 0.174805
H79   H     H_    0.546123 0.645522 0.871475 0.094998
H80   H     H_    0.912547 0.749809 0.948471 0.080334
O1    O     O_3   0.750030 0.750030 0.500000 -0.512350
O2    O     O_R   0.758570 0.135390 0.542990 -0.647874
O3    O     O_R   0.258570 0.364610 0.542990 -0.638226
O4    O     O_R   0.258570 0.635390 0.542990 -0.648100
O5    O     O_R   0.638020 0.720010 0.663980 -0.625079
O6    O     O_R   0.638020 0.279990 0.663980 -0.626138
O7    O     O_R   0.138020 0.220010 0.663980 -0.624538
O8    O     O_R   0.138020 0.779990 0.663980 -0.627629
O9    O     O_R   0.801960 0.780050 0.336020 -0.649835
O10   O     O_R   0.801960 0.219950 0.336020 -0.650589
O11   O     O_R   0.301960 0.280050 0.336020 -0.649195
O12   O     O_3   0.750030 0.249970 0.500000 -0.508896
O13   O     O_R   0.301960 0.719950 0.336020 -0.654055
O14   O     O_R   0.698090 0.780090 0.663980 -0.633449
O15   O     O_R   0.698090 0.219910 0.663980 -0.637356
O16   O     O_R   0.198090 0.280090 0.663980 -0.633641
O17   O     O_R   0.198090 0.719910 0.663980 -0.637432
O18   O     O_R   0.862050 0.719970 0.336020 -0.614223
O19   O     O_R   0.862050 0.280030 0.336020 -0.599559
O20   O     O_R   0.362050 0.219970 0.336020 -0.616015
O21   O     O_R   0.362050 0.780030 0.336020 -0.585600
O22   O     O_R   0.698510 0.635460 0.542990 -0.645385
O23   O     O_3   0.250030 0.250030 0.500000 -0.512533
O24   O     O_R   0.698510 0.364540 0.542990 -0.626971
O25   O     O_R   0.198510 0.135460 0.542990 -0.653350
O26   O     O_R   0.198510 0.864540 0.542990 -0.650602
O27   O     O_R   0.741470 0.864610 0.457010 -0.617925
O28   O     O_R   0.741470 0.135390 0.457010 -0.594665
O29   O     O_R   0.241470 0.364610 0.457010 -0.617497
O30   O     O_R   0.241470 0.635390 0.457010 -0.595961
O31   O     O_R   0.613960 0.720010 0.542990 -0.641373
O32   O     O_R   0.613960 0.279990 0.542990 -0.642990
O33   O     O_R   0.113960 0.220010 0.542990 -0.641417
O34   O     O_3   0.250030 0.749970 0.500000 -0.513876
O35   O     O_R   0.113960 0.779990 0.542990 -0.642049
O36   O     O_R   0.843120 0.780070 0.542990 -0.656056
O37   O     O_R   0.843120 0.219930 0.542990 -0.646741
O38   O     O_R   0.343120 0.280070 0.542990 -0.655050
O39   O     O_R   0.343120 0.719930 0.542990 -0.647573
O40   O     O_R   0.656940 0.780080 0.457010 -0.628748
O41   O     O_R   0.656940 0.219920 0.457010 -0.616627
O42   O     O_R   0.156940 0.280080 0.457010 -0.628167
O43   O     O_R   0.156940 0.719920 0.457010 -0.616250
O44   O     O_R   0.886110 0.719980 0.457010 -0.580160
O45   O     O_R   0.801570 0.635440 0.457010 -0.606261
O46   O     O_R   0.886110 0.280020 0.457010 -0.610694
O47   O     O_R   0.386110 0.219980 0.457010 -0.587429
O48   O     O_R   0.386110 0.780020 0.457010 -0.611937
O49   O     O_2   0.942050 0.813143 0.887968 -0.549029
O50   O     O_2   0.945571 0.178718 0.889888 -0.544414
O51   O     O_2   0.443889 0.316339 0.887939 -0.548434
O52   O     O_2   0.442521 0.683721 0.889880 -0.544674
O53   O     O_2   0.941703 0.622435 0.115696 -0.542863
O54   O     O_2   0.919793 0.372227 0.123280 -0.543982
O55   O     O_2   0.438095 0.122501 0.115730 -0.542227
O56   O     O_R   0.801570 0.364560 0.457010 -0.647772
O57   O     O_2   0.425269 0.872677 0.123894 -0.521669
O58   O     O_2   0.115876 0.751060 0.053657 -0.530981
O59   O     O_2   0.063556 0.253907 0.122279 -0.524708
O60   O     O_2   0.615838 0.247030 0.053684 -0.531531
O61   O     O_2   0.563916 0.748375 0.121986 -0.525100
O62   O     O_2   0.641301 0.086976 0.488159 -0.542979
O63   O     O_2   0.622352 0.904917 0.560702 -0.569929
O64   O     O_2   0.141289 0.586981 0.488177 -0.538401
O65   O     O_2   0.122351 0.404913 0.560686 -0.566865
O66   O     O_2   0.860947 0.468747 0.544315 -0.552647
O67   O     O_R   0.301570 0.135440 0.457010 -0.604588
O68   O     O_2   0.874088 0.586364 0.481004 -0.536841
O69   O     O_2   0.332933 0.922953 0.343539 -0.519181
O70   O     O_2   0.360557 0.076974 0.494416 -0.550805
O71   O     O_2   0.996012 0.753442 0.340482 -0.559177
O72   O     O_2   0.995823 0.246382 0.340585 -0.529707
O73   O     O_2   0.495934 0.253671 0.340521 -0.558083
O74   O     O_2   0.495740 0.746175 0.340598 -0.530568
O75   O     O_2   0.005126 0.879755 0.973854 -0.567012
O76   O     O_2   0.016110 0.119239 0.972241 -0.565410
O77   O     O_2   0.508788 0.379928 0.973832 -0.565594
O78   O     O_R   0.301570 0.864560 0.457010 -0.611204
O79   O     O_2   0.510282 0.619399 0.972348 -0.563751
O80   O     O_R   0.758570 0.864610 0.542990 -0.638523
Zn1   Zn    Zn3+2 0.823660 0.707100 0.438580 1.050643
Zn2   Zn    Zn3+2 0.737810 0.207050 0.438580 1.023077
Zn3   Zn    Zn3+2 0.237810 0.292950 0.438580 1.010289
Zn4   Zn    Zn3+2 0.237810 0.707050 0.438580 1.026486
Zn5   Zn    Zn3+2 0.762240 0.792950 0.561420 1.009635
Zn6   Zn    Zn3+2 0.762240 0.207050 0.561420 0.993847
Zn7   Zn    Zn3+2 0.262240 0.292950 0.561420 1.008845
Zn8   Zn    Zn3+2 0.262240 0.707050 0.561420 0.992315
Zn9   Zn    Zn3+2 0.823660 0.292900 0.438580 1.019664
Zn10  Zn    Zn3+2 0.323660 0.207100 0.438580 1.044365
Zn11  Zn    Zn3+2 0.323660 0.792900 0.438580 1.048526
Zn12  Zn    Zn3+2 0.676410 0.707120 0.561420 1.010927
Zn13  Zn    Zn3+2 0.676410 0.292880 0.561420 0.996970
Zn14  Zn    Zn3+2 0.176410 0.207120 0.561420 1.009318
Zn15  Zn    Zn3+2 0.176410 0.792880 0.561420 1.000485
Zn16  Zn    Zn3+2 0.737810 0.792950 0.438580 1.008949

loop_
_geom_bond_atom_site_label_1
_geom_bond_atom_site_label_2
_ccdc_geom_bond_type
C6    C32   S    
C39   H68   S    
C89   H54   S    
C34   C42   S    
C116  O4    A    
C21   O62   D    
C16   O57   D    
C59   H21   S    
C110  O25   A    
C71   H11   S    
C67   O8    A    
C123  O37   A    
C65   H24   S    
O44   Zn1   S    
C24   C54   S    
C20   H17   S    
C2    H63   S    
C35   C42   S    
C73   O18   A    
O2    Zn6   S    
O9    Zn16  S    
O11   Zn3   S    
C111  C125  S    
C120  O35   A    
C27   H37   S    
O34   Zn15  S    
C123  O46   A    
C39   H72   S    
O16   Zn7   S    
C7    C33   S    
O80   Zn5   S    
C122  H62   S    
O1    Zn16  S    
C68   H26   S    
C58   H20   S    
O24   Zn13  S    
C15   H7    S    
C116  O30   A    
C70   H10   S    
O12   Zn9   S    
C56   O16   A    
C65   H12   S    
C74   O19   A    
O20   Zn10  S    
C100  C124  S    
C4    C78   D    
C95   H31   S    
C68   C72   S    
O3    Zn7   S    
O10   Zn2   S    
C115  O3    A    
C2    C52   S    
C117  O31   A    
C28   H38   S    
C99   C101  S    
O34   Zn11  S    
C18   H15   S    
C112  O26   A    
C58   H60   S    
C107  C110  S    
C36   O76   D    
C53   C71   S    
C26   O66   D    
O1    Zn12  S    
C22   O63   D    
C43   C61   S    
C114  O28   A    
C110  O67   A    
C3    C129  D    
C84   C88   T    
O43   Zn4   S    
C85   C90   T    
C57   C61   S    
C34   H75   S    
C59   C63   S    
C19   H16   S    
C49   C80   T    
C73   O9    A    
C60   C64   S    
C37   C44   S    
C17   H14   S    
C128  H67   S    
C11   H4    S    
C66   H23   S    
C38   O79   D    
C27   C101  S    
O41   Zn2   S    
C127  C131  D    
C61   C65   S    
C17   C122  S    
C67   O17   A    
C126  C130  D    
C11   C46   S    
C103  C107  D    
O78   Zn11  S    
C51   C69   S    
O5    Zn12  S    
C41   H70   S    
C5    C89   D    
C50   C81   T    
C68   H34   S    
C1    O14   A    
C114  O2    A    
C2    C57   S    
C104  H44   S    
C59   H61   S    
C53   C84   S    
C62   C80   S    
O27   Zn16  S    
C65   C70   S    
C92   C96   D    
C45   O15   A    
C124  O38   A    
C121  O36   A    
C124  O47   A    
C29   O70   D    
C13   H64   S    
C119  C131  S    
O23   Zn10  S    
C74   C87   S    
C26   C99   S    
O37   Zn6   S    
O67   Zn10  S    
C115  O29   A    
C45   O6    A    
C108  O45   A    
C16   H8    S    
C117  O40   A    
C118  O32   A    
C108  O22   A    
C9    C43   S    
C62   C66   S    
C10   C44   S    
C125  O39   A    
C10   H3    S    
O42   Zn3   S    
C91   C92   S    
C11   O52   D    
C23   C93   S    
C6    C100  D    
C118  O41   A    
C9    O50   D    
C33   H52   S    
O15   Zn6   S    
C132  H42   S    
C64   C69   S    
C29   H39   S    
C119  O42   A    
C93   C97   D    
O19   Zn9   S    
C40   H73   S    
C76   O13   A    
C27   O68   D    
O13   Zn4   S    
C4    C126  S    
C46   C63   S    
C119  O33   A    
C120  O43   A    
C6    C128  S    
O32   Zn13  S    
C98   C115  S    
C22   H28   S    
C61   C79   S    
C24   C59   S    
C57   H19   S    
C30   O71   D    
C75   O20   A    
C38   C46   S    
C118  C132  S    
C91   C95   D    
C40   C44   S    
C37   O77   D    
O38   Zn7   S    
O21   Zn11  S    
C22   C92   S    
C8    O49   D    
C8    H80   S    
C66   H25   S    
C33   O74   D    
C58   C62   S    
C83   C87   T    
O7    Zn14  S    
C21   H27   S    
C32   H51   S    
C16   C72   S    
C125  O48   A    
C93   C94   S    
C121  O44   A    
C48   C79   T    
C57   H59   S    
O18   Zn1   S    
C15   O55   D    
C109  O56   A    
C94   C98   D    
C95   C114  S    
C69   H9    S    
C10   O51   D    
O17   Zn8   S    
C41   H74   S    
C78   C121  S    
C20   O61   D    
C3    C117  S    
C63   C68   S    
O25   Zn14  S    
C14   H6    S    
C130  H40   S    
O12   Zn13  S    
C1    C50   S    
O45   Zn1   S    
C99   C104  D    
C25   C94   S    
C55   C60   S    
C14   C70   S    
C13   C53   S    
C28   O69   D    
C13   C19   S    
C100  H55   S    
C82   C86   T    
C52   C83   S    
C23   O64   D    
C66   C71   S    
C45   C49   S    
O28   Zn2   S    
C5    C127  S    
C127  H56   S    
C78   H53   S    
C97   C116  S    
C3    H43   S    
C12   C69   S    
C24   H65   S    
C31   H50   S    
C30   H49   S    
C96   C113  S    
C21   C91   S    
C64   H1    S    
C17   O58   D    
O29   Zn3   S    
O30   Zn4   S    
C19   O60   D    
C15   C71   S    
C74   O10   A    
O47   Zn10  S    
C31   O72   D    
O35   Zn15  S    
O26   Zn15  S    
C97   H33   S    
C7    C111  D    
C7    C129  S    
C40   H69   S    
C51   C122  S    
C36   C43   S    
C1    O5    A    
C129  H78   S    
C56   O7    A    
O1    Zn5   S    
C72   H13   S    
C76   C90   S    
O48   Zn11  S    
O31   Zn12  S    
O4    Zn8   S    
C107  H48   S    
C2    C18   S    
C112  O78   A    
C105  H46   S    
C106  C112  S    
C113  O80   A    
C26   H36   S    
C63   C81   S    
C120  C130  S    
C8    C42   S    
O23   Zn14  S    
C36   H76   S    
C104  C109  S    
C96   H32   S    
C64   H22   S    
C29   C103  S    
C126  H45   S    
C12   O53   D    
C20   C24   S    
C41   C46   S    
C76   O21   A    
C38   H79   S    
C98   H35   S    
O1    Zn1   S    
C9    H2    S    
C39   C52   S    
C55   C122  S    
C75   O11   A    
O12   Zn6   S    
C102  C103  S    
C128  C132  D    
C47   C67   S    
C18   O59   D    
O46   Zn9   S    
C101  C105  D    
C41   C54   S    
C105  C108  S    
C60   C77   S    
O40   Zn16  S    
C55   H58   S    
C25   O65   D    
C32   O73   D    
C42   C60   S    
O39   Zn8   S    
C39   C43   S    
C13   C58   S    
C89   C123  S    
C44   C62   S    
C131  H41   S    
O8    Zn15  S    
O34   Zn8   S    
C25   H30   S    
C34   O75   D    
O23   Zn7   S    
C51   C82   S    
C37   H77   S    
O12   Zn2   S    
O36   Zn5   S    
C47   C77   T    
C106  H47   S    
O56   Zn9   S    
O33   Zn14  S    
C55   H18   S    
C48   C56   S    
O22   Zn12  S    
O14   Zn5   S    
C54   C85   S    
C111  H57   S    
O6    Zn13  S    
C35   C51   S    
C35   H71   S    
O34   Zn4   S    
C102  C106  D    
O23   Zn3   S    
C73   C86   S    
C52   C70   S    
C109  O24   A    
C28   C102  S    
C75   C88   S    
C113  O27   A    
C54   C72   S    
C40   C53   S    
C12   H5    S    
C5    C31   S    
C4    C30   S    
C14   O54   D    
C35   H66   S    
C23   H29   S    
