data_mof_unit_30581.cif
_audit_creation_date              2012-12-11T15:42:55-0500
_audit_creation_method            fapswitch 2.2
_symmetry_space_group_name_H-M    P1
_symmetry_Int_Tables_number       1
_space_group_crystal_system       triclinic
_cell_length_a                    19.158149
_cell_length_b                    11.019016
_cell_length_c                    18.792491
_cell_angle_alpha                 89.929064
_cell_angle_beta                  90.081379
_cell_angle_gamma                 89.97014
_cell_volume                      3967.16150282

loop_
_atom_site_label
_atom_site_type_symbol
_atom_type_description
_atom_site_fract_x
_atom_site_fract_y
_atom_site_fract_z
_atom_type_partial_charge
C1    C     C_R   0.725932 0.367289 0.142040 0.545102
C2    C     C_R   0.274090 0.367142 0.857977 0.544823
C3    C     C_R   0.225932 0.867289 0.142040 0.545102
C4    C     C_R   0.774090 0.867142 0.857977 0.544824
C5    C     C_R   0.510312 0.384950 0.926568 -0.093712
C6    C     C_R   0.489795 0.385070 0.072948 -0.094105
C7    C     C_R   0.010312 0.884950 0.926569 -0.093712
C8    C     C_R   0.989795 0.885069 0.072948 -0.094105
C9    C     C_R   0.006056 0.994194 0.963260 -0.161187
C10   C     C_R   0.993916 0.994248 0.036021 -0.161321
C11   C     C_R   0.506056 0.494194 0.963260 -0.161187
C12   C     C_R   0.493916 0.494248 0.036021 -0.161321
C13   C     C_R   0.763159 0.890744 0.933587 0.004230
C14   C     C_R   0.236856 0.890930 0.066427 0.004039
C15   C     C_R   0.263159 0.390744 0.933587 0.004231
C16   C     C_R   0.736856 0.390930 0.066427 0.004039
C17   C     C_R   0.706022 0.843227 0.970417 -0.012544
C18   C     C_R   0.294025 0.843334 0.029694 -0.012602
C19   C     C_R   0.206022 0.343227 0.970417 -0.012544
C20   C     C_R   0.794025 0.343334 0.029694 -0.012602
C21   C     C_R   0.702449 0.850055 0.044942 0.006165
C22   C     C_R   0.297591 0.850014 0.955167 0.006159
C23   C     C_R   0.202449 0.350055 0.044942 0.006165
C24   C     C_R   0.797591 0.350014 0.955167 0.006160
C25   C     C_R   0.818334 0.933098 0.047053 -0.162096
C26   C     C_R   0.181644 0.933015 0.952909 -0.161944
C27   C     C_R   0.318334 0.433098 0.047053 -0.162097
C28   C     C_R   0.681644 0.433015 0.952909 -0.161944
C29   C     C_R   0.820552 0.931188 0.973510 -0.149206
C30   C     C_R   0.179432 0.931285 0.026447 -0.149320
C31   C     C_R   0.320552 0.431188 0.973510 -0.149206
C32   C     C_R   0.679432 0.431285 0.026447 -0.149320
C33   C     C_3   0.686057 0.713460 0.969897 -0.248716
C34   C     C_3   0.314043 0.713549 0.030446 -0.248535
C35   C     C_3   0.186057 0.213460 0.969897 -0.248716
C36   C     C_3   0.814043 0.213550 0.030446 -0.248535
C37   C     C_3   0.684733 0.718235 0.049670 -0.285148
C38   C     C_3   0.315372 0.718204 0.950672 -0.285408
C39   C     C_3   0.184733 0.218235 0.049670 -0.285148
C40   C     C_3   0.815372 0.218204 0.950672 -0.285408
C41   C     C_R   0.756993 0.903129 0.082907 0.008885
C42   C     C_R   0.243013 0.902991 0.917121 0.009048
C43   C     C_R   0.256993 0.403129 0.082907 0.008885
C44   C     C_R   0.743013 0.402991 0.917121 0.009048
C45   C     C_R   0.530576 0.155043 0.147030 0.536831
C46   C     C_R   0.469439 0.154950 0.852948 0.536193
C47   C     C_R   0.030576 0.655043 0.147030 0.536833
C48   C     C_R   0.969439 0.654950 0.852948 0.536195
C49   C     C_R   0.504632 0.163122 0.579209 0.017653
C50   C     C_R   0.518348 0.162958 0.430441 0.020293
C51   C     C_R   0.004626 0.663107 0.579206 0.017659
C52   C     C_R   0.018360 0.662962 0.430443 0.020294
C53   C     C_R   0.518634 0.055467 0.542211 0.027924
C54   C     C_R   0.524841 0.056174 0.469635 0.042981
C55   C     C_R   0.018574 0.555445 0.542198 0.027903
C56   C     C_R   0.024793 0.556161 0.469625 0.042912
C57   C     C_R   0.516293 0.273491 0.467785 -0.165092
C58   C     C_R   0.511130 0.273577 0.542325 -0.170615
C59   C     C_R   0.016355 0.773489 0.467798 -0.165065
C60   C     C_R   0.011174 0.773564 0.542336 -0.170625
C61   C     C_3   0.481436 0.935554 0.540631 -0.268355
C62   C     C_3   0.487876 0.938168 0.460539 -0.277602
C63   C     C_3   0.981291 0.435629 0.540594 -0.268374
C64   C     C_3   0.987768 0.438233 0.460506 -0.277663
C65   C     C_R   0.749237 0.934277 0.581030 0.016708
C66   C     C_R   0.251525 0.922498 0.421381 0.014262
C67   C     C_R   0.249226 0.434307 0.581040 0.016710
C68   C     C_R   0.751511 0.422469 0.421391 0.014248
C69   C     C_R   0.797237 0.006606 0.543948 0.022059
C70   C     C_R   0.215101 0.016470 0.454633 0.018425
C71   C     C_R   0.297216 0.506654 0.543960 0.022070
C72   C     C_R   0.715086 0.516440 0.454641 0.018413
C73   C     C_R   0.794023 0.015686 0.471304 0.034566
C74   C     C_R   0.215412 0.025528 0.527454 0.046826
C75   C     C_R   0.294002 0.515733 0.471316 0.034579
C76   C     C_R   0.715406 0.525508 0.527463 0.046823
C77   C     C_R   0.686983 0.902433 0.470185 -0.151190
C78   C     C_R   0.297610 0.861417 0.536974 -0.172718
C79   C     C_R   0.186957 0.402520 0.470200 -0.151228
C80   C     C_R   0.797584 0.361367 0.536986 -0.172775
C81   C     C_R   0.689684 0.893670 0.544617 -0.154657
C82   C     C_R   0.297586 0.851453 0.462789 -0.165040
C83   C     C_R   0.189667 0.393733 0.544631 -0.154693
C84   C     C_R   0.797558 0.351397 0.462802 -0.165043
C85   C     C_3   0.875497 0.003594 0.542083 -0.268779
C86   C     C_3   0.140177 0.055198 0.450431 -0.270464
C87   C     C_3   0.375474 0.503689 0.542094 -0.268808
C88   C     C_3   0.640143 0.555093 0.450446 -0.270421
C89   C     C_R   0.742566 0.965470 0.149538 0.535633
C90   C     C_R   0.257439 0.965394 0.850464 0.534988
C91   C     C_R   0.242566 0.465470 0.149538 0.535641
C92   C     C_R   0.757439 0.465394 0.850464 0.534987
C93   C     C_3   0.871211 0.013627 0.462116 -0.278886
C94   C     C_3   0.140327 0.060630 0.530778 -0.267268
C95   C     C_3   0.371187 0.513700 0.462126 -0.278868
C96   C     C_3   0.640304 0.560527 0.530791 -0.267256
C97   C     C_R   0.743077 0.954654 0.432617 0.020415
C98   C     C_R   0.252687 0.944272 0.570077 0.022691
C99   C     C_R   0.243055 0.454714 0.432630 0.020414
C100  C     C_R   0.752678 0.444255 0.570085 0.022663
C101  C     C_R   0.729844 0.378357 0.352169 0.553039
C102  C     C_R   0.269965 0.380533 0.648527 0.548975
C103  C     C_R   0.229847 0.878363 0.352167 0.553039
C104  C     C_R   0.769967 0.880528 0.648525 0.548973
C105  C     C_R   0.535109 0.156766 0.355188 0.543678
C106  C     C_R   0.468566 0.156733 0.647207 0.544239
C107  C     C_R   0.035115 0.656767 0.355191 0.543682
C108  C     C_R   0.968565 0.656732 0.647207 0.544215
C109  C     C_R   0.739558 0.978063 0.356796 0.546613
C110  C     C_R   0.258982 0.973868 0.644772 0.544336
C111  C     C_R   0.239549 0.478089 0.356804 0.546632
C112  C     C_R   0.758980 0.473860 0.644775 0.544323
C113  C     C_R   0.501050 0.161421 0.924962 -0.023708
C114  C     C_R   0.499019 0.161558 0.074976 -0.023874
C115  C     C_R   0.001050 0.661421 0.924962 -0.023709
C116  C     C_R   0.999019 0.661558 0.074976 -0.023875
C117  C     C_R   0.502448 0.272955 0.962287 0.014239
C118  C     C_R   0.497677 0.273023 0.037446 0.014021
C119  C     C_R   0.002448 0.772955 0.962287 0.014238
C120  C     C_R   0.997677 0.773023 0.037446 0.014021
C121  C     C_R   0.493715 0.051248 0.036809 0.007898
C122  C     C_R   0.506301 0.051172 0.963322 0.007769
C123  C     C_R   0.993715 0.551248 0.036809 0.007899
C124  C     C_R   0.006301 0.551172 0.963322 0.007769
Cr1   Cr    Cr6+3 0.772010 0.169670 0.250090 0.999284
Cr2   Cr    Cr6+3 0.227990 0.169670 0.749910 1.000327
Cr3   Cr    Cr6+3 0.272010 0.669670 0.250090 0.999283
Cr4   Cr    Cr6+3 0.727990 0.669670 0.749910 1.000323
Cr5   Cr    Cr6+3 0.615000 0.323260 0.249260 0.998946
Cr6   Cr    Cr6+3 0.385000 0.323260 0.750740 0.998082
Cr7   Cr    Cr6+3 0.115000 0.823260 0.249260 0.998942
Cr8   Cr    Cr6+3 0.885000 0.823260 0.750740 0.998080
Cr9   Cr    Cr6+3 0.616710 0.010760 0.250840 0.999374
Cr10  Cr    Cr6+3 0.383290 0.010760 0.749160 0.997030
Cr11  Cr    Cr6+3 0.116710 0.510760 0.250840 0.999371
Cr12  Cr    Cr6+3 0.883290 0.510760 0.749160 0.997026
H1    H     H_    0.515670 0.358663 0.439417 0.116735
H2    H     H_    0.506414 0.358909 0.570162 0.114324
H3    H     H_    0.015786 0.858668 0.439439 0.116775
H4    H     H_    0.006482 0.858896 0.570180 0.114327
H5    H     H_    0.926427 0.442246 0.558442 0.173378
H6    H     H_    0.021859 0.365329 0.439328 0.130901
H7    H     H_    0.426566 0.942015 0.558501 0.173337
H8    H     H_    0.521991 0.865308 0.439345 0.130875
H9    H     H_    0.512474 0.861857 0.565896 0.122804
H10   H     H_    0.436972 0.948475 0.432675 0.141119
H11   H     H_    0.012249 0.361860 0.565871 0.122869
H12   H     H_    0.936889 0.448625 0.432617 0.141150
H13   H     H_    0.642685 0.865246 0.442153 0.125988
H14   H     H_    0.331005 0.802562 0.568261 0.121965
H15   H     H_    0.142648 0.365376 0.442173 0.126040
H16   H     H_    0.830976 0.302507 0.568274 0.122003
H17   H     H_    0.648403 0.847590 0.572838 0.117391
H18   H     H_    0.328717 0.780850 0.438728 0.138330
H19   H     H_    0.148386 0.347667 0.572856 0.117407
H20   H     H_    0.828681 0.280774 0.438743 0.138378
H21   H     H_    0.896190 0.914712 0.559419 0.170632
H22   H     H_    0.104639 0.984665 0.429826 0.162726
H23   H     H_    0.396186 0.414832 0.559441 0.170632
H24   H     H_    0.604622 0.484517 0.429850 0.162760
H25   H     H_    0.899381 0.084342 0.567836 0.126901
H26   H     H_    0.134162 0.145548 0.424874 0.125728
H27   H     H_    0.399335 0.584463 0.567840 0.126892
H28   H     H_    0.634094 0.645435 0.424885 0.125699
H29   H     H_    0.892370 0.100435 0.441321 0.132471
H30   H     H_    0.132168 0.152922 0.551966 0.137092
H31   H     H_    0.392337 0.600508 0.441322 0.132472
H32   H     H_    0.632101 0.652813 0.551976 0.137052
H33   H     H_    0.889593 0.930931 0.433928 0.138194
H34   H     H_    0.107617 0.989458 0.556041 0.134863
H35   H     H_    0.389576 0.431002 0.433946 0.138188
H36   H     H_    0.607632 0.489305 0.556060 0.134892
H37   H     H_    0.523115 0.389569 0.870634 0.129408
H38   H     H_    0.477028 0.389780 0.128881 0.129537
H39   H     H_    0.023115 0.889569 0.870634 0.129409
H40   H     H_    0.977028 0.889780 0.128881 0.129536
H41   H     H_    0.012486 0.078289 0.934707 0.099576
H42   H     H_    0.987377 0.078377 0.064390 0.099482
H43   H     H_    0.512486 0.578289 0.934707 0.099576
H44   H     H_    0.487377 0.578377 0.064390 0.099482
H45   H     H_    0.861380 0.973282 0.075395 0.143357
H46   H     H_    0.138591 0.973208 0.924493 0.143507
H47   H     H_    0.361380 0.473282 0.075395 0.143357
H48   H     H_    0.638591 0.473208 0.924493 0.143507
H49   H     H_    0.867733 0.961885 0.947967 0.167594
H50   H     H_    0.132239 0.962043 0.051937 0.167398
H51   H     H_    0.367733 0.461885 0.947967 0.167594
H52   H     H_    0.632239 0.462043 0.051937 0.167398
H53   H     H_    0.229233 0.156483 0.949391 0.174835
H54   H     H_    0.770869 0.156653 0.051025 0.175043
H55   H     H_    0.729233 0.656483 0.949391 0.174835
H56   H     H_    0.270869 0.656653 0.051025 0.175042
H57   H     H_    0.633991 0.698309 0.945342 0.133001
H58   H     H_    0.366106 0.698382 0.055044 0.132955
H59   H     H_    0.133991 0.198309 0.945342 0.133001
H60   H     H_    0.866106 0.198382 0.055044 0.132955
H61   H     H_    0.632584 0.699992 0.072437 0.126329
H62   H     H_    0.367525 0.699909 0.927933 0.126399
H63   H     H_    0.132584 0.199992 0.072437 0.126329
H64   H     H_    0.867525 0.199910 0.927933 0.126400
H65   H     H_    0.727182 0.664143 0.074872 0.147200
H66   H     H_    0.272943 0.664114 0.925568 0.147232
H67   H     H_    0.227182 0.164142 0.074872 0.147201
H68   H     H_    0.772943 0.164114 0.925568 0.147232
O1    O     O_R   0.787520 0.042810 0.170440 -0.539438
O2    O     O_R   0.212480 0.042810 0.829560 -0.539909
O3    O     O_R   0.287520 0.542810 0.170440 -0.539435
O4    O     O_R   0.712480 0.542810 0.829560 -0.539910
O5    O     O_R   0.556610 0.252880 0.323980 -0.511055
O6    O     O_R   0.443390 0.252880 0.676020 -0.512100
O7    O     O_R   0.056610 0.752880 0.323980 -0.511062
O8    O     O_R   0.943390 0.752880 0.676020 -0.512104
O9    O     O_R   0.545950 0.051210 0.330860 -0.521051
O10   O     O_R   0.454050 0.051210 0.669140 -0.525538
O11   O     O_R   0.045950 0.551210 0.330860 -0.521061
O12   O     O_R   0.954050 0.551210 0.669140 -0.525538
O13   O     O_R   0.681390 0.959480 0.325510 -0.509603
O14   O     O_R   0.318610 0.959480 0.674490 -0.510927
O15   O     O_R   0.181390 0.459480 0.325510 -0.509616
O16   O     O_R   0.818610 0.459480 0.674490 -0.510938
O17   O     O_3   0.667900 0.167900 0.250060 -0.246789
O18   O     O_3   0.332100 0.167900 0.749940 -0.244476
O19   O     O_3   0.167900 0.667900 0.250060 -0.246797
O20   O     O_3   0.832100 0.667900 0.749940 -0.244477
O21   O     O_R   0.765640 0.292100 0.175020 -0.502265
O22   O     O_R   0.234360 0.292100 0.824980 -0.502670
O23   O     O_R   0.265640 0.792100 0.175020 -0.502265
O24   O     O_R   0.734360 0.792100 0.824980 -0.502669
O25   O     O_R   0.670190 0.408840 0.168540 -0.529637
O26   O     O_R   0.329810 0.408840 0.831460 -0.529660
O27   O     O_R   0.170190 0.908840 0.168540 -0.529637
O28   O     O_R   0.829810 0.908840 0.831460 -0.529659
O29   O     O_R   0.556620 0.251410 0.175160 -0.509425
O30   O     O_R   0.443380 0.251410 0.824840 -0.509815
O31   O     O_R   0.056620 0.751410 0.175160 -0.509424
O32   O     O_R   0.943380 0.751410 0.824840 -0.509813
O33   O     O_R   0.545960 0.049620 0.170320 -0.519264
O34   O     O_R   0.454040 0.049620 0.829680 -0.519300
O35   O     O_R   0.045960 0.549620 0.170320 -0.519263
O36   O     O_R   0.954040 0.549620 0.829680 -0.519298
O37   O     O_R   0.681390 0.958010 0.176690 -0.502581
O38   O     O_R   0.318610 0.958010 0.823310 -0.502694
O39   O     O_R   0.181390 0.458010 0.176690 -0.502576
O40   O     O_R   0.818610 0.458010 0.823310 -0.502693
O41   O     O_R   0.787510 0.044390 0.330970 -0.520637
O42   O     O_R   0.212490 0.044390 0.669030 -0.519274
O43   O     O_R   0.287510 0.544390 0.330970 -0.520638
O44   O     O_R   0.712490 0.544390 0.669030 -0.519272
O45   O     O_R   0.765630 0.293570 0.323840 -0.508801
O46   O     O_R   0.234370 0.293570 0.676160 -0.503780
O47   O     O_R   0.265630 0.793570 0.323840 -0.508802
O48   O     O_R   0.734370 0.793570 0.676160 -0.503780
O49   O     O_R   0.670190 0.410420 0.329080 -0.523757
O50   O     O_R   0.329810 0.410420 0.670920 -0.524354
O51   O     O_R   0.170190 0.910420 0.329080 -0.523761
O52   O     O_R   0.829810 0.910420 0.670920 -0.524348
C125  C     C_3   0.463710 0.938495 0.072447 -0.234498
C126  C     C_3   0.517901 0.842590 0.093200 -0.397026
H69   H     H_    0.520140 0.769932 0.053332 0.101184
H70   H     H_    0.570895 0.881494 0.097186 0.204747
H71   H     H_    0.503758 0.800518 0.144933 0.131258
H72   H     H_    0.433520 0.965047 0.120493 0.150189
H73   H     H_    0.424993 0.897159 0.036545 0.145987
C127  C     C_3   0.536267 0.938315 0.927876 -0.234684
C128  C     C_3   0.482050 0.842559 0.907285 -0.397215
H74   H     H_    0.479786 0.769929 0.947285 0.101383
H75   H     H_    0.429080 0.881642 0.903206 0.204878
H76   H     H_    0.496190 0.800401 0.855627 0.131272
H77   H     H_    0.566466 0.964747 0.879785 0.150268
H78   H     H_    0.574964 0.896891 0.963854 0.146062
C129  C     C_3   0.963710 0.438495 0.072448 -0.234497
C130  C     C_3   0.017901 0.342590 0.093200 -0.397026
H79   H     H_    0.020140 0.269932 0.053333 0.101183
H80   H     H_    0.070895 0.381493 0.097186 0.204746
H81   H     H_    0.003757 0.300518 0.144933 0.131259
H82   H     H_    0.933520 0.465048 0.120493 0.150189
H83   H     H_    0.924993 0.397159 0.036545 0.145987
C131  C     C_3   0.036267 0.438315 0.927876 -0.234684
C132  C     C_3   0.982050 0.342559 0.907285 -0.397215
H84   H     H_    0.979785 0.269930 0.947286 0.101383
H85   H     H_    0.929080 0.381642 0.903205 0.204878
H86   H     H_    0.996190 0.300399 0.855628 0.131272
H87   H     H_    0.066465 0.464747 0.879785 0.150269
H88   H     H_    0.074965 0.396892 0.963854 0.146062

loop_
_geom_bond_atom_site_label_1
_geom_bond_atom_site_label_2
_ccdc_geom_bond_type
C112  O44   A    
C25   C41   A    
C87   H27   S    
C55   C56   A    
C88   C96   S    
C67   C83   A    
C127  H77   S    
C98   C110  S    
C116  C123  A    
C39   H67   S    
Cr2   O42   S    
C103  O51   A    
C5    C117  A    
C14   C18   A    
C35   C39   S    
Cr8   O8    S    
C73   C93   S    
C72   C76   A    
C122  C127  S    
C94   H30   S    
C57   C58   A    
C75   C95   S    
C123  C124  A    
C74   C98   A    
C22   C42   A    
C53   C54   A    
C15   C19   A    
Cr4   O20   S    
C108  O12   A    
C93   H33   S    
C78   H14   S    
C50   C54   A    
C17   C33   S    
C36   H54   S    
C30   H50   S    
C13   C29   A    
C16   C20   A    
C65   C104  S    
C45   O29   A    
Cr2   O46   S    
C5    C11   A    
C62   H10   S    
Cr7   O19   S    
C130  H81   S    
C6    C12   A    
C65   C69   A    
C83   H19   S    
Cr11  O19   S    
Cr6   O26   S    
Cr7   O27   S    
C129  C130  S    
C22   C38   S    
Cr5   O25   S    
Cr2   O18   S    
C81   H17   S    
C53   C61   S    
C7    C9    A    
C125  C126  S    
C132  H86   S    
Cr11  O39   S    
C4    C13   S    
C61   H9    S    
C85   H25   S    
Cr10  O38   S    
C124  C131  S    
Cr3   O3    S    
C86   C94   S    
Cr9   O37   S    
C90   O2    A    
C114  C121  A    
C85   C93   S    
C45   C114  S    
C61   H7    S    
C89   O1    A    
C113  C122  A    
C40   H68   S    
C52   C107  S    
Cr11  O35   S    
C127  C128  S    
Cr10  O18   S    
C87   C95   S    
C70   C74   A    
C50   C105  S    
Cr9   O17   S    
C132  H84   S    
C96   H32   S    
C77   C97   A    
C99   C111  S    
C86   H26   S    
C37   H61   S    
C128  H74   S    
C67   C102  S    
Cr3   O47   S    
C44   C92   S    
Cr3   O19   S    
Cr3   O43   S    
C34   H58   S    
C4    O24   A    
C110  O42   A    
C72   C88   S    
C33   H57   S    
C59   C60   A    
C35   H53   S    
C131  H88   S    
C80   C100  A    
Cr3   O23   S    
Cr10  O34   S    
Cr8   O20   S    
C38   H62   S    
Cr2   O22   S    
C55   C63   S    
Cr9   O33   S    
C14   C30   A    
C111  O15   A    
Cr1   O21   S    
Cr8   O28   S    
C63   H11   S    
C108  O8    A    
Cr1   O1    S    
C25   H45   S    
C3    C14   S    
C47   O31   A    
C130  H80   S    
C25   C29   A    
C129  H82   S    
C106  O10   A    
Cr11  O11   S    
C71   C75   A    
C105  O9    A    
C32   H52   S    
C27   C31   A    
C125  H72   S    
C10   H42   S    
C20   C24   A    
C76   C100  A    
C36   C40   S    
Cr6   O18   S    
C86   H22   S    
C68   C101  S    
Cr5   O17   S    
C59   H3    S    
C77   H13   S    
C80   C84   A    
C95   H31   S    
Cr12  O40   S    
C34   C38   S    
C20   C36   S    
C6    H38   S    
C51   C55   A    
Cr7   O31   S    
C42   C90   S    
Cr10  O14   S    
C15   C31   A    
C28   C44   A    
C43   C91   S    
C49   C58   A    
C116  C120  A    
C7    H39   S    
C68   C72   A    
C102  O50   A    
C68   C84   A    
C19   C23   A    
C17   C21   A    
C36   H60   S    
C78   C98   A    
C92   O4    A    
C52   C59   A    
C7    C119  A    
C66   C82   A    
C128  H75   S    
C73   C97   A    
C78   C82   A    
C65   C81   A    
Cr12  O20   S    
C28   C32   A    
Cr4   O24   S    
C46   O34   A    
Cr11  O15   S    
C79   H15   S    
C46   O30   A    
C75   C99   A    
C132  H85   S    
C63   H5    S    
C79   C99   A    
C57   H1    S    
C109  O41   A    
C1    C16   S    
Cr4   O48   S    
C112  O16   A    
C69   C73   A    
C2    C15   S    
C18   C34   S    
C121  C122  A    
C114  C118  A    
Cr4   O44   S    
C38   H66   S    
C60   H4    S    
C48   C115  S    
C21   C41   A    
C26   H46   S    
C111  O43   A    
C12   H44   S    
C91   O39   A    
C26   C30   A    
C115  C119  A    
C131  H87   S    
C90   O38   A    
C102  O46   A    
Cr7   O7    S    
C24   C44   A    
C89   O37   A    
Cr6   O6    S    
C126  H71   S    
C11   H43   S    
C130  H79   S    
C105  O5    A    
C3    O27   A    
C87   H23   S    
C70   C86   S    
C107  O7    A    
C3    O23   A    
C126  H70   S    
C84   H20   S    
C9    H41   S    
C8    C120  A    
C4    O28   A    
C33   C37   S    
C9    C10   A    
C113  C117  A    
C1    O21   A    
C104  O48   A    
C80   H16   S    
C27   C43   A    
C39   H63   S    
C101  O49   A    
C24   C40   S    
C127  H78   S    
C115  C124  A    
C46   C113  S    
C125  H73   S    
C41   C89   S    
C18   C22   A    
C50   C57   A    
C5    H37   S    
C66   C103  S    
C69   C85   S    
C95   H35   S    
C101  O45   A    
C62   H8    S    
Cr6   O50   S    
C107  O11   A    
Cr6   O30   S    
Cr5   O49   S    
C91   O3    A    
C119  C120  A    
C8    H40   S    
C100  C112  S    
C49   C106  S    
Cr12  O16   S    
C35   H59   S    
C16   C32   A    
C45   O33   A    
C54   C62   S    
C94   H34   S    
C48   O36   A    
C51   C108  S    
C104  O52   A    
C13   C17   A    
C33   H55   S    
Cr9   O9    S    
Cr8   O52   S    
Cr12  O36   S    
C97   C109  S    
C28   H48   S    
C103  O47   A    
Cr7   O51   S    
C88   H28   S    
C117  C118  A    
C76   C96   S    
Cr1   O17   S    
C79   C83   A    
C92   O40   A    
Cr8   O32   S    
C58   H2    S    
C56   C64   S    
C66   C70   A    
C64   H6    S    
Cr1   O45   S    
Cr2   O2    S    
C123  C129  S    
C23   C39   S    
C40   H64   S    
C34   H56   S    
C47   C116  S    
C48   O32   A    
C47   O35   A    
C29   H49   S    
C126  H69   S    
C67   C71   A    
C88   H24   S    
C26   C42   A    
C61   C62   S    
C110  O14   A    
C128  H76   S    
C27   H47   S    
C49   C53   A    
C109  O13   A    
C2    O26   A    
C93   H29   S    
C63   C64   S    
C82   H18   S    
C1    O25   A    
C129  H83   S    
C21   C37   S    
C2    O22   A    
Cr10  O10   S    
C8    C10   A    
C77   C81   A    
C96   H36   S    
Cr5   O29   S    
C74   C94   S    
C85   H21   S    
C37   H65   S    
C131  C132  S    
C71   C87   S    
C19   C35   S    
C51   C60   A    
Cr4   O4    S    
Cr1   O41   S    
C31   H51   S    
C23   C43   A    
Cr5   O5    S    
C6    C118  A    
C64   H12   S    
C52   C56   A    
C11   C12   A    
C121  C125  S    
Cr9   O13   S    
Cr12  O12   S    
C106  O6    A    
