data_mof_unit_16086.cif
_audit_creation_date              2012-12-10T19:10:30-0500
_audit_creation_method            fapswitch 2.2
_symmetry_space_group_name_H-M    P1
_symmetry_Int_Tables_number       1
_space_group_crystal_system       triclinic
_cell_length_a                    10.639793
_cell_length_b                    9.696056
_cell_length_c                    15.731894
_cell_angle_alpha                 89.996376
_cell_angle_beta                  90.333384
_cell_angle_gamma                 89.69431
_cell_volume                      1622.91498503

loop_
_atom_site_label
_atom_site_type_symbol
_atom_type_description
_atom_site_fract_x
_atom_site_fract_y
_atom_site_fract_z
_atom_type_partial_charge
C1    C     C_R   0.257795 0.500514 0.501290 0.854200
C2    C     C_3   0.617405 0.418110 0.951547 -0.324517
C3    C     C_3   0.617396 0.419110 0.049570 -0.376389
C4    C     C_1   0.502334 0.500159 0.825808 0.026526
C5    C     C_1   0.502576 0.500291 0.174116 -0.055077
C6    C     C_1   0.501923 0.500040 0.249387 -0.199567
C7    C     C_3   0.070664 0.649280 0.514846 -0.407882
C8    C     C_3   0.072862 0.404202 0.570249 -0.402095
C9    C     C_3   0.928254 0.646635 0.519359 -0.430355
C10   C     C_3   0.929296 0.402932 0.568389 -0.418091
C11   C     C_3   0.076806 0.448279 0.411855 -0.378752
C12   C     C_3   0.121745 0.501172 0.499769 0.106299
C13   C     C_3   0.879544 0.499288 0.496007 0.072441
C14   C     C_R   0.500614 0.499997 0.338172 0.900406
C15   C     C_3   0.930153 0.452932 0.404285 0.335671
C16   C     C_3   0.405290 0.081901 0.437641 -0.240433
C17   C     C_3   0.405658 0.919216 0.437396 -0.238274
C18   C     C_3   0.623800 0.080440 0.473396 -0.245435
C19   C     C_3   0.624042 0.918030 0.473835 -0.236202
C20   C     C_3   0.469743 0.081358 0.583321 -0.195290
C21   C     C_3   0.469314 0.918994 0.583252 -0.210330
C22   C     C_R   0.742717 0.499762 0.498963 0.824275
C23   C     C_R   0.500467 0.499995 0.661768 0.908201
C24   C     C_3   0.508055 0.650879 0.050009 -0.436877
C25   C     C_3   0.380345 0.432869 0.049560 -0.427211
C26   C     C_3   0.377942 0.434172 0.951053 0.233379
C27   C     C_3   0.507645 0.652573 0.951444 0.265846
C28   C     C_1   0.501564 0.500014 0.750507 -0.115900
C29   C     C_3   0.502182 0.500789 0.082736 0.180469
C30   C     C_3   0.502596 0.500359 0.917225 0.027252
H1    H     H_    0.420411 0.706549 0.929992 0.104360
H2    H     H_    0.298096 0.501174 0.930377 0.071453
H3    H     H_    0.888598 0.728639 0.477629 0.168191
H4    H     H_    0.895792 0.295284 0.562578 0.170452
H5    H     H_    0.121441 0.510749 0.361067 0.146496
H6    H     H_    0.114324 0.342195 0.404052 0.177307
H7    H     H_    0.424417 0.120344 0.372412 0.160267
H8    H     H_    0.425640 0.881203 0.372142 0.159764
H9    H     H_    0.309894 0.120249 0.454404 0.144873
H10   H     H_    0.310305 0.881307 0.453631 0.144256
H11   H     H_    0.649302 0.118335 0.409079 0.150588
H12   H     H_    0.650930 0.878539 0.410038 0.149886
H13   H     H_    0.539666 0.118321 0.630845 0.183134
H14   H     H_    0.538633 0.880698 0.631027 0.194328
H15   H     H_    0.376619 0.120913 0.604367 0.167060
H16   H     H_    0.375799 0.881082 0.603884 0.155334
H17   H     H_    0.697682 0.117919 0.517873 0.146812
H18   H     H_    0.697412 0.880709 0.519037 0.152003
H19   H     H_    0.425739 0.710684 0.073673 0.161758
H20   H     H_    0.296731 0.489711 0.073894 0.154329
H21   H     H_    0.374484 0.325952 0.074956 0.229348
H22   H     H_    0.593412 0.701490 0.076460 0.231009
H23   H     H_    0.705876 0.466738 0.073330 0.196103
H24   H     H_    0.615163 0.311116 0.073545 0.201092
H25   H     H_    0.706511 0.462091 0.927668 0.213619
H26   H     H_    0.616329 0.310372 0.927916 0.239585
H27   H     H_    0.099770 0.718752 0.462202 0.171623
H28   H     H_    0.108363 0.297080 0.560750 0.182375
H29   H     H_    0.108980 0.692262 0.575282 0.185237
H30   H     H_    0.106667 0.439670 0.633675 0.169563
H31   H     H_    0.898623 0.674478 0.585028 0.191459
H32   H     H_    0.893749 0.439590 0.630973 0.176891
N1    N     N_3   0.499750 0.138610 0.498180 -0.046670
N2    N     N_3   0.499750 0.861390 0.498180 -0.045635
O1    O     O_R   0.314910 0.616040 0.499980 -0.633696
O2    O     O_R   0.314910 0.383960 0.499980 -0.636114
O3    O     O_R   0.500120 0.616090 0.377110 -0.621317
O4    O     O_R   0.500120 0.383910 0.377110 -0.624329
O5    O     O_R   0.685320 0.616040 0.499960 -0.633977
O6    O     O_R   0.685320 0.383960 0.499960 -0.643649
O7    O     O_R   0.500110 0.615990 0.622830 -0.611813
O8    O     O_R   0.500110 0.384010 0.622830 -0.606170
Zn1   Zn    Zn3+2 0.500150 0.654960 0.499960 0.910000
Zn2   Zn    Zn3+2 0.500150 0.345040 0.499960 0.907813
C31   C     C_3   0.888986 0.564928 0.336360 -0.416401
C32   C     C_3   0.912134 0.530440 0.242721 -0.849935
H33   H     H_    0.012919 0.508397 0.230962 0.255627
H34   H     H_    0.852886 0.442940 0.221623 0.268998
H35   H     H_    0.885144 0.620820 0.203111 0.256576
H36   H     H_    0.786980 0.587451 0.342395 0.193651
H37   H     H_    0.939165 0.663077 0.348289 0.202571
C33   C     C_3   0.874478 0.307980 0.377558 -0.341288
C34   C     C_3   0.950483 0.219182 0.314788 -0.905963
H38   H     H_    0.004685 0.280775 0.268859 0.280379
H39   H     H_    0.017457 0.151475 0.349923 0.238354
H40   H     H_    0.885732 0.150973 0.278757 0.254874
H41   H     H_    0.860752 0.241151 0.433419 0.186908
H42   H     H_    0.778968 0.324037 0.350068 0.208384
S1    S     S_3+6 0.341155 0.263832 0.910758 0.028581
O9    O     O_2   0.434331 0.159033 0.943075 -0.231299
O10   O     O_2   0.212869 0.224358 0.941698 -0.286414
O11   O     O_3   0.339982 0.260230 0.803899 -0.537528
H43   H     H_    0.268050 0.319597 0.786899 0.338021
S2    S     S_3+6 0.635991 0.757031 0.912748 0.030072
O12   O     O_2   0.616010 0.902603 0.942709 -0.206587
O13   O     O_2   0.759743 0.706332 0.947672 -0.334447
O14   O     O_3   0.640575 0.758570 0.805840 -0.549436
H44   H     H_    0.711301 0.696849 0.790320 0.355014

loop_
_geom_bond_atom_site_label_1
_geom_bond_atom_site_label_2
_ccdc_geom_bond_type
C24   H22   S    
C15   C31   S    
C26   H2    S    
N2    Zn1   S    
C24   C27   S    
C18   H17   S    
O14   H44   S    
C26   S1    S    
C9    H31   S    
C11   H6    S    
C32   H34   S    
C2    H25   S    
C17   N2    S    
C5    C6    T    
C3    H24   S    
C18   N1    S    
O4    Zn2   S    
C33   H41   S    
O2    Zn2   S    
O1    Zn1   S    
C18   C19   S    
C3    C29   S    
C9    C13   S    
C24   C29   S    
C21   N2    S    
C8    H28   S    
C25   H20   S    
C11   C15   S    
C16   C17   S    
O6    Zn2   S    
C1    O1    A    
C14   O3    A    
C32   H35   S    
O5    Zn1   S    
O3    Zn1   S    
C16   N1    S    
S1    O10   D    
C31   H36   S    
C22   O5    A    
C20   H15   S    
C19   H12   S    
C16   H7    S    
C27   C30   S    
C9    H3    S    
C10   H32   S    
C1    C12   S    
C7    H29   S    
C4    C28   T    
C15   C33   S    
C5    C29   S    
C25   C29   S    
C7    C12   S    
C27   H1    S    
C23   O7    A    
C32   H33   S    
O8    Zn2   S    
C18   H11   S    
O7    Zn1   S    
C19   H18   S    
C31   H37   S    
S2    O14   S    
C25   C26   S    
C17   H10   S    
C31   C32   S    
C25   H21   S    
C6    C14   S    
C21   H14   S    
C34   H38   S    
C19   N2    S    
C8    C12   S    
C1    O2    A    
C10   H4    S    
C23   C28   S    
S1    O11   S    
S2    O13   D    
C34   H39   S    
C26   C30   S    
C13   C15   S    
C20   H13   S    
C21   H16   S    
C24   H19   S    
C7    C9    S    
C23   O8    A    
C10   C13   S    
C11   C12   S    
N1    Zn2   S    
C2    C30   S    
C20   N1    S    
C11   H5    S    
C2    C3    S    
C2    H26   S    
C8    H30   S    
C3    H23   S    
C33   H42   S    
O11   H43   S    
C22   O6    A    
C13   C22   S    
C17   H8    S    
S2    O12   D    
C16   H9    S    
C34   H40   S    
C20   C21   S    
C8    C10   S    
C33   C34   S    
C14   O4    A    
C27   S2    S    
S1    O9    D    
C7    H27   S    
C4    C30   S    
