data_mof_unit_58015.cif
_audit_creation_date              2012-12-11T14:04:04-0500
_audit_creation_method            fapswitch 2.2
_symmetry_space_group_name_H-M    P1
_symmetry_Int_Tables_number       1
_space_group_crystal_system       triclinic
_cell_length_a                    19.049968
_cell_length_b                    10.975265
_cell_length_c                    18.812477
_cell_angle_alpha                 90.405847
_cell_angle_beta                  90.027988
_cell_angle_gamma                 90.217484
_cell_volume                      3933.15594477

loop_
_atom_site_label
_atom_site_type_symbol
_atom_type_description
_atom_site_fract_x
_atom_site_fract_y
_atom_site_fract_z
_atom_type_partial_charge
C1    C     C_R   0.239208 0.467351 0.646801 0.553631
C2    C     C_R   0.761672 0.471007 0.355050 0.582929
C3    C     C_R   0.739212 0.967347 0.646806 0.553561
C4    C     C_R   0.261684 0.971037 0.355067 0.582755
C5    C     C_2   0.296948 0.867196 0.541896 -0.156640
C6    C     C_2   0.714005 0.871743 0.459812 -0.142600
C7    C     C_2   0.796790 0.366809 0.541806 -0.156607
C8    C     C_2   0.213899 0.371658 0.459823 -0.142639
C9    C     C_R   0.003166 0.673483 0.425864 -0.016816
C10   C     C_R   0.995632 0.652952 0.574420 -0.008556
C11   C     C_R   0.503201 0.173490 0.425845 -0.016490
C12   C     C_R   0.495668 0.152948 0.574400 -0.008518
C13   C     C_R   0.969892 0.893329 0.439491 -0.022308
C14   C     C_R   0.949926 0.859850 0.584439 -0.091802
C15   C     C_R   0.469956 0.393343 0.439473 -0.022445
C16   C     C_R   0.449961 0.359854 0.584417 -0.091991
C17   C     C_R   0.939284 0.984930 0.480664 -0.043197
C18   C     C_R   0.928883 0.967820 0.552827 -0.117409
C19   C     C_R   0.439364 0.484959 0.480646 -0.042954
C20   C     C_R   0.428944 0.467841 0.552806 -0.117222
C21   C     C_R   0.977963 0.764053 0.543005 0.027711
C22   C     C_R   0.984367 0.777219 0.468482 0.013219
C23   C     C_R   0.477999 0.264053 0.542985 0.027667
C24   C     C_R   0.484411 0.277225 0.468464 0.013287
C25   C     C_R   0.005969 0.548159 0.530298 -0.013868
C26   C     C_R   0.023630 0.565025 0.459300 -0.014543
C27   C     C_R   0.506031 0.048161 0.530274 -0.013983
C28   C     C_R   0.523681 0.065040 0.459274 -0.014122
C29   C     C_R   0.001297 0.427083 0.555347 -0.121989
C30   C     C_R   0.052024 0.467192 0.420019 -0.111565
C31   C     C_R   0.501385 0.927076 0.555318 -0.122150
C32   C     C_R   0.552079 0.967223 0.419982 -0.111160
C33   C     C_R   0.025836 0.327122 0.515303 0.002889
C34   C     C_R   0.048307 0.347131 0.444314 0.022381
C35   C     C_R   0.525939 0.827133 0.515268 0.002932
C36   C     C_R   0.548393 0.847158 0.444275 0.022380
C37   C     C_2   0.227375 0.866875 0.933601 0.149303
C38   C     C_2   0.774889 0.865217 0.066322 0.147387
C39   C     C_2   0.727375 0.366875 0.933601 0.149295
C40   C     C_2   0.274888 0.365218 0.066322 0.147385
C41   C     C_2   0.243229 0.883722 0.091140 -0.096493
C42   C     C_2   0.756120 0.883347 0.908791 -0.090908
C43   C     C_2   0.743228 0.383722 0.091140 -0.096448
C44   C     C_2   0.256119 0.383347 0.908791 -0.090908
C45   C     C_R   0.228397 0.877068 0.649252 0.569776
C46   C     C_R   0.770791 0.881047 0.348469 0.527323
C47   C     C_R   0.728385 0.377019 0.649233 0.569877
C48   C     C_R   0.270822 0.380970 0.348521 0.527442
C49   C     C_2   0.183130 0.898749 0.055542 -0.155030
C50   C     C_2   0.817264 0.892387 0.943507 -0.154241
C51   C     C_2   0.683130 0.398748 0.055542 -0.155006
C52   C     C_2   0.317264 0.392387 0.943507 -0.154241
C53   C     C_2   0.175374 0.858559 0.981815 -0.142975
C54   C     C_2   0.824511 0.846813 0.016292 -0.142323
C55   C     C_2   0.675374 0.358558 0.981815 -0.142985
C56   C     C_2   0.324511 0.346813 0.016292 -0.142320
C57   C     C_2   0.013674 0.647529 0.928591 -0.114219
C58   C     C_2   0.011157 0.657083 0.084168 -0.124823
C59   C     C_2   0.513674 0.147529 0.928591 -0.114220
C60   C     C_2   0.511158 0.157084 0.084168 -0.124790
C61   C     C_2   0.025248 0.552956 0.048078 0.117900
C62   C     C_2   0.034304 0.552019 0.970465 0.132539
C63   C     C_2   0.525250 0.052958 0.048078 0.117895
C64   C     C_2   0.534304 0.052019 0.970465 0.132537
C65   C     C_R   0.027420 0.652892 0.646179 0.532918
C66   C     C_R   0.971894 0.657375 0.354239 0.533966
C67   C     C_R   0.527428 0.152891 0.646172 0.533021
C68   C     C_R   0.471901 0.157376 0.354233 0.533872
C69   C     C_R   0.239991 0.461650 0.848687 0.547713
C70   C     C_R   0.759816 0.461249 0.151637 0.544250
C71   C     C_R   0.739990 0.961650 0.848687 0.547731
C72   C     C_R   0.259816 0.961249 0.151637 0.544201
C73   C     C_R   0.210949 0.832160 0.861031 0.559923
C74   C     C_R   0.790135 0.829493 0.138815 0.558520
C75   C     C_R   0.710949 0.332160 0.861031 0.559934
C76   C     C_R   0.290135 0.329493 0.138815 0.558491
C77   C     C_R   0.033770 0.650092 0.853799 0.555059
C78   C     C_R   0.972973 0.651802 0.150859 0.547291
C79   C     C_R   0.533771 0.150092 0.853799 0.555049
C80   C     C_R   0.472973 0.151803 0.150860 0.547332
C81   C     C_2   0.257597 0.935847 0.586459 0.036228
C82   C     C_2   0.741862 0.943949 0.409782 0.003625
C83   C     C_2   0.757577 0.435652 0.586400 0.036579
C84   C     C_2   0.241968 0.443803 0.409887 0.003443
C85   C     C_2   0.251248 0.920710 0.425626 0.009405
C86   C     C_2   0.750792 0.909194 0.579087 -0.089613
C87   C     C_2   0.751189 0.420580 0.425568 0.009824
C88   C     C_2   0.250773 0.409193 0.579076 -0.088307
C89   C     C_2   0.306896 0.896426 0.466976 -0.069552
C90   C     C_2   0.699811 0.914345 0.530916 -0.120517
C91   C     C_2   0.806803 0.396081 0.466910 -0.069897
C92   C     C_2   0.199737 0.414191 0.530950 -0.120325
Cr1   Cr    Cr6+3 0.113970 0.508630 0.747920 1.035886
Cr2   Cr    Cr6+3 0.886030 0.508630 0.252080 1.030864
Cr3   Cr    Cr6+3 0.613970 0.008630 0.747920 1.035946
Cr4   Cr    Cr6+3 0.386030 0.008630 0.252080 1.030932
Cr5   Cr    Cr6+3 0.269200 0.666740 0.749850 1.022614
Cr6   Cr    Cr6+3 0.730800 0.666740 0.250150 1.036575
Cr7   Cr    Cr6+3 0.769200 0.166740 0.749850 1.022560
Cr8   Cr    Cr6+3 0.230800 0.166740 0.250150 1.036442
Cr9   Cr    Cr6+3 0.112300 0.820070 0.749800 1.039166
Cr10  Cr    Cr6+3 0.887700 0.820070 0.250200 1.012275
Cr11  Cr    Cr6+3 0.612300 0.320070 0.749800 1.039154
Cr12  Cr    Cr6+3 0.387700 0.320070 0.250200 1.012570
H1    H     H_    0.359999 0.895501 0.445933 0.157298
H2    H     H_    0.650928 0.961201 0.541788 0.174293
H3    H     H_    0.859913 0.395062 0.445886 0.157266
H4    H     H_    0.150804 0.460847 0.541877 0.173566
H5    H     H_    0.123110 0.830699 0.964941 0.095578
H6    H     H_    0.874401 0.806244 0.030919 0.089027
H7    H     H_    0.623110 0.330698 0.964941 0.095579
H8    H     H_    0.374400 0.306244 0.030919 0.089015
H9    H     H_    0.284076 0.824123 0.070834 0.127226
H10   H     H_    0.714572 0.825474 0.929369 0.125080
H11   H     H_    0.784076 0.324123 0.070834 0.127204
H12   H     H_    0.214572 0.325475 0.929369 0.125083
H13   H     H_    0.015329 0.745778 0.059577 0.054649
H14   H     H_    0.987874 0.727536 0.949905 0.037454
H15   H     H_    0.515328 0.245779 0.059577 0.054645
H16   H     H_    0.487875 0.227537 0.949905 0.037452
H17   H     H_    0.314731 0.777368 0.557595 0.179375
H18   H     H_    0.710324 0.773914 0.451469 0.208181
H19   H     H_    0.814383 0.276833 0.557453 0.178781
H20   H     H_    0.209908 0.273895 0.451360 0.208251
H21   H     H_    0.198487 0.919464 0.447691 0.143327
H22   H     H_    0.801600 0.871170 0.566092 0.138899
H23   H     H_    0.698422 0.419422 0.447623 0.143724
H24   H     H_    0.301614 0.371360 0.566021 0.138907
H25   H     H_    0.924339 0.070397 0.456746 0.164781
H26   H     H_    0.904507 0.038634 0.584440 0.160731
H27   H     H_    0.424441 0.570438 0.456730 0.165164
H28   H     H_    0.404575 0.538664 0.584419 0.160943
H29   H     H_    0.982889 0.916457 0.385446 0.176045
H30   H     H_    0.940264 0.849024 0.640758 0.119736
H31   H     H_    0.482959 0.416457 0.385427 0.176028
H32   H     H_    0.440286 0.349025 0.640733 0.119717
H33   H     H_    0.072046 0.484445 0.367105 0.173126
H34   H     H_    0.978119 0.409657 0.606737 0.192161
H35   H     H_    0.572082 0.984492 0.367061 0.173225
H36   H     H_    0.478203 0.909621 0.606702 0.192151
H37   H     H_    0.140219 0.951208 0.078085 0.147695
H38   H     H_    0.861144 0.942768 0.921277 0.143736
H39   H     H_    0.640219 0.451207 0.078086 0.147700
H40   H     H_    0.361144 0.442768 0.921277 0.143734
O1    O     O_R   0.043230 0.549300 0.667990 -0.525269
O2    O     O_R   0.956770 0.549300 0.332010 -0.510006
O3    O     O_R   0.543230 0.049300 0.667990 -0.525266
O4    O     O_R   0.456770 0.049300 0.332010 -0.510106
O5    O     O_R   0.262920 0.788600 0.824420 -0.506174
O6    O     O_R   0.737080 0.788600 0.175580 -0.505088
O7    O     O_R   0.762920 0.288600 0.824420 -0.506136
O8    O     O_R   0.237080 0.288600 0.175580 -0.505106
O9    O     O_R   0.167530 0.905110 0.830340 -0.514566
O10   O     O_R   0.832470 0.905110 0.169660 -0.520914
O11   O     O_R   0.667530 0.405110 0.830340 -0.514568
O12   O     O_R   0.332470 0.405110 0.169660 -0.520767
O13   O     O_R   0.054010 0.748440 0.822860 -0.526884
O14   O     O_R   0.945990 0.748440 0.177140 -0.520164
O15   O     O_R   0.554010 0.248440 0.822860 -0.526893
O16   O     O_R   0.445990 0.248440 0.177140 -0.520168
O17   O     O_3   0.165160 0.665150 0.749190 -0.270751
O18   O     O_3   0.834840 0.665150 0.250810 -0.268743
O19   O     O_3   0.665160 0.165150 0.749190 -0.270768
O20   O     O_3   0.334840 0.165150 0.250810 -0.268801
O21   O     O_R   0.178620 0.457600 0.674100 -0.492248
O22   O     O_R   0.821380 0.457600 0.325900 -0.486597
O23   O     O_R   0.678620 0.957600 0.674100 -0.492031
O24   O     O_R   0.321380 0.957600 0.325900 -0.486557
O25   O     O_R   0.284680 0.542100 0.669460 -0.515257
O26   O     O_R   0.715320 0.542100 0.330540 -0.500632
O27   O     O_R   0.784680 0.042100 0.669460 -0.515502
O28   O     O_R   0.215320 0.042100 0.330540 -0.500674
O29   O     O_R   0.262860 0.790390 0.676650 -0.509815
O30   O     O_R   0.737140 0.790390 0.323350 -0.462232
O31   O     O_R   0.762860 0.290390 0.676650 -0.509927
O32   O     O_R   0.237140 0.290390 0.323350 -0.462410
O33   O     O_R   0.167460 0.907030 0.670940 -0.445288
O34   O     O_R   0.832540 0.907030 0.329060 -0.520877
O35   O     O_R   0.667460 0.407030 0.670940 -0.445296
O36   O     O_R   0.332540 0.407030 0.329060 -0.520286
O37   O     O_R   0.053950 0.750220 0.675100 -0.492866
O38   O     O_R   0.946050 0.750220 0.324900 -0.514271
O39   O     O_R   0.553950 0.250220 0.675100 -0.492853
O40   O     O_R   0.446050 0.250220 0.324900 -0.514296
O41   O     O_R   0.043300 0.547370 0.827390 -0.484510
O42   O     O_R   0.956700 0.547370 0.172610 -0.503144
O43   O     O_R   0.543300 0.047370 0.827390 -0.484523
O44   O     O_R   0.456700 0.047370 0.172610 -0.503127
O45   O     O_R   0.178690 0.455820 0.821860 -0.490865
O46   O     O_R   0.821310 0.455820 0.178140 -0.507347
O47   O     O_R   0.678690 0.955820 0.821860 -0.490865
O48   O     O_R   0.321310 0.955820 0.178140 -0.507318
O49   O     O_R   0.284750 0.540170 0.828860 -0.526793
O50   O     O_R   0.715250 0.540170 0.171140 -0.527272
O51   O     O_R   0.784750 0.040170 0.828860 -0.526765
O52   O     O_R   0.215250 0.040170 0.171140 -0.527274
N1    N     N_2   0.295375 0.914232 0.950668 -0.535306
H41   H     H_    0.335789 0.872907 0.923342 0.251554
C93   C     C_3   0.300594 0.045707 0.948798 -0.292574
H42   H     H_    0.353705 0.074428 0.966820 0.133381
H43   H     H_    0.261269 0.087916 0.984833 0.166616
H44   H     H_    0.292159 0.078832 0.893769 0.159600
N2    N     N_2   0.713422 0.934670 0.052720 -0.535909
H45   H     H_    0.671301 0.907315 0.082875 0.267716
C94   C     C_3   0.723730 0.065257 0.056397 -0.292522
H46   H     H_    0.674239 0.111723 0.041834 0.147057
H47   H     H_    0.765128 0.094683 0.018618 0.165456
H48   H     H_    0.738610 0.093440 0.111247 0.156072
N3    N     N_2   0.795375 0.414233 0.950668 -0.535309
H49   H     H_    0.835789 0.372909 0.923342 0.251558
C95   C     C_3   0.800593 0.545708 0.948798 -0.292572
H50   H     H_    0.853703 0.574430 0.966820 0.133384
H51   H     H_    0.761268 0.587917 0.984833 0.166609
H52   H     H_    0.792158 0.578834 0.893769 0.159611
N4    N     N_2   0.213422 0.434671 0.052721 -0.535910
H53   H     H_    0.171301 0.407318 0.082876 0.267702
C96   C     C_3   0.223730 0.565258 0.056395 -0.292546
H54   H     H_    0.174239 0.611724 0.041833 0.147043
H55   H     H_    0.265127 0.594683 0.018615 0.165475
H56   H     H_    0.238612 0.593443 0.111244 0.156033
N5    N     N_2   0.035953 0.439947 0.084573 -0.502513
H57   H     H_    0.061363 0.444422 0.132986 0.263951
C97   C     C_3   0.981697 0.347085 0.078943 -0.250539
H58   H     H_    0.955962 0.333243 0.131191 0.169383
H59   H     H_    0.005988 0.259084 0.063794 0.122523
H60   H     H_    0.940715 0.371759 0.039562 0.154117
N6    N     N_2   0.068183 0.446320 0.941085 -0.447568
H61   H     H_    0.109492 0.413537 0.970199 0.273886
C98   C     C_3   0.023303 0.350092 0.912745 -0.240839
H62   H     H_    0.027367 0.266942 0.945511 0.104525
H63   H     H_    0.041324 0.324693 0.858574 0.174250
H64   H     H_    0.967530 0.379030 0.909702 0.137145
N7    N     N_2   0.535957 0.939950 0.084575 -0.502518
H65   H     H_    0.561367 0.944429 0.132988 0.263990
C99   C     C_3   0.481704 0.847084 0.078946 -0.250534
H66   H     H_    0.455971 0.833239 0.131195 0.169411
H67   H     H_    0.505997 0.759085 0.063796 0.122530
H68   H     H_    0.440720 0.871755 0.039566 0.154114
N8    N     N_2   0.568181 0.946319 0.941085 -0.447568
H69   H     H_    0.609491 0.913535 0.970199 0.273885
C100  C     C_3   0.523300 0.850093 0.912746 -0.240848
H70   H     H_    0.527364 0.766942 0.945511 0.104524
H71   H     H_    0.541320 0.824694 0.858574 0.174243
H72   H     H_    0.467527 0.879033 0.909703 0.137139
C101  C     C_2   0.241319 0.066520 0.574733 0.572907
O53   O     O_2   0.272799 0.125197 0.529849 -0.566722
O54   O     O_R   0.192645 0.124005 0.619166 -0.650778
H73   H     H_    0.183191 0.211199 0.606074 0.346792
C102  C     C_2   0.748699 0.079906 0.416258 0.555682
O55   O     O_2   0.737954 0.130950 0.472994 -0.514959
O56   O     O_R   0.765791 0.152279 0.357703 -0.684017
H74   H     H_    0.766485 0.107011 0.310683 0.308746
C103  C     C_2   0.741438 0.566370 0.574680 0.572787
O57   O     O_2   0.773017 0.624979 0.529836 -0.566786
O58   O     O_R   0.692769 0.623960 0.619071 -0.650781
H75   H     H_    0.683369 0.711157 0.605953 0.346833
C104  C     C_2   0.249275 0.579629 0.416560 0.556006
O59   O     O_2   0.239557 0.630382 0.473553 -0.515140
O60   O     O_R   0.265778 0.652175 0.357918 -0.683771
H76   H     H_    0.265567 0.607127 0.310826 0.308269
C105  C     C_2   0.035705 0.209947 0.553594 0.573300
O61   O     O_2   0.074287 0.130965 0.529798 -0.455328
O62   O     O_R   0.005237 0.193810 0.620572 -0.736425
H77   H     H_    0.019532 0.114388 0.643585 0.346686
C106  C     C_2   0.061502 0.248604 0.390807 0.585486
O63   O     O_2   0.039745 0.145337 0.399969 -0.520350
O64   O     O_R   0.093977 0.276671 0.326289 -0.704890
H78   H     H_    0.097498 0.203734 0.293106 0.341647
C107  C     C_2   0.535823 0.709952 0.553551 0.573419
O65   O     O_2   0.574413 0.630986 0.529748 -0.455309
O66   O     O_R   0.505361 0.693792 0.620530 -0.736430
H79   H     H_    0.519661 0.614368 0.643536 0.346707
C108  C     C_2   0.561580 0.748641 0.390757 0.585652
O67   O     O_2   0.539855 0.645352 0.399932 -0.520293
O68   O     O_R   0.594004 0.776739 0.326215 -0.704798
H80   H     H_    0.597517 0.703807 0.293027 0.341626

loop_
_geom_bond_atom_site_label_1
_geom_bond_atom_site_label_2
_ccdc_geom_bond_type
Cr2   O2    S    
C7    C83   D    
N2    H45   S    
C59   H16   S    
C6    C82   D    
C87   C91   D    
C86   H22   S    
C77   O41   A    
C14   C18   A    
C82   C102  S    
C85   H21   S    
C97   H58   S    
C57   C77   S    
Cr11  O15   S    
Cr10  O14   S    
C87   H23   S    
C97   H60   S    
C3    O23   A    
C57   C62   D    
C65   O37   A    
C94   H46   S    
Cr8   O8    S    
C96   H56   S    
C15   C19   A    
C29   H34   S    
N2    C94   S    
C12   C23   A    
C39   N3    S    
C102  O55   D    
C50   C54   S    
C79   O43   A    
C83   C103  S    
C60   C63   D    
Cr11  O39   S    
C74   O6    A    
C32   C36   A    
C14   C21   A    
Cr8   O28   S    
C16   C20   A    
C108  O67   D    
C35   C107  S    
C100  H70   S    
C98   H64   S    
C45   O29   A    
N4    C96   S    
C79   O15   A    
C105  O61   D    
Cr6   O30   S    
C9    C22   A    
C80   O16   A    
C15   H31   S    
C76   O8    A    
C62   N6    S    
C5    H17   S    
C11   C24   A    
Cr5   O25   S    
Cr6   O50   S    
C60   H15   S    
C104  O59   D    
Cr5   O49   S    
N1    C93   S    
O54   H73   S    
C46   O34   A    
C9    C66   S    
C64   N8    S    
C47   O35   A    
C34   C106  S    
C43   H11   S    
C5    C81   D    
C46   C82   S    
C52   C56   S    
C78   O14   A    
C69   O49   A    
C39   C55   D    
N8    H69   S    
C29   C33   A    
C75   O7    A    
C40   C56   D    
C108  O68   S    
C49   H37   S    
Cr8   O32   S    
C93   H44   S    
C99   H66   S    
C46   O30   A    
Cr1   O1    S    
C8    C92   S    
C39   C75   S    
C106  O63   D    
Cr10  O10   S    
C51   C55   S    
C107  O65   D    
C68   O4    A    
C45   O33   A    
O60   H76   S    
C37   C53   D    
C44   C52   D    
C1    C88   S    
Cr8   O52   S    
O66   H79   S    
C66   O38   A    
Cr1   O21   S    
C93   H42   S    
C30   H33   S    
C21   C22   A    
C3    C86   S    
C25   C29   A    
C99   H67   S    
C81   C101  S    
Cr2   O22   S    
C94   H48   S    
C61   C62   S    
C7    H19   S    
Cr12  O16   S    
C41   C49   D    
Cr6   O18   S    
C92   H4    S    
C9    C26   A    
C17   C18   A    
C94   H47   S    
C10   C21   A    
C19   H27   S    
C33   C34   A    
Cr4   O4    S    
C12   C67   S    
C102  O56   S    
Cr5   O29   S    
C30   C34   A    
C12   C27   A    
Cr3   O43   S    
Cr10  O38   S    
C88   C92   D    
C84   C104  S    
C28   C32   A    
Cr3   O3    S    
C90   H2    S    
C32   H35   S    
O56   H74   S    
Cr10  O18   S    
C86   C90   D    
N6    C98   S    
C69   O45   A    
C105  O62   S    
C107  O66   S    
C85   C89   D    
C8    H20   S    
C4    C85   S    
C14   H30   S    
C96   H54   S    
C6    C90   S    
C74   O10   A    
C27   C31   A    
C76   O12   A    
C58   H13   S    
Cr4   O20   S    
Cr3   O23   S    
C104  O60   S    
C54   H6    S    
C20   H28   S    
N4    H53   S    
Cr2   O46   S    
C95   H50   S    
Cr7   O51   S    
C98   H62   S    
Cr7   O27   S    
Cr3   O19   S    
C63   N7    S    
N5    H57   S    
C48   C84   S    
C3    O27   A    
C71   O51   A    
N6    H61   S    
C38   C54   D    
Cr1   O17   S    
C70   O50   A    
C33   C105  S    
C7    C91   S    
Cr4   O24   S    
N3    H49   S    
C80   O44   A    
C2    C87   S    
N8    C100  S    
C52   H40   S    
Cr12  O12   S    
N7    C99   S    
C67   O39   A    
C42   C50   D    
C41   C72   S    
C78   O42   A    
C10   C25   A    
Cr11  O11   S    
C15   C24   A    
Cr12  O40   S    
O68   H80   S    
C2    O26   A    
C26   C30   A    
C16   C23   A    
C37   N1    S    
C38   N2    S    
C101  O54   S    
C67   O3    A    
Cr10  O34   S    
C99   H68   S    
Cr7   O19   S    
C42   H10   S    
C18   H26   S    
C55   H7    S    
C96   H55   S    
C6    H18   S    
Cr9   O9    S    
C59   C79   S    
O58   H75   S    
C16   H32   S    
C36   C108  S    
C48   O36   A    
Cr9   O37   S    
C11   C68   S    
C70   O46   A    
C103  O58   S    
Cr6   O6    S    
C10   C65   S    
C53   H5    S    
C37   C73   S    
C60   C80   S    
Cr5   O5    S    
Cr1   O45   S    
C4    O28   A    
C95   H51   S    
C1    O21   A    
C8    C84   D    
C13   H29   S    
C45   C81   S    
Cr2   O42   S    
C41   H9    S    
C63   C64   S    
C59   C64   D    
Cr8   O20   S    
C72   O52   A    
Cr5   O17   S    
O64   H78   S    
C97   H59   S    
C75   O11   A    
Cr12  O36   S    
Cr3   O47   S    
C43   C70   S    
C2    O22   A    
Cr11  O19   S    
C13   C17   A    
N5    C97   S    
C100  H72   S    
C71   O47   A    
C89   H1    S    
Cr4   O48   S    
C19   C20   A    
O62   H77   S    
C25   C26   A    
C68   O40   A    
C88   H24   S    
C106  O64   S    
C56   H8    S    
C43   C51   D    
Cr12  O20   S    
C103  O57   D    
Cr7   O7    S    
C11   C28   A    
C58   C61   D    
C49   C53   S    
C31   C35   A    
Cr9   O17   S    
C42   C71   S    
N3    C95   S    
C38   C74   S    
C13   C22   A    
C40   N4    S    
Cr11  O35   S    
C51   H39   S    
N1    H41   S    
C61   N5    S    
C66   O2    A    
Cr9   O33   S    
C58   C78   S    
C23   C24   A    
Cr9   O13   S    
C47   C83   S    
Cr6   O26   S    
C4    O24   A    
C95   H52   S    
Cr7   O31   S    
C44   H12   S    
C98   H63   S    
C73   O5    A    
C40   C76   S    
C73   O9    A    
C27   C28   A    
C93   H43   S    
C47   O31   A    
C44   C69   S    
C1    O25   A    
C35   C36   A    
C100  H71   S    
C31   H36   S    
C101  O53   D    
C65   O1    A    
Cr4   O44   S    
C72   O48   A    
C17   H25   S    
C5    C89   S    
Cr2   O18   S    
C50   H38   S    
N7    H65   S    
C77   O13   A    
C57   H14   S    
C48   O32   A    
C91   H3    S    
Cr1   O41   S    
