data_mof_unit_63154.cif
_audit_creation_date              2012-10-26T17:55:31-0400
_audit_creation_method            fapswitch 2.2
_symmetry_space_group_name_H-M    P1
_symmetry_Int_Tables_number       1
_space_group_crystal_system       triclinic
_cell_length_a                    38.706525
_cell_length_b                    21.764674
_cell_length_c                    21.730221
_cell_angle_alpha                 89.878467
_cell_angle_beta                  124.099648
_cell_angle_gamma                 89.827951
_cell_volume                      15158.5527242

loop_
_atom_site_label
_atom_site_type_symbol
_atom_type_description
_atom_site_fract_x
_atom_site_fract_y
_atom_site_fract_z
_atom_type_partial_charge
C1    C     C_R   0.001206 0.999911 0.119878 0.537194
C2    C     C_3   0.773215 0.060396 0.812844 0.182146
C3    C     C_3   0.275790 0.554425 0.744865 -0.014156
C4    C     C_3   0.272910 0.057417 0.303842 -0.047902
C5    C     C_3   0.727344 0.990568 0.663869 -0.046740
C6    C     C_3   0.772712 0.491936 0.336538 -0.045832
C7    C     C_3   0.226893 0.560095 0.695718 -0.048560
C8    C     C_1   0.375373 0.000378 0.375663 0.005435
C9    C     C_1   0.624749 0.998337 0.624811 -0.003290
C10   C     C_1   0.875240 0.497840 0.375206 0.001307
C11   C     C_1   0.124665 0.502440 0.624314 -0.006280
C12   C     C_3   0.208547 0.988552 0.210198 0.092689
C13   C     C_3   0.726358 0.558433 0.184641 0.182490
C14   C     C_3   0.791742 0.996578 0.803389 0.092977
C15   C     C_3   0.708231 0.495570 0.196808 0.092541
C16   C     C_3   0.291603 0.491031 0.790241 0.091971
C17   C     C_3   0.276778 0.939498 0.320383 0.240163
C18   C     C_3   0.724868 0.937830 0.767919 0.245865
C19   C     C_3   0.775382 0.435644 0.234765 0.244404
C20   C     C_3   0.223768 0.442225 0.680586 0.246021
C21   C     C_3   0.291501 0.996849 0.292847 0.126122
C22   C     C_3   0.708752 0.996673 0.712388 0.127709
C23   C     C_3   0.791223 0.495763 0.287741 0.127377
C24   C     C_3   0.274278 0.487449 0.843251 0.182444
C25   C     C_3   0.208614 0.499630 0.707362 0.128087
C26   C     C_3   0.173645 0.855841 0.181414 0.005925
C27   C     C_3   0.143235 0.845958 0.204373 -0.256032
C28   C     C_3   0.103317 0.814773 0.142597 -0.470782
C29   C     C_3   0.828510 0.946124 0.961986 0.001244
C30   C     C_3   0.861092 0.895895 0.982200 -0.271236
C31   C     C_3   0.903005 0.912535 0.052862 -0.459800
C32   C     C_3   0.671808 0.441713 0.040298 0.002799
C33   C     C_3   0.639609 0.391841 0.022007 -0.271855
C34   C     C_3   0.597621 0.407493 0.950505 -0.458773
C35   C     C_1   0.337763 0.999568 0.338504 0.082155
C36   C     C_3   0.327142 0.357953 0.820640 0.004801
C37   C     C_3   0.357614 0.347359 0.797922 -0.254874
C38   C     C_3   0.397412 0.315374 0.859902 -0.470037
C39   C     C_3   0.603423 0.808312 0.594803 0.017433
C40   C     C_3   0.599811 0.840247 0.654344 -0.283683
C41   C     C_3   0.586085 0.796558 0.691886 -0.453924
C42   C     C_3   0.433570 0.820666 0.548096 0.031353
C43   C     C_3   0.396438 0.859395 0.532420 -0.242472
C44   C     C_3   0.396415 0.867556 0.602095 -0.495608
C45   C     C_3   0.103403 0.300928 0.592232 0.021545
C46   C     C_1   0.662403 0.997129 0.663422 0.075531
C47   C     C_3   0.102378 0.335032 0.653075 -0.261877
C48   C     C_3   0.135915 0.310711 0.730240 -0.475432
C49   C     C_3   0.896853 0.309360 0.410960 0.017692
C50   C     C_3   0.899626 0.339905 0.349650 -0.286553
C51   C     C_3   0.911258 0.294432 0.310488 -0.446280
C52   C     C_3   0.216236 0.893082 0.365287 0.019642
C53   C     C_3   0.182833 0.895036 0.382394 -0.275807
C54   C     C_3   0.189917 0.844868 0.437600 -0.486599
C55   C     C_3   0.789306 0.825601 0.839011 0.020422
C56   C     C_3   0.822315 0.780464 0.847897 -0.271123
C57   C     C_1   0.837588 0.496323 0.336645 0.074324
C58   C     C_3   0.819977 0.718712 0.878802 -0.490133
C59   C     C_3   0.711742 0.323433 0.168184 0.028346
C60   C     C_3   0.678528 0.278438 0.158289 -0.261084
C61   C     C_3   0.680273 0.270234 0.229821 -0.396917
C62   C     C_3   0.284604 0.395379 0.636397 0.019649
C63   C     C_3   0.318147 0.396913 0.619631 -0.275759
C64   C     C_3   0.311300 0.346778 0.564876 -0.486371
C65   C     C_1   0.162301 0.502216 0.661545 0.079961
C66   C     C_1   0.162286 0.993377 0.163954 0.033390
C67   C     C_1   0.837899 0.999125 0.845299 0.035977
C68   C     C_1   0.662075 0.498249 0.154859 0.035692
C69   C     C_R   0.998639 0.000038 0.879908 0.547172
C70   C     C_1   0.337801 0.495373 0.836420 0.033837
C71   C     C_1   0.124695 0.997762 0.125839 -0.021111
C72   C     C_1   0.875443 0.000300 0.878803 -0.020665
C73   C     C_1   0.624533 0.499571 0.121281 -0.021356
C74   C     C_1   0.375375 0.498977 0.874417 -0.021465
C75   C     C_R   0.972937 0.034462 0.189551 -0.155489
C76   C     C_R   0.024819 0.037594 0.807801 -0.143809
C77   C     C_R   0.474837 0.537267 0.191666 -0.143138
C78   C     C_R   0.527125 0.534185 0.810384 -0.158286
C79   C     C_R   0.971821 0.035114 0.252455 0.055569
C80   C     C_R   0.501349 0.499908 0.120076 0.547653
C81   C     C_R   0.026029 0.038115 0.744982 0.058339
C82   C     C_R   0.473648 0.537874 0.254494 0.056522
C83   C     C_R   0.528238 0.534770 0.747469 0.055190
C84   C     C_R   0.000452 0.998513 0.314122 0.049189
C85   C     C_R   0.999480 0.998686 0.685653 0.049393
C86   C     C_R   0.500511 0.498542 0.314337 0.051181
C87   C     C_R   0.499554 0.498642 0.685917 0.045813
C88   C     C_R   0.030409 0.962048 0.313038 0.100945
C89   C     C_R   0.971372 0.959569 0.688641 0.098028
C90   C     C_R   0.528857 0.459349 0.311779 0.099582
C91   C     C_R   0.498839 0.500036 0.880174 0.537651
C92   C     C_R   0.469530 0.462776 0.687137 0.099524
C93   C     C_R   0.032986 0.964835 0.250917 0.108423
C94   C     C_R   0.968272 0.962600 0.750215 0.103692
C95   C     C_R   0.531853 0.462192 0.250065 0.103885
C96   C     C_R   0.466923 0.465759 0.749195 0.108538
C97   C     C_R   0.079897 0.999665 0.080255 0.541560
C98   C     C_R   0.920137 0.000150 0.920339 0.530925
C99   C     C_R   0.579854 0.499897 0.079674 0.531358
C100  C     C_R   0.420127 0.499984 0.919822 0.541528
C101  C     C_R   0.002813 0.999615 0.188179 -0.000925
C102  C     C_3   0.275526 0.996148 0.206749 0.216993
C103  C     C_R   0.996718 0.000061 0.811170 -0.002503
C104  C     C_R   0.503179 0.499693 0.188716 -0.001862
C105  C     C_R   0.497170 0.499959 0.811829 -0.001625
C106  C     C_R   0.500213 0.185217 0.500087 0.020139
C107  C     C_R   0.001999 0.685574 0.501602 0.037838
C108  C     C_R   0.499464 0.881620 0.499656 0.615914
C109  C     C_R   0.000585 0.381519 0.500649 0.600939
C110  C     C_R   0.420110 0.000478 0.420185 0.543858
C111  C     C_R   0.579934 0.999878 0.579875 0.530443
C112  C     C_R   0.920059 0.499787 0.420120 0.548096
C113  C     C_3   0.723489 0.062629 0.752116 0.218632
C114  C     C_R   0.079891 0.501352 0.579798 0.523676
C115  C     C_R   0.499991 0.118762 0.499936 0.534708
C116  C     C_R   0.000841 0.618875 0.500754 0.576820
C117  C     C_R   0.000092 0.880750 0.500409 0.586501
C118  C     C_R   0.500075 0.380662 0.500182 0.580158
C119  C     C_R   0.000052 0.999476 0.380911 0.576511
C120  C     C_R   0.999943 0.999533 0.619026 0.569996
C121  C     C_R   0.500059 0.499503 0.380976 0.577354
C122  C     C_R   0.499952 0.499498 0.619105 0.567791
C123  C     C_R   0.999849 0.119226 0.499566 0.543601
C124  C     C_3   0.776073 0.560905 0.245202 0.219721
C125  C     C_R   0.499869 0.619324 0.499417 0.543078
C126  C     C_R   0.534103 0.783715 0.510506 0.268252
C127  C     C_R   0.466770 0.783843 0.495697 0.230659
C128  C     C_R   0.033578 0.282783 0.506901 0.249756
C129  C     C_R   0.966412 0.283850 0.492547 0.264509
C130  C     C_R   0.031024 0.218936 0.498128 0.049135
C131  C     C_R   0.967786 0.219674 0.498509 0.054248
C132  C     C_R   0.532873 0.719649 0.504698 0.058018
C133  C     C_R   0.466308 0.719691 0.494389 0.055966
C134  C     C_3   0.225706 0.932952 0.270601 0.528239
C135  C     C_3   0.224543 0.499059 0.793454 0.220331
C136  C     C_3   0.775983 0.936206 0.824649 0.531227
C137  C     C_3   0.724276 0.434071 0.177956 0.531102
C138  C     C_3   0.274835 0.435453 0.730521 0.529516
C139  C     C_R   0.999460 0.186571 0.498550 -0.064327
C140  C     C_R   0.499625 0.686854 0.499401 -0.060726
C141  C     C_R   0.499861 0.815204 0.501029 -0.010705
C142  C     C_R   0.000275 0.314917 0.500340 -0.018208
C143  C     C_R   0.466455 0.217646 0.439444 0.071726
C144  C     C_R   0.534057 0.216776 0.561176 0.081221
C145  C     C_R   0.971395 0.717325 0.437077 0.062742
C146  C     C_3   0.225856 0.984727 0.157179 0.180824
C147  C     C_R   0.032826 0.717565 0.566099 0.072008
C148  C     C_R   0.971230 0.781676 0.436309 0.055425
C149  C     C_R   0.030392 0.782070 0.567006 0.087194
C150  C     C_R   0.467781 0.281781 0.438506 0.080791
C151  C     C_R   0.532523 0.281230 0.563252 0.088130
C152  C     C_R   0.000420 0.813712 0.501310 0.036867
C153  C     C_R   0.500185 0.313471 0.500623 0.025000
C154  C     C_3   0.224066 0.051923 0.254860 -0.012984
C155  C     C_3   0.776216 0.990895 0.718055 -0.013508
C156  C     C_3   0.723831 0.492076 0.282363 -0.012784
Cu1   Cu    Cu3+1 1.000000 0.938160 0.000000 0.907627
Cu2   Cu    Cu3+1 0.041320 0.999890 0.541290 0.973316
Cu3   Cu    Cu3+1 0.458680 0.499890 0.458710 0.972986
Cu4   Cu    Cu3+1 0.541320 0.499890 0.541290 0.970503
Cu5   Cu    Cu3+1 0.500000 0.438160 0.000000 0.905434
Cu6   Cu    Cu3+1 0.000000 0.061840 0.000000 0.945190
Cu7   Cu    Cu3+1 0.500000 0.561840 0.000000 0.940633
Cu8   Cu    Cu3+1 0.500000 0.000210 0.561820 0.922816
Cu9   Cu    Cu3+1 0.500000 0.000210 0.438180 0.995253
Cu10  Cu    Cu3+1 0.000000 0.500210 0.561820 0.980308
Cu11  Cu    Cu3+1 0.000000 0.500210 0.438180 0.982065
Cu12  Cu    Cu3+1 0.958680 0.999890 0.458710 0.966812
H1    H     H_    0.950387 0.061395 0.141168 0.119618
H2    H     H_    0.717809 0.030579 0.626076 0.132193
H3    H     H_    0.394625 0.822176 0.623623 0.146381
H4    H     H_    0.368924 0.895552 0.588461 0.149495
H5    H     H_    0.425172 0.891558 0.645793 0.150080
H6    H     H_    0.131514 0.315831 0.594639 0.169898
H7    H     H_    0.107599 0.250824 0.604393 0.140092
H8    H     H_    0.107433 0.384686 0.650030 0.189283
H9    H     H_    0.071679 0.329290 0.645266 0.163732
H10   H     H_    0.128735 0.262725 0.736813 0.147126
H11   H     H_    0.136880 0.339640 0.773203 0.163632
H12   H     H_    0.166991 0.311525 0.738921 0.149853
H13   H     H_    0.781968 0.532865 0.372517 0.132766
H14   H     H_    0.870941 0.332129 0.410333 0.163638
H15   H     H_    0.887526 0.260418 0.398067 0.145845
H16   H     H_    0.869004 0.360404 0.306951 0.154469
H17   H     H_    0.922165 0.378127 0.372731 0.199546
H18   H     H_    0.942784 0.274687 0.349537 0.159459
H19   H     H_    0.911244 0.318555 0.265401 0.153308
H20   H     H_    0.888145 0.256635 0.285455 0.137411
H21   H     H_    0.043004 0.161232 0.438685 0.234809
H22   H     H_    0.080426 0.161454 0.531887 0.244777
H23   H     H_    0.953577 0.161016 0.554111 0.237448
H24   H     H_    0.218156 0.600535 0.714999 0.129568
H25   H     H_    0.917574 0.163907 0.460270 0.242918
H26   H     H_    0.549560 0.661384 0.452332 0.240707
H27   H     H_    0.583699 0.663606 0.546881 0.242218
H28   H     H_    0.441725 0.657533 0.529811 0.230795
H29   H     H_    0.413758 0.667915 0.435100 0.268102
H30   H     H_    0.404615 0.199795 0.379335 0.214829
H31   H     H_    0.431871 0.139654 0.382611 0.250417
H32   H     H_    0.595896 0.198822 0.619088 0.233634
H33   H     H_    0.569242 0.137524 0.614030 0.254671
H34   H     H_    0.942111 0.694975 0.328001 0.231542
H35   H     H_    0.305171 0.912306 0.433859 0.204816
H36   H     H_    0.910799 0.695882 0.359942 0.232004
H37   H     H_    0.094746 0.702447 0.636715 0.224692
H38   H     H_    0.067823 0.639216 0.621582 0.243961
H39   H     H_    0.245719 0.899540 0.419723 0.112176
H40   H     H_    0.218161 0.846666 0.346663 0.172132
H41   H     H_    0.183570 0.940605 0.406124 0.174747
H42   H     H_    0.151373 0.889002 0.331293 0.167406
H43   H     H_    0.188573 0.798806 0.414442 0.145167
H44   H     H_    0.165205 0.847741 0.448639 0.158187
H45   H     H_    0.220740 0.850710 0.490936 0.146801
H46   H     H_    0.275498 0.977027 0.409747 0.276257
H47   H     H_    0.759305 0.803735 0.798559 0.111303
H48   H     H_    0.790895 0.828379 0.891327 0.175139
H49   H     H_    0.817225 0.773040 0.792771 0.173608
H50   H     H_    0.854134 0.799161 0.885477 0.166291
H51   H     H_    0.825942 0.724816 0.934729 0.144132
H52   H     H_    0.843964 0.687003 0.883796 0.155072
H53   H     H_    0.788757 0.697778 0.841084 0.147723
H54   H     H_    0.741645 0.301571 0.210084 0.105785
H55   H     H_    0.710991 0.324658 0.116578 0.156705
H56   H     H_    0.646762 0.293796 0.113511 0.151639
H57   H     H_    0.699544 0.847245 0.739210 0.195397
H58   H     H_    0.683905 0.233019 0.141641 0.109060
H59   H     H_    0.712101 0.256143 0.276362 0.138138
H60   H     H_    0.657921 0.234062 0.221693 0.131222
H61   H     H_    0.671425 0.313671 0.244386 0.195734
H62   H     H_    0.255168 0.402065 0.581793 0.114284
H63   H     H_    0.282732 0.349022 0.655346 0.171570
H64   H     H_    0.317403 0.442470 0.595654 0.174645
H65   H     H_    0.349551 0.390533 0.670919 0.167987
H66   H     H_    0.312646 0.300723 0.588286 0.144680
H67   H     H_    0.336125 0.349332 0.554112 0.156365
H68   H     H_    0.727778 0.865803 0.704489 0.278825
H69   H     H_    0.280544 0.352953 0.511353 0.149368
H70   H     H_    0.946458 0.802409 0.327964 0.221645
H71   H     H_    0.911704 0.803306 0.352437 0.234361
H72   H     H_    0.077856 0.788165 0.679359 0.258443
H73   H     H_    0.039078 0.838552 0.648212 0.217873
H74   H     H_    0.435871 0.299070 0.327742 0.253309
H75   H     H_    0.407294 0.306855 0.364606 0.238528
H76   H     H_    0.585525 0.286301 0.671350 0.256416
H77   H     H_    0.547554 0.336082 0.649709 0.219410
H78   H     H_    0.221077 0.045920 0.348499 0.292045
H79   H     H_    0.800980 0.345069 0.267319 0.195249
H80   H     H_    0.203923 0.112472 0.301918 0.214354
H81   H     H_    0.781364 0.898755 0.694587 0.294270
H82   H     H_    0.797231 0.950492 0.658570 0.212754
H83   H     H_    0.719512 0.400995 0.309933 0.289321
H84   H     H_    0.703061 0.454184 0.343445 0.212944
H85   H     H_    0.278875 0.548231 0.651373 0.292026
H86   H     H_    0.295667 0.614769 0.697205 0.212899
H87   H     H_    0.322725 0.079024 0.409874 0.239738
H88   H     H_    0.279030 0.116399 0.383447 0.221256
H89   H     H_    0.678508 0.942912 0.575732 0.247439
H90   H     H_    0.772622 0.366000 0.301055 0.278868
H91   H     H_    0.722007 0.941805 0.577746 0.225034
H92   H     H_    0.821908 0.445687 0.426799 0.246759
H93   H     H_    0.778406 0.445889 0.424797 0.225190
H94   H     H_    0.177000 0.581712 0.589423 0.243019
H95   H     H_    0.220502 0.618929 0.615457 0.221265
H96   H     H_    0.229527 0.886894 0.152725 0.246863
H97   H     H_    0.185695 0.920220 0.076605 0.248861
H98   H     H_    0.770582 0.033454 0.904911 0.246182
H99   H     H_    0.812751 0.078577 0.927408 0.246497
H100  H     H_    0.729263 0.528704 0.093765 0.246664
H101  H     H_    0.195412 0.414924 0.567392 0.218758
H102  H     H_    0.686721 0.574418 0.069327 0.246000
H103  H     H_    0.271290 0.389633 0.848977 0.245106
H104  H     H_    0.314804 0.423009 0.924658 0.248425
H105  H     H_    0.215609 0.030221 0.063170 0.251985
H106  H     H_    0.201324 0.074399 0.110050 0.203400
H107  H     H_    0.781584 0.154874 0.807627 0.250732
H108  H     H_    0.796680 0.113596 0.760009 0.204904
H109  H     H_    0.717410 0.653297 0.185909 0.249484
H110  H     H_    0.702603 0.614021 0.235275 0.204885
H111  H     H_    0.284224 0.533148 0.936645 0.252551
H112  H     H_    0.045984 0.066614 0.854600 0.130026
H113  H     H_    0.224891 0.479507 0.590791 0.274112
H114  H     H_    0.298328 0.577113 0.889313 0.203812
H115  H     H_    0.287731 0.949700 0.136968 0.246968
H116  H     H_    0.296540 0.905025 0.206247 0.236375
H117  H     H_    0.709924 0.122942 0.810420 0.245809
H118  H     H_    0.703034 0.050568 0.824788 0.234577
H119  H     H_    0.789183 0.618733 0.184136 0.243053
H120  H     H_    0.796703 0.545649 0.173267 0.233997
H121  H     H_    0.212278 0.453204 0.863556 0.245698
H122  H     H_    0.204514 0.408069 0.795841 0.226875
H123  H     H_    0.176373 0.811253 0.159631 0.149424
H124  H     H_    0.159445 0.886169 0.132962 0.123604
H125  H     H_    0.157277 0.815544 0.253752 0.160277
H126  H     H_    0.134736 0.891190 0.215673 0.190022
H127  H     H_    0.089816 0.839301 0.088954 0.178268
H128  H     H_    0.080023 0.814475 0.157171 0.161921
H129  H     H_    0.110056 0.766539 0.135801 0.138232
H130  H     H_    0.826425 0.951033 0.010685 0.149766
H131  H     H_    0.840549 0.990579 0.959080 0.120112
H132  H     H_    0.453486 0.566294 0.144540 0.130694
H133  H     H_    0.851104 0.851609 0.992615 0.150482
H134  H     H_    0.865898 0.891176 0.936862 0.203429
H135  H     H_    0.914019 0.957327 0.045748 0.157486
H136  H     H_    0.926533 0.876699 0.064989 0.168450
H137  H     H_    0.900150 0.915531 0.100867 0.148335
H138  H     H_    0.673908 0.445258 0.991485 0.150196
H139  H     H_    0.659418 0.486517 0.041459 0.119661
H140  H     H_    0.650098 0.347056 0.013630 0.147374
H141  H     H_    0.634730 0.388597 0.067418 0.205012
H142  H     H_    0.586193 0.452801 0.955539 0.158867
H143  H     H_    0.549737 0.560673 0.858710 0.118573
H144  H     H_    0.574352 0.371975 0.939797 0.167376
H145  H     H_    0.600573 0.408909 0.902534 0.147977
H146  H     H_    0.324432 0.313541 0.842880 0.147087
H147  H     H_    0.341245 0.388275 0.868770 0.123781
H148  H     H_    0.343559 0.317181 0.748650 0.159596
H149  H     H_    0.366242 0.392391 0.786514 0.189715
H150  H     H_    0.410836 0.339530 0.913527 0.178336
H151  H     H_    0.420820 0.314725 0.845597 0.161676
H152  H     H_    0.390541 0.267236 0.866605 0.136643
H153  H     H_    0.280340 0.860237 0.267411 0.237754
H154  H     H_    0.213002 0.089733 0.213725 0.108815
H155  H     H_    0.296940 0.848814 0.353263 0.231138
H156  H     H_    0.721323 0.963147 0.858429 0.236151
H157  H     H_    0.705428 0.894097 0.829401 0.228598
H158  H     H_    0.778993 0.457839 0.143462 0.236829
H159  H     H_    0.794950 0.389049 0.175156 0.228842
H160  H     H_    0.220636 0.363466 0.734653 0.230151
H161  H     H_    0.204872 0.351434 0.649492 0.224807
H162  H     H_    0.266087 0.091680 0.177014 0.194322
H163  H     H_    0.286943 0.051919 0.140624 0.242190
H164  H     H_    0.731828 0.114836 0.677628 0.195660
H165  H     H_    0.786209 0.032728 0.703172 0.107256
H166  H     H_    0.710328 0.154113 0.713243 0.239810
H167  H     H_    0.767464 0.615860 0.317420 0.195346
H168  H     H_    0.788711 0.653149 0.280083 0.238083
H169  H     H_    0.233476 0.594607 0.822055 0.194766
H170  H     H_    0.212751 0.555114 0.858792 0.242049
H171  H     H_    0.921824 0.094735 0.203000 0.219701
H172  H     H_    0.958800 0.108625 0.292589 0.224800
H173  H     H_    0.072731 0.102563 0.790703 0.223623
H174  H     H_    0.035455 0.112084 0.700151 0.223686
H175  H     H_    0.426450 0.602237 0.207949 0.227365
H176  H     H_    0.713538 0.534642 0.295472 0.108224
H177  H     H_    0.463702 0.611940 0.298345 0.226822
H178  H     H_    0.578345 0.593448 0.796764 0.218048
H179  H     H_    0.541390 0.608028 0.707147 0.222667
H180  H     H_    0.038815 0.889407 0.378241 0.225253
H181  H     H_    0.078131 0.897315 0.368111 0.249301
H182  H     H_    0.967144 0.887004 0.626897 0.215890
H183  H     H_    0.928197 0.889032 0.638372 0.255222
H184  H     H_    0.533631 0.386841 0.374435 0.228008
H185  H     H_    0.572610 0.388940 0.363029 0.254153
H186  H     H_    0.461067 0.390134 0.622367 0.217077
H187  H     H_    0.286640 0.592248 0.785561 0.109141
H188  H     H_    0.421745 0.398834 0.632406 0.249857
H189  H     H_    0.067216 0.941587 0.206981 0.247231
H190  H     H_    0.094569 0.956459 0.296803 0.222199
H191  H     H_    0.933458 0.940106 0.792905 0.251916
H192  H     H_    0.907016 0.945671 0.701913 0.225056
H193  H     H_    0.566506 0.438962 0.207183 0.251535
H194  H     H_    0.593182 0.445218 0.298125 0.224712
H195  H     H_    0.432573 0.443437 0.793110 0.247103
H196  H     H_    0.405316 0.458674 0.703225 0.221432
H197  H     H_    0.629959 0.829715 0.596514 0.163888
H198  H     H_    0.281406 0.097769 0.284040 0.128909
H199  H     H_    0.612322 0.759206 0.608944 0.145036
H200  H     H_    0.630602 0.859076 0.698253 0.150988
H201  H     H_    0.578097 0.879729 0.629971 0.203418
H202  H     H_    0.554326 0.778610 0.651621 0.142442
H203  H     H_    0.585656 0.821586 0.735925 0.146678
H204  H     H_    0.608292 0.757409 0.718026 0.140394
H205  H     H_    0.462929 0.842899 0.593001 0.138027
H206  H     H_    0.431401 0.774537 0.567798 0.152579
H207  H     H_    0.397571 0.905342 0.511232 0.204764
H208  H     H_    0.367017 0.836565 0.488946 0.173837
N1    N     N_3   0.294705 0.951440 0.400050 -0.600926
N2    N     N_3   0.711469 0.110503 0.694295 -0.625049
N3    N     N_3   0.787833 0.610239 0.300928 -0.622263
N4    N     N_3   0.213154 0.558707 0.811188 -0.620983
N5    N     N_3   0.942137 0.073470 0.254492 -0.601716
N6    N     N_3   0.053796 0.078942 0.740710 -0.596872
N7    N     N_3   0.445595 0.578721 0.258268 -0.593625
N8    N     N_3   0.557990 0.572560 0.745328 -0.601154
N9    N     N_3   0.057573 0.922165 0.375330 -0.596524
N10   N     N_3   0.946566 0.916960 0.628743 -0.595856
N11   N     N_3   0.553985 0.416825 0.372233 -0.593414
N12   N     N_3   0.708168 0.883279 0.718815 -0.614035
N13   N     N_3   0.442335 0.423267 0.625067 -0.598521
N14   N     N_3   0.067390 0.934806 0.254601 -0.645527
N15   N     N_3   0.935321 0.929566 0.748111 -0.617929
N16   N     N_3   0.564926 0.428932 0.252429 -0.620915
N17   N     N_3   0.432426 0.436507 0.745566 -0.645327
N18   N     N_3   0.059767 0.188798 0.485952 -0.592139
N19   N     N_3   0.937842 0.189850 0.507516 -0.593095
N20   N     N_3   0.564124 0.689772 0.499062 -0.592149
N21   N     N_3   0.431191 0.689504 0.486767 -0.601209
N22   N     N_3   0.430308 0.187343 0.378045 -0.621931
N23   N     N_3   0.792241 0.382152 0.286173 -0.615541
N24   N     N_3   0.570561 0.184995 0.620712 -0.621791
N25   N     N_3   0.940275 0.683529 0.372811 -0.602768
N26   N     N_3   0.067391 0.686237 0.629890 -0.621628
N27   N     N_3   0.941994 0.814969 0.369439 -0.609258
N28   N     N_3   0.057745 0.816441 0.634122 -0.589243
N29   N     N_3   0.436355 0.315151 0.373531 -0.591748
N30   N     N_3   0.563176 0.314851 0.628766 -0.587339
N31   N     N_3   0.204403 0.064942 0.295260 -0.590370
N32   N     N_3   0.797050 0.940311 0.705474 -0.591231
N33   N     N_3   0.703388 0.442530 0.297079 -0.599997
N34   N     N_3   0.205815 0.454066 0.600800 -0.588830
N35   N     N_3   0.295431 0.567254 0.704399 -0.591661
N36   N     N_3   0.290489 0.073257 0.381831 -0.649521
N37   N     N_3   0.710907 0.938624 0.611830 -0.648755
N38   N     N_3   0.789542 0.441231 0.390898 -0.649346
N39   N     N_3   0.209270 0.575850 0.617563 -0.647012
N40   N     N_3   0.217246 0.925362 0.118889 -0.635455
N41   N     N_3   0.781585 0.067893 0.887401 -0.640011
N42   N     N_3   0.717934 0.563888 0.109807 -0.640806
N43   N     N_3   0.283217 0.428147 0.882309 -0.636050
N44   N     N_3   0.203299 0.029747 0.095453 -0.629157
N45   N     N_3   0.296934 0.882040 0.318436 -0.599511
N46   N     N_3   0.794718 0.113437 0.805757 -0.627251
N47   N     N_3   0.704541 0.612371 0.189531 -0.627978
N48   N     N_3   0.296568 0.532511 0.904419 -0.628789
N49   N     N_3   0.298681 0.949748 0.193273 -0.577405
N50   N     N_3   0.699997 0.079993 0.784846 -0.583798
N51   N     N_3   0.799437 0.576377 0.211710 -0.584469
N52   N     N_3   0.201593 0.452841 0.807384 -0.591083
N53   N     N_3   0.704900 0.938162 0.809635 -0.618981
N54   N     N_3   0.795415 0.433719 0.193196 -0.620307
N55   N     N_3   0.204034 0.384832 0.683157 -0.630047
N56   N     N_3   0.286576 0.055671 0.188239 -0.620608
O1    O     O_R   0.999990 0.947780 0.090170 -0.512309
O2    O     O_R   0.965100 0.999930 0.555260 -0.495601
O3    O     O_R   0.534900 0.499930 0.444740 -0.494279
O4    O     O_R   0.465100 0.499930 0.555260 -0.494526
O5    O     O_R   0.965090 0.090120 0.465150 -0.523777
O6    O     O_R   0.034910 0.090120 0.534850 -0.521086
O7    O     O_R   0.465090 0.590120 0.465150 -0.520070
O8    O     O_R   0.534910 0.590120 0.534850 -0.524531
O9    O     O_R   0.999990 0.052220 0.090220 -0.507163
O10   O     O_R   0.000010 0.052220 0.909780 -0.510275
O11   O     O_R   0.499990 0.552220 0.090220 -0.509698
O12   O     O_R   0.000010 0.947780 0.909830 -0.495317
O13   O     O_R   0.500010 0.552220 0.909780 -0.509270
O14   O     O_R   0.060280 0.947780 0.060280 -0.527047
O15   O     O_R   0.939720 0.947780 0.939720 -0.511176
O16   O     O_R   0.560280 0.447780 0.060280 -0.512040
O17   O     O_R   0.439720 0.447780 0.939720 -0.526877
O18   O     O_R   0.060280 0.052220 0.060320 -0.493977
O19   O     O_R   0.939720 0.052220 0.939680 -0.500109
O20   O     O_R   0.560280 0.552220 0.060320 -0.499902
O21   O     O_R   0.439720 0.552220 0.939680 -0.494735
O22   O     O_R   0.500000 0.909980 0.552210 -0.534813
O23   O     O_R   0.499990 0.447780 0.090170 -0.495841
O24   O     O_R   0.500000 0.909980 0.447790 -0.469229
O25   O     O_R   1.000000 0.409980 0.552210 -0.492410
O26   O     O_R   1.000000 0.409980 0.447790 -0.496541
O27   O     O_R   0.439710 0.000200 0.491930 -0.516106
O28   O     O_R   0.560290 0.000200 0.508070 -0.496497
O29   O     O_R   0.939710 0.500200 0.491930 -0.496233
O30   O     O_R   0.060290 0.500200 0.508070 -0.495712
O31   O     O_R   0.439720 0.000170 0.387560 -0.498129
O32   O     O_R   0.560280 0.000170 0.612440 -0.516747
O33   O     O_R   0.939720 0.500170 0.387560 -0.507468
O34   O     O_R   0.500010 0.447780 0.909830 -0.511261
O35   O     O_R   0.060280 0.500170 0.612440 -0.517447
O36   O     O_R   0.500000 0.090430 0.552220 -0.506935
O37   O     O_R   0.500000 0.090430 0.447780 -0.508516
O38   O     O_R   0.000000 0.590430 0.552220 -0.508764
O39   O     O_R   1.000000 0.590430 0.447780 -0.487873
O40   O     O_R   0.965130 0.909670 0.465120 -0.482245
O41   O     O_R   0.034870 0.909670 0.534880 -0.486351
O42   O     O_R   0.465130 0.409670 0.465120 -0.485048
O43   O     O_R   0.534870 0.409670 0.534880 -0.482112
O44   O     O_3   0.215246 0.871670 0.239980 -0.626233
O45   O     O_R   0.965120 0.999890 0.374970 -0.478540
O46   O     O_3   0.787002 0.933635 0.900187 -0.624912
O47   O     O_3   0.713371 0.429747 0.102623 -0.623907
O48   O     O_3   0.285547 0.374127 0.761769 -0.626329
O49   O     O_3   0.567628 0.816950 0.521378 -0.531367
O50   O     O_3   0.432221 0.816264 0.481913 -0.532165
O51   O     O_3   0.068015 0.314871 0.519949 -0.530734
O52   O     O_3   0.933355 0.317499 0.483509 -0.531135
O53   O     O_3   0.208714 0.941501 0.314374 -0.564952
O54   O     O_3   0.793856 0.883299 0.812658 -0.566040
O55   O     O_3   0.706480 0.382145 0.191632 -0.555595
O56   O     O_R   0.034880 0.999890 0.625030 -0.481492
O57   O     O_3   0.291872 0.443821 0.686794 -0.565612
O58   O     O_R   0.465120 0.499890 0.374970 -0.476581
O59   O     O_R   0.534880 0.499890 0.625030 -0.483880
O60   O     O_R   0.034900 0.999930 0.444740 -0.493462

loop_
_geom_bond_atom_site_label_1
_geom_bond_atom_site_label_2
_ccdc_geom_bond_type
C114  O35   A    
H90   N23   S    
Cu8   O27   S    
Cu10  O35   S    
C83   C87   A    
C40   H201  S    
C55   C56   S    
Cu3   O42   S    
H86   N35   S    
H175  N7    S    
H94   N39   S    
Cu5   O17   S    
C90   C95   A    
Cu7   O13   S    
Cu5   O16   S    
H84   N33   S    
C61   H59   S    
C17   N1    S    
C144  C151  A    
C24   N43   S    
H99   N41   S    
C118  C153  S    
C89   C94   A    
H106  N44   S    
C151  N30   S    
C22   C113  S    
H92   N38   S    
H72   N28   S    
C98   O15   A    
C111  O28   A    
C75   H1    S    
Cu6   O9    S    
C145  N25   S    
C109  C142  S    
H71   N27   S    
H117  N50   S    
C132  N20   S    
C133  N21   S    
C47   H8    S    
H75   N29   S    
C76   C103  A    
C109  O25   A    
H113  N34   S    
C148  N27   S    
C9    C46   T    
H104  N43   S    
C17   N45   S    
Cu2   O41   S    
C134  O44   S    
C56   H50   S    
Cu5   Cu7   S    
H36   N25   S    
C45   C47   S    
C16   C138  S    
C76   H112  S    
H169  N4    S    
C119  O60   A    
C64   H67   S    
C86   C90   A    
C93   C101  A    
C13   C124  S    
C74   C100  S    
C129  C142  A    
C5    C155  S    
C12   C66   S    
C69   O10   A    
C17   C21   S    
C8    C35   T    
C19   C23   S    
C43   C44   S    
C44   H4    S    
C37   C38   S    
C34   H145  S    
H81   N32   S    
C86   C121  S    
C136  O46   S    
C13   N42   S    
C121  O3    A    
C122  O4    A    
C110  O31   A    
H193  N16   S    
C24   N48   S    
C121  O58   A    
H98   N41   S    
C36   H146  S    
H167  N3    S    
C7    H24   S    
H68   N12   S    
C102  N56   S    
H96   N40   S    
C1    C101  S    
C118  O43   A    
C145  C148  A    
H122  N52   S    
Cu7   O11   S    
C26   H124  S    
H172  N5    S    
Cu8   Cu9   S    
C1    O1    A    
C50   H16   S    
C84   C88   A    
C12   C154  S    
C87   C122  S    
C21   C35   S    
C126  C141  A    
C106  C115  S    
C100  O21   A    
C102  N49   S    
H180  N9    S    
C62   O57   S    
C31   H135  S    
C29   H131  S    
C30   C31   S    
C77   C82   A    
C31   H137  S    
C116  O39   A    
C2    N41   S    
C39   H199  S    
C122  O59   A    
C60   H58   S    
C151  C153  A    
C33   H141  S    
C2    C14   S    
C26   O44   S    
C126  O49   S    
Cu11  O30   S    
H116  N49   S    
C93   N14   S    
C75   C101  A    
H178  N8    S    
C75   C79   A    
C99   O20   A    
C89   N10   S    
C15   C137  S    
C97   O18   A    
C117  O40   A    
C32   H139  S    
H195  N17   S    
H77   N30   S    
H192  N15   S    
C91   C105  S    
C48   H10   S    
C150  N29   S    
Cu1   O1    S    
H189  N14   S    
H162  N56   S    
C71   C97   S    
C69   O12   A    
H114  N48   S    
H119  N51   S    
Cu10  O38   S    
H103  N43   S    
C36   C37   S    
C4    N36   S    
C76   C81   A    
C5    N37   S    
C84   C119  S    
C55   H47   S    
C79   C84   A    
H30   N22   S    
H95   N39   S    
C123  C139  S    
C92   C96   A    
C32   O47   S    
C38   H151  S    
C127  C141  A    
C4    H198  S    
C3    N35   S    
C19   N23   S    
C51   H20   S    
C58   H52   S    
C53   H42   S    
C62   H62   S    
C14   C67   S    
C18   C136  S    
H107  N46   S    
C63   H64   S    
C137  O47   S    
C137  O55   S    
C54   H44   S    
H28   N21   S    
C12   C134  S    
H27   N20   S    
C124  N51   S    
C27   H125  S    
C128  O51   S    
C25   C135  S    
H170  N4    S    
C58   H53   S    
C30   H134  S    
C69   C103  S    
C125  C140  S    
C108  O22   A    
C39   O49   S    
H70   N27   S    
C18   N53   S    
C16   C70   S    
H185  N11   S    
H83   N33   S    
C39   C40   S    
H32   N24   S    
C88   C93   A    
H23   N19   S    
C111  O32   A    
H161  N55   S    
H190  N14   S    
C64   H66   S    
C29   C30   S    
C59   H54   S    
C8    C110  S    
C91   O13   A    
C18   N12   S    
C92   N13   S    
Cu1   O12   S    
C126  C132  A    
C41   H202  S    
C19   C137  S    
C20   N34   S    
C21   C102  S    
C123  O6    A    
H78   N31   S    
C13   N47   S    
C28   H128  S    
C154  H154  S    
C48   H12   S    
H188  N13   S    
H177  N7    S    
C23   C57   S    
C40   C41   S    
C18   C22   S    
C148  C152  A    
Cu4   O59   S    
C117  O41   A    
H79   N23   S    
C36   O48   S    
C43   H208  S    
H89   N37   S    
C51   H18   S    
Cu12  O40   S    
Cu10  Cu11  S    
C136  O54   S    
Cu1   Cu6   S    
H73   N28   S    
C154  N31   S    
C144  N24   S    
C56   C58   S    
C124  N3    S    
H166  N2    S    
H101  N34   S    
C131  C139  A    
Cu5   O23   S    
C63   C64   S    
C59   C60   S    
C116  O38   A    
H93   N38   S    
C96   N17   S    
Cu6   O10   S    
C6    C156  S    
C3    C16   S    
C114  O30   A    
H168  N3    S    
C108  O24   A    
C4    C154  S    
C96   C105  A    
Cu1   O15   S    
Cu4   O3    S    
C52   H39   S    
C138  O48   S    
Cu6   O18   S    
Cu2   Cu12  S    
C106  C143  A    
C52   C53   S    
C32   H138  S    
C26   C27   S    
C80   C104  S    
C97   O14   A    
C147  C149  A    
C34   H142  S    
C3    C7    S    
H31   N22   S    
H196  N17   S    
H181  N9    S    
C20   C25   S    
C41   H204  S    
C130  N18   S    
C149  N28   S    
H160  N55   S    
C20   C138  S    
C108  C141  S    
C49   H15   S    
C78   C83   A    
C150  C153  A    
H82   N32   S    
C37   H149  S    
C42   H205  S    
C10   C112  S    
C1    O9    A    
H115  N49   S    
H194  N16   S    
C19   N54   S    
C87   C92   A    
H157  N53   S    
Cu7   O20   S    
Cu8   O36   S    
Cu12  O2    S    
C130  C139  A    
C56   H49   S    
C80   O11   A    
C98   O19   A    
C82   N7    S    
C37   H148  S    
C61   H60   S    
H85   N35   S    
C26   H123  S    
C85   C89   A    
C138  O57   S    
Cu3   O7    S    
C53   C54   S    
Cu4   O8    S    
C60   C61   S    
H87   N36   S    
C156  H176  S    
C62   C63   S    
H105  N44   S    
C29   H130  S    
C107  C147  A    
C30   H133  S    
C66   C71   T    
C83   N8    S    
C59   O55   S    
C120  O56   A    
C50   C51   S    
C33   H140  S    
C64   H69   S    
C59   H55   S    
C115  O36   A    
H184  N11   S    
C109  O26   A    
C22   C46   S    
Cu9   O28   S    
C94   C103  A    
Cu3   O4    S    
C52   O53   S    
Cu4   O43   S    
C7    N39   S    
C42   C43   S    
H38   N26   S    
C119  O45   A    
C45   O51   S    
C134  O53   S    
Cu2   O60   S    
H163  N56   S    
C113  N2    S    
C127  C133  A    
C128  C130  A    
C127  O50   S    
C61   H61   S    
C155  N32   S    
Cu10  O29   S    
C132  C140  A    
C7    C25   S    
H159  N54   S    
H164  N2    S    
C32   C33   S    
Cu2   O6    S    
C45   H7    S    
C44   H3    S    
C82   C86   A    
C45   H6    S    
C125  O8    A    
C34   H144  S    
C14   C136  S    
C91   O34   A    
C107  C145  A    
H76   N30   S    
Cu3   O58   S    
C38   H152  S    
C42   O50   S    
C29   O46   S    
H21   N18   S    
C51   H19   S    
H100  N42   S    
Cu11  O33   S    
C133  C140  A    
C53   H41   S    
C62   H63   S    
Cu8   O32   S    
Cu9   O24   S    
C17   C134  S    
C77   C104  A    
H121  N52   S    
C155  H165  S    
C9    C111  S    
C54   H45   S    
C14   C155  S    
H174  N6    S    
C94   N15   S    
C72   C98   S    
C135  N52   S    
C49   O52   S    
Cu9   O31   S    
H186  N13   S    
H182  N10   S    
C78   C105  A    
C90   N11   S    
Cu9   O37   S    
C67   C72   T    
C31   H136  S    
C81   N6    S    
C2    C113  S    
C147  N26   S    
C125  O7    A    
C6    C23   S    
H153  N45   S    
C12   C146  S    
C11   C114  S    
C70   C74   T    
H118  N50   S    
H191  N15   S    
C143  C150  A    
C5    C22   S    
Cu3   Cu4   S    
H183  N10   S    
C113  N50   S    
C143  N22   S    
Cu5   O34   S    
C135  N4    S    
C112  O33   A    
H155  N45   S    
C16   C24   S    
H22   N18   S    
H173  N6    S    
H171  N5    S    
C60   H56   S    
C129  O52   S    
C95   N16   S    
C156  N33   S    
C107  C116  S    
C131  N19   S    
H179  N8    S    
C6    H13   S    
C3    H187  S    
C39   H197  S    
C10   C57   T    
C25   C65   S    
C44   H5    S    
Cu7   O21   S    
Cu12  O5    S    
C149  C152  A    
C55   H48   S    
H80   N31   S    
H97   N40   S    
C68   C73   T    
C49   H14   S    
H57   N12   S    
C43   H207  S    
C38   H150  S    
H102  N42   S    
C85   C120  S    
C63   H65   S    
C58   H51   S    
C47   C48   S    
Cu11  O39   S    
Cu12  O45   S    
C5    H2    S    
C36   H147  S    
C33   C34   S    
C40   H200  S    
C100  O17   A    
H158  N54   S    
C15   C156  S    
C77   H132  S    
H110  N47   S    
C24   C135  S    
C54   H43   S    
H120  N51   S    
C112  O29   A    
C49   C50   S    
C13   C15   S    
C99   O16   A    
C146  N40   S    
C27   H126  S    
H25   N19   S    
C28   H129  S    
H26   N20   S    
C95   C104  A    
C115  O37   A    
Cu11  O26   S    
C73   C99   S    
C120  O2    A    
Cu1   O14   S    
H74   N29   S    
C52   H40   S    
H37   N26   S    
H33   N24   S    
Cu6   O19   S    
C118  O42   A    
H156  N53   S    
C106  C144  A    
C23   C124  S    
H108  N46   S    
C2    N46   S    
H34   N25   S    
H109  N47   S    
H46   N1    S    
C79   N5    S    
C47   H9    S    
C102  C146  S    
C4    C21   S    
C50   H17   S    
C55   O54   S    
C128  C142  A    
C88   N9    S    
C41   H203  S    
C15   C68   S    
C6    N38   S    
Cu8   O22   S    
C117  C152  S    
C81   C85   A    
H29   N21   S    
H111  N48   S    
C20   N55   S    
C123  O5    A    
C78   H143  S    
Cu2   O56   S    
C27   C28   S    
H91   N37   S    
H88   N36   S    
C42   H206  S    
C28   H127  S    
H35   N1    S    
C80   O23   A    
C146  N44   S    
C48   H11   S    
C11   C65   T    
C110  O27   A    
C129  C131  A    
Cu10  O25   S    
