data_mof_unit_48404.cif
_audit_creation_date              2012-12-11T15:46:53-0500
_audit_creation_method            fapswitch 2.2
_symmetry_space_group_name_H-M    P1
_symmetry_Int_Tables_number       1
_space_group_crystal_system       triclinic
_cell_length_a                    11.566495
_cell_length_b                    11.528609
_cell_length_c                    19.553421
_cell_angle_alpha                 90.409651
_cell_angle_beta                  90.112037
_cell_angle_gamma                 59.983237
_cell_volume                      2257.59909242

loop_
_atom_site_label
_atom_site_type_symbol
_atom_type_description
_atom_site_fract_x
_atom_site_fract_y
_atom_site_fract_z
_atom_type_partial_charge
C1    C     C_R   0.640424 0.117273 0.599264 0.546597
C2    C     C_1   0.641231 0.703864 0.668000 0.004095
C3    C     C_1   0.126557 0.198880 0.859284 0.003606
C4    C     C_1   0.171591 0.170168 0.727715 -0.030728
C5    C     C_1   0.150083 0.182306 0.798945 -0.030797
C6    C     C_1   0.195449 0.160732 0.667395 0.003851
C7    C     C_1   0.678652 0.191348 0.860758 0.003632
C8    C     C_1   0.658641 0.167145 0.729016 -0.030770
C9    C     C_1   0.665747 0.180926 0.800319 -0.030698
C10   C     C_1   0.653055 0.149546 0.668635 0.003828
C11   C     C_R   0.656332 0.686077 0.188179 0.017455
C12   C     C_R   0.612416 0.746028 0.598628 0.545778
C13   C     C_R   0.531638 0.737817 0.219949 0.021059
C14   C     C_R   0.523287 0.748015 0.289682 0.045577
C15   C     C_R   0.754952 0.682686 0.298029 -0.173162
C16   C     C_R   0.765579 0.671589 0.227036 -0.166718
C17   C     C_3   0.426712 0.697054 0.217322 -0.271277
C18   C     C_3   0.422145 0.704733 0.294403 -0.274558
C19   C     C_R   0.635927 0.710398 0.329866 0.025192
C20   C     C_R   0.124910 0.206033 0.196185 0.014480
C21   C     C_R   0.122956 0.307663 0.235397 0.016076
C22   C     C_R   0.142984 0.294826 0.304566 0.022521
C23   C     C_R   0.241088 0.145216 0.598207 0.546342
C24   C     C_R   0.150926 0.081766 0.300974 -0.156890
C25   C     C_R   0.129023 0.096369 0.230223 -0.150152
C26   C     C_3   0.197174 0.381146 0.225771 -0.256272
C27   C     C_3   0.217979 0.370414 0.302831 -0.104213
C28   C     C_R   0.170371 0.175734 0.337529 0.007234
C29   C     C_R   0.691178 0.196656 0.200327 0.018505
C30   C     C_R   0.799136 0.095394 0.236009 0.043655
C31   C     C_R   0.792823 0.078147 0.304806 0.024312
C32   C     C_R   0.577955 0.278699 0.309108 -0.170975
C33   C     C_R   0.583992 0.295419 0.238486 -0.169486
C34   C     C_R   0.646318 0.114152 0.403638 0.544398
C35   C     C_3   0.879512 0.948408 0.221925 -0.270416
C36   C     C_3   0.873608 0.928923 0.298026 -0.272470
C37   C     C_R   0.676174 0.161323 0.341083 0.015652
C38   C     C_R   0.081677 0.231205 0.928574 0.546714
C39   C     C_R   0.683945 0.604363 0.929512 0.544273
C40   C     C_R   0.708485 0.206701 0.930121 0.546714
C41   C     C_R   0.081371 0.236497 0.125889 0.545840
C42   C     C_R   0.681802 0.614560 0.124351 0.550319
C43   C     C_R   0.711324 0.213055 0.128558 0.544233
C44   C     C_R   0.614724 0.742289 0.401414 0.543439
C45   C     C_R   0.241746 0.142248 0.402123 0.542724
C46   C     C_1   0.670323 0.646487 0.860136 0.004638
C47   C     C_1   0.654752 0.683646 0.728441 -0.031214
C48   C     C_1   0.663381 0.666685 0.799695 -0.031081
Cr1   Cr    Cr6+3 0.404720 0.198220 0.499960 1.016518
Cr2   Cr    Cr6+3 0.698290 0.897110 0.500380 1.021928
Cr3   Cr    Cr6+3 0.396970 0.904720 0.499610 1.024638
Cr4   Cr    Cr6+3 0.926290 0.152010 0.028150 1.024384
Cr5   Cr    Cr6+3 0.921440 0.451830 0.027490 1.024700
Cr6   Cr    Cr6+3 0.626370 0.446880 0.028730 1.022018
H1    H     H_    0.839303 0.665834 0.328589 0.114739
H2    H     H_    0.291439 0.321464 0.196448 0.123586
H3    H     H_    0.324144 0.306758 0.317437 0.171883
H4    H     H_    0.491835 0.351071 0.337269 0.121688
H5    H     H_    0.502964 0.381053 0.213715 0.116601
H6    H     H_    0.981832 0.916977 0.203442 0.133522
H7    H     H_    0.824171 0.910707 0.191000 0.140702
H8    H     H_    0.815843 0.879130 0.310742 0.164316
H9    H     H_    0.972231 0.887382 0.323527 0.127867
H10   H     H_    0.862551 0.637297 0.203981 0.134619
H11   H     H_    0.462417 0.593671 0.198829 0.163527
H12   H     H_    0.332866 0.774702 0.193086 0.127082
H13   H     H_    0.325264 0.783573 0.315037 0.139428
H14   H     H_    0.463048 0.605273 0.319169 0.137348
H15   H     H_    0.160509 0.994229 0.326007 0.117774
H16   H     H_    0.118359 0.021022 0.202211 0.125513
H17   H     H_    0.131784 0.484327 0.206373 0.139807
O1    O     O_R   0.267750 0.231960 0.575440 -0.506201
O2    O     O_R   0.685950 0.784660 0.430010 -0.509933
O3    O     O_R   0.502510 0.767000 0.423980 -0.518596
O4    O     O_R   0.288320 0.026340 0.429250 -0.502366
O5    O     O_3   0.499990 0.000020 0.499980 -0.251757
O6    O     O_R   0.821590 0.119350 0.952850 -0.505447
O7    O     O_R   0.037230 0.162540 0.957390 -0.494596
O8    O     O_R   0.056530 0.344750 0.951370 -0.505077
O9    O     O_R   0.798000 0.560370 0.957490 -0.495075
O10   O     O_R   0.596230 0.579400 0.952760 -0.505291
O11   O     O_R   0.639160 0.321170 0.958690 -0.492918
O12   O     O_R   0.527290 0.186640 0.570530 -0.494368
O13   O     O_R   0.821370 0.124220 0.104400 -0.518786
O14   O     O_R   0.037020 0.167050 0.097880 -0.508129
O15   O     O_R   0.056310 0.349620 0.102920 -0.516680
O16   O     O_R   0.797790 0.564880 0.097980 -0.508439
O17   O     O_R   0.596000 0.584270 0.104310 -0.525068
O18   O     O_R   0.638950 0.325690 0.099180 -0.506866
O19   O     O_3   0.824700 0.350240 0.028120 -0.253177
O20   O     O_R   0.728110 0.003450 0.576380 -0.504564
O21   O     O_R   0.682980 0.789190 0.570500 -0.493765
O22   O     O_R   0.499300 0.771880 0.575540 -0.505028
O23   O     O_R   0.285350 0.030870 0.569740 -0.493820
O24   O     O_R   0.270960 0.227070 0.423890 -0.529298
O25   O     O_R   0.530270 0.182120 0.430040 -0.511726
O26   O     O_R   0.731320 0.998570 0.424830 -0.519343
C49   C     C_3   0.143031 0.505507 0.341061 -0.264034
C50   C     C_3   0.225694 0.574370 0.346362 -0.460191
H18   H     H_    0.307723 0.521654 0.383680 0.150151
H19   H     H_    0.266518 0.576893 0.295409 0.148169
H20   H     H_    0.162000 0.678708 0.365039 0.133618
H21   H     H_    0.050107 0.573527 0.313624 0.138020
H22   H     H_    0.116101 0.490350 0.393446 0.175531

loop_
_geom_bond_atom_site_label_1
_geom_bond_atom_site_label_2
_ccdc_geom_bond_type
C21   C26   S    
C27   C49   S    
C43   O13   A    
C34   C37   S    
C14   C18   S    
Cr4   O19   S    
C35   C36   S    
Cr3   O3    S    
C32   H4    S    
C2    C12   S    
C20   C41   S    
C15   C19   A    
C41   O15   A    
C26   C27   S    
C43   O18   A    
C30   C35   S    
Cr4   O14   S    
Cr5   O8    S    
C34   O25   A    
Cr6   O19   S    
C30   C31   A    
Cr4   O7    S    
C20   C25   A    
C18   H14   S    
C15   C16   A    
C29   C33   A    
C34   O26   A    
C11   C42   S    
Cr4   O13   S    
C50   H18   S    
C3    C38   S    
C8    C9    S    
Cr1   O1    S    
C7    C40   S    
Cr5   O15   S    
C36   H9    S    
C33   H5    S    
C22   C28   A    
C21   C22   A    
C29   C43   S    
C26   H17   S    
C38   O8    A    
C36   H8    S    
C14   C19   A    
C24   H15   S    
C46   C48   T    
C28   C45   S    
C40   O11   A    
Cr5   O9    S    
C24   C25   A    
C39   O10   A    
Cr6   O18   S    
C4    C6    T    
C27   H3    S    
Cr2   O2    S    
C38   O7    A    
C18   H13   S    
Cr1   O24   S    
C31   C37   A    
C35   H6    S    
C15   H1    S    
C29   C30   A    
Cr2   O5    S    
C11   C16   A    
C47   C48   S    
C17   C18   S    
C17   H12   S    
Cr1   O5    S    
Cr5   O16   S    
C32   C37   A    
Cr3   O5    S    
C44   O3    A    
Cr3   O22   S    
C39   C46   S    
Cr2   O21   S    
C50   H19   S    
C22   C27   S    
C12   O22   A    
C42   O17   A    
Cr4   O6    S    
C45   O24   A    
Cr6   O11   S    
C19   C44   S    
C7    C9    T    
Cr2   O26   S    
C31   C36   S    
C23   O1    A    
C12   O21   A    
C1    C10   S    
C24   C28   A    
Cr3   O4    S    
C4    C5    S    
C3    C5    T    
C26   H2    S    
C42   O16   A    
C2    C47   T    
C1    O12   A    
C41   O14   A    
C17   H11   S    
C23   O23   A    
C13   C17   S    
C45   O4    A    
C32   C33   A    
Cr1   O12   S    
C39   O9    A    
Cr6   O17   S    
C11   C13   A    
C35   H7    S    
C49   H22   S    
C6    C23   S    
Cr1   O25   S    
C44   O2    A    
Cr3   O23   S    
Cr2   O20   S    
C50   H20   S    
C20   C21   A    
C8    C10   T    
C49   C50   S    
C1    O20   A    
Cr5   O19   S    
C40   O6    A    
C25   H16   S    
C16   H10   S    
C13   C14   A    
Cr6   O10   S    
C49   H21   S    
