data_mof_unit_30415.cif
_audit_creation_date              2013-03-05T16:47:26-0500
_audit_creation_method            fapswitch 2.2
_symmetry_space_group_name_H-M    P1
_symmetry_Int_Tables_number       1
_space_group_crystal_system       triclinic
_cell_length_a                    10.798194
_cell_length_b                    8.920372
_cell_length_c                    8.111031
_cell_angle_alpha                 90.074957
_cell_angle_beta                  89.865115
_cell_angle_gamma                 90.304098
_cell_volume                      781.272373885

loop_
_atom_site_label
_atom_site_type_symbol
_atom_site_description
_atom_site_fract_x
_atom_site_fract_y
_atom_site_fract_z
_atom_type_partial_charge
O1    O     O_R   0.500000 0.285340 0.636850 -0.660894
O2    O     O_R   0.500000 0.285340 0.363150 -0.571416
C1    C     C_R   0.500490 0.218040 0.500018 1.024103
O3    O     O_R   0.314790 0.499970 0.636880 -0.595959
O4    O     O_R   0.314790 0.499970 0.363120 -0.568317
O5    O     O_R   0.685210 0.499970 0.636880 -0.633016
O6    O     O_R   0.685210 0.499970 0.363120 -0.547934
N1    N     N_1   0.500000 0.500030 0.073640 0.028819
N2    N     N_1   0.500000 0.500030 0.926360 -0.000954
C2    C     C_R   0.257446 0.488521 0.498086 1.014690
C3    C     C_R   0.743057 0.495667 0.498132 1.003914
Zn1   Zn    Zn3+2 0.500000 0.499990 0.682780 1.030452
Zn2   Zn    Zn3+2 0.500000 0.499990 0.317220 1.120669
O7    O     O_R   0.500000 0.714650 0.636900 -0.637659
O8    O     O_R   0.500000 0.714650 0.363100 -0.616340
C4    C     C_R   0.500975 0.781919 0.500084 0.905053
C5    C     C_1   0.501888 0.065130 0.500137 -0.074824
C6    C     C_3   0.072645 0.315073 0.546101 0.540251
C7    C     C_3   0.075230 0.523069 0.301465 0.521601
C8    C     C_3   0.923013 0.320482 0.557599 0.494735
C9    C     C_3   0.926969 0.528608 0.305374 0.507297
C10   C     C_1   0.501873 0.934706 0.500220 -0.152081
H1    H     H_    0.092098 0.550380 0.746135 0.310577
H2    H     H_    0.113876 0.701502 0.625983 0.155935
H3    H     H_    0.890566 0.592103 0.735177 0.256207
H4    H     H_    0.904886 0.718719 0.570848 0.236586
C11   C     C_3   0.069874 0.589959 0.620817 -0.452898
C12   C     C_3   0.930448 0.603470 0.609054 -0.442838
C13   C     C_3   0.121178 0.477790 0.487602 -0.302148
C14   C     C_3   0.879351 0.481964 0.488553 -0.251735
O9    O     O_3   0.122683 0.294342 0.708661 -0.561099
C15   C     C_3   0.115000 0.146750 0.772951 0.007572
H5    H     H_    0.210007 0.101729 0.786729 0.157759
H6    H     H_    0.060566 0.066867 0.697969 0.134078
H7    H     H_    0.072645 0.151237 0.897572 0.219441
O10   O     O_3   0.127568 0.660503 0.237845 -0.610919
C16   C     C_3   0.144053 0.786987 0.339146 -0.155029
H8    H     H_    0.225593 0.774779 0.420347 0.130789
H9    H     H_    0.058377 0.820631 0.403611 0.223224
H10   H     H_    0.168222 0.882001 0.257189 0.232097
O11   O     O_3   0.892022 0.319549 0.731052 -0.582762
C17   C     C_3   0.799481 0.216613 0.783409 -0.017632
H11   H     H_    0.839397 0.103427 0.801193 0.137953
H12   H     H_    0.718664 0.212755 0.700378 0.145451
H13   H     H_    0.762831 0.252427 0.904225 0.226883
O12   O     O_3   0.884727 0.680251 0.282359 -0.623601
C18   C     C_3   0.898002 0.742237 0.121941 -0.039176
H14   H     H_    0.954268 0.674180 0.035741 0.187067
H15   H     H_    0.941636 0.854690 0.132036 0.181273
H16   H     H_    0.804898 0.759570 0.067771 0.170173
N3    N     N_R   0.123784 0.195601 0.437892 0.175227
O13   O     O_R   0.063291 0.136786 0.315349 -0.349937
O14   O     O_R   0.236945 0.151303 0.460447 -0.455742
N4    N     N_R   0.114775 0.415004 0.170299 0.249196
O15   O     O_R   0.210587 0.328321 0.182910 -0.316523
O16   O     O_R   0.081454 0.444392 0.019862 -0.343571
N5    N     N_R   0.862718 0.190776 0.471289 0.194050
O17   O     O_R   0.759469 0.207008 0.391557 -0.412850
O18   O     O_R   0.892555 0.054010 0.510115 -0.436163
N6    N     N_R   0.868955 0.428880 0.177382 0.225262
O19   O     O_R   0.900404 0.289431 0.160293 -0.334982
O20   O     O_R   0.784765 0.478932 0.077119 -0.399384

loop_
_geom_bond_atom_site_label_1
_geom_bond_atom_site_label_2
_geom_bond_distance
_ccdc_geom_bond_type
N3    O14   1.299657 A    
C15   H7    1.109234 S    
N4    O16   1.300382 A    
N1    Zn2   1.975685 S    
H1    C11   1.103820 S    
O3    Zn1   2.035152 S    
C9    C14   1.625049 S    
O4    Zn2   2.033429 S    
C5    C10   1.163430 T    
H2    C11   1.101141 S    
C18   H16   1.109777 S    
C15   H5    1.109636 S    
C12   C14   1.558183 S    
C8    O11   1.445399 S    
O4    C2    1.260428 A    
C18   H15   1.109007 S    
C6    C13   1.612199 S    
C8    C14   1.619083 S    
H3    C12   1.113548 S    
O6    C3    1.262713 A    
C2    C13   1.476693 S    
N5    O17   1.299060 A    
C16   H8    1.106724 S    
O1    Zn1   1.950184 S    
C17   H12   1.103939 S    
C9    N6    1.502113 S    
O8    C4    1.262117 A    
C7    N4    1.497666 S    
O10   C16   1.405687 S    
C7    C9    1.602216 S    
Zn1   O7    1.951150 S    
C6    N3    1.487471 S    
C1    C5    1.364185 S    
C16   H10   1.107554 S    
O2    C1    1.262792 A    
C7    O10   1.442776 S    
Zn2   O8    1.950195 S    
O5    Zn1   2.033430 S    
C16   H9    1.104368 S    
N2    Zn1   1.975684 S    
O7    C4    1.262252 A    
N5    O18   1.302705 A    
C11   C13   1.573472 S    
C17   H11   1.109646 S    
O3    C2    1.289769 A    
N3    O13   1.299209 A    
C7    C13   1.641935 S    
C18   H14   1.107855 S    
O6    Zn2   2.035153 S    
C6    C8    1.619197 S    
N6    O20   1.302267 A    
C9    O12   1.442334 S    
O11   C17   1.418208 S    
O5    C3    1.286466 A    
O2    Zn2   1.951141 S    
N4    O15   1.299210 A    
N1    N2    1.194592 T    
C4    C10   1.362898 S    
C6    O9    1.438655 S    
O1    C1    1.261135 A    
C8    N5    1.498238 S    
O12   C18   1.421081 S    
H4    C12   1.110571 S    
O9    C15   1.418664 S    
C3    C14   1.479295 S    
N6    O19   1.298349 A    
C11   C12   1.514250 S    
C17   H13   1.103477 S    
C15   H6    1.104196 S    
