data_mof_unit_47578.cif
_audit_creation_date              2012-12-10T20:02:16-0500
_audit_creation_method            fapswitch 2.2
_symmetry_space_group_name_H-M    P1
_symmetry_Int_Tables_number       1
_space_group_crystal_system       triclinic
_cell_length_a                    18.341182
_cell_length_b                    18.387663
_cell_length_c                    18.404892
_cell_angle_alpha                 120.229513
_cell_angle_beta                  120.126412
_cell_angle_gamma                 89.81803
_cell_volume                      4372.37705223

loop_
_atom_site_label
_atom_site_type_symbol
_atom_type_description
_atom_site_fract_x
_atom_site_fract_y
_atom_site_fract_z
_atom_type_partial_charge
C1    C     C_R   0.137484 0.140426 0.780180 0.494612
C2    C     C_R   0.708143 0.791566 0.449122 0.003873
C3    C     C_R   0.853050 0.751628 0.737918 -0.059725
C4    C     C_R   0.859962 0.860417 0.220018 0.506715
C5    C     C_R   0.913159 0.743720 0.816963 -0.112508
C6    C     C_R   0.965755 0.690092 0.803609 -0.080839
C7    C     C_R   0.959071 0.645031 0.711554 -0.056097
C8    C     C_R   0.898871 0.652445 0.632114 -0.072177
C9    C     C_R   0.845173 0.705614 0.644635 0.064396
C10   C     C_R   0.711414 0.773979 0.052885 -0.038370
C11   C     C_R   0.804015 0.809479 0.108505 0.021679
C12   C     C_R   0.596069 0.779309 0.288505 -0.060831
C13   C     C_R   0.841426 0.796892 0.054157 -0.155649
C14   C     C_R   0.787495 0.742088 0.946345 -0.159424
C15   C     C_R   0.695740 0.699117 0.891597 0.070004
C16   C     C_R   0.859855 0.139785 0.500421 0.505158
C17   C     C_R   0.658698 0.718941 0.946925 0.005461
C18   C     C_3   0.594172 0.663408 0.942289 -0.116503
C19   C     C_3   0.653381 0.725697 0.061045 -0.102945
C20   C     C_R   0.232327 0.785043 0.572139 -0.048151
C21   C     C_R   0.189770 0.798133 0.494169 -0.040446
C22   C     C_R   0.191619 0.746545 0.407559 -0.134965
C23   C     C_R   0.550558 0.817485 0.236503 0.020698
C24   C     C_R   0.242966 0.689731 0.404580 0.241041
C25   C     C_R   0.294898 0.686583 0.490919 -0.000684
C26   C     C_R   0.282563 0.729031 0.569581 0.020513
C27   C     C_3   0.350869 0.787357 0.683756 0.142758
C28   C     C_R   0.139849 0.859830 0.499801 0.521589
C29   C     C_3   0.296729 0.850842 0.686920 -0.066179
C30   C     C_R   0.221119 0.159357 0.946347 -0.015236
C31   C     C_R   0.183241 0.196908 0.892044 -0.032022
C32   C     C_R   0.190217 0.288414 0.948652 -0.029231
C33   C     C_R   0.247907 0.341019 0.056872 -0.118503
C34   C     C_R   0.569727 0.910264 0.292926 -0.177280
C35   C     C_R   0.295862 0.303845 0.108815 0.002358
C36   C     C_R   0.276379 0.211707 0.052683 -0.044597
C37   C     C_3   0.338361 0.158534 0.057333 -0.209802
C38   C     C_3   0.278750 0.101063 0.939934 0.189148
C39   C     C_R   0.188765 0.275340 0.518351 -0.012474
C40   C     C_R   0.142283 0.139801 0.502044 0.489066
C41   C     C_R   0.199100 0.194099 0.501210 0.009058
C42   C     C_R   0.258128 0.163043 0.472869 -0.007170
C43   C     C_R   0.307298 0.217146 0.468283 -0.100386
C44   C     C_R   0.303426 0.303017 0.497832 0.030670
C45   C     C_R   0.657591 0.735161 0.448891 -0.159777
C46   C     C_R   0.241554 0.329647 0.519608 0.012155
C47   C     C_3   0.247960 0.413124 0.605866 -0.099163
C48   C     C_3   0.188236 0.352663 0.603110 -0.220446
C49   C     C_R   0.829880 0.278246 0.588321 -0.048325
C50   C     C_R   0.802164 0.193545 0.500760 -0.027548
C51   C     C_R   0.715056 0.158722 0.411604 -0.139517
C52   C     C_R   0.859325 0.861589 0.501042 0.546472
C53   C     C_R   0.660517 0.212186 0.405466 -0.020769
C54   C     C_R   0.693558 0.301664 0.493128 0.004587
C55   C     C_R   0.777111 0.331573 0.583260 -0.033707
C56   C     C_R   0.698498 0.701092 0.506923 0.016915
C57   C     C_3   0.855870 0.414956 0.653568 0.195873
C58   C     C_3   0.915442 0.356517 0.662725 0.174069
C59   C     C_R   0.358524 0.638534 0.498434 0.503556
C60   C     C_R   0.639577 0.359635 0.496469 0.506040
C61   C     C_R   0.640002 0.639853 0.779909 0.550597
C62   C     C_R   0.359497 0.359853 0.220006 0.499584
C63   C     C_R   0.360095 0.359952 0.499977 0.518917
C64   C     C_R   0.632320 0.964123 0.399881 -0.076329
C65   C     C_R   0.640749 0.641293 0.501735 0.499039
C66   C     C_R   0.676621 0.926084 0.452215 0.317971
C67   C     C_R   0.793090 0.725720 0.568446 -0.034887
C68   C     C_R   0.660502 0.833223 0.395791 0.036751
C69   C     C_2   0.587726 0.566404 0.896522 0.255310
C70   C     C_2   0.701769 0.684068 0.116315 0.255592
C71   C     C_3   0.177762 0.562188 0.244936 -0.087793
C72   C     C_3   0.420821 0.792721 0.831689 -0.110204
C73   C     C_2   0.346194 0.937812 0.718409 0.196616
C74   C     C_2   0.138780 0.331090 0.898789 0.254984
C75   C     C_3   0.695692 0.997908 0.605957 -0.136557
C76   C     C_3   0.166694 0.990112 0.895131 -0.080759
C77   C     C_2   0.276935 0.079702 0.458049 0.254038
C78   C     C_R   0.842763 0.777080 0.563092 -0.159385
C79   C     C_2   0.340554 0.464482 0.705193 0.274237
C80   C     C_2   0.574749 0.175783 0.303892 0.241033
C81   C     C_3   0.864943 0.409864 0.525256 -0.133284
C82   C     C_3   0.928750 0.352210 0.796586 -0.110040
C83   C     C_2   0.483135 0.761580 0.123479 0.227835
C84   C     C_R   0.801890 0.809459 0.503590 0.059585
H1    H     H_    0.535997 0.941076 0.254208 0.153825
H2    H     H_    0.646396 0.035656 0.442475 0.139265
H3    H     H_    0.418720 0.812119 0.704709 0.083390
H4    H     H_    0.266119 0.857998 0.728265 0.207279
H5    H     H_    0.256322 0.411412 0.100649 0.180850
H6    H     H_    0.406488 0.197496 0.091229 0.110146
H7    H     H_    0.336967 0.123658 0.091646 0.177329
H8    H     H_    0.312983 0.109173 0.907724 0.194402
H9    H     H_    0.354032 0.195097 0.449372 0.183357
H10   H     H_    0.215190 0.455208 0.581538 0.098237
H11   H     H_    0.220372 0.353298 0.673342 0.199190
H12   H     H_    0.012639 0.684521 0.865148 0.129216
H13   H     H_    0.120597 0.358989 0.575174 0.110707
H14   H     H_    0.692033 0.091843 0.343889 0.177405
H15   H     H_    0.582208 0.707739 0.245750 0.192128
H16   H     H_    0.862401 0.462672 0.726346 0.158295
H17   H     H_    0.954438 0.350365 0.630682 0.146050
H18   H     H_    0.585695 0.720163 0.405281 0.148492
H19   H     H_    0.914880 0.793632 0.608403 0.137557
H20   H     H_    0.814646 0.795560 0.750394 0.098276
H21   H     H_    0.920774 0.781031 0.889629 0.096831
H22   H     H_    0.551980 0.527712 0.904915 0.174450
H23   H     H_    0.001037 0.604812 0.702024 0.131983
H24   H     H_    0.741744 0.645447 0.096504 0.120080
H25   H     H_    0.182746 0.520247 0.273541 0.101244
H26   H     H_    0.182353 0.525151 0.178494 0.161429
H27   H     H_    0.111521 0.572098 0.216394 0.105959
H28   H     H_    0.425385 0.863787 0.876234 0.141482
H29   H     H_    0.483607 0.788292 0.836902 0.119019
H30   H     H_    0.413319 0.762379 0.867619 0.139378
H31   H     H_    0.376219 0.938127 0.680507 0.102314
H32   H     H_    0.076041 0.291532 0.823161 0.165519
H33   H     H_    0.657307 0.935101 0.583918 0.121513
H34   H     H_    0.895696 0.618725 0.561972 0.099314
H35   H     H_    0.650924 0.036268 0.588066 0.126848
H36   H     H_    0.746585 0.039359 0.690677 0.140935
H37   H     H_    0.107867 0.997900 0.841333 0.144488
H38   H     H_    0.182822 0.032003 0.974065 0.111684
H39   H     H_    0.147967 0.919385 0.867583 0.138420
H40   H     H_    0.263745 0.050502 0.490556 0.138870
H41   H     H_    0.368174 0.535871 0.745439 0.118493
H42   H     H_    0.544657 0.219911 0.284883 0.129159
H43   H     H_    0.827538 0.337234 0.473489 0.106428
H44   H     H_    0.936761 0.422008 0.555941 0.104108
H45   H     H_    0.912474 0.826654 0.094502 0.147845
H46   H     H_    0.837674 0.435597 0.477270 0.143021
H47   H     H_    0.908660 0.278451 0.754921 0.119509
H48   H     H_    0.870231 0.374841 0.786254 0.107188
H49   H     H_    0.976429 0.382150 0.880028 0.152647
H50   H     H_    0.448836 0.792459 0.084861 0.103256
H51   H     H_    0.818033 0.730908 0.906129 0.133771
H52   H     H_    0.527358 0.671321 0.908134 0.100573
H53   H     H_    0.619763 0.768399 0.092827 0.155622
H54   H     H_    0.155587 0.751949 0.343447 0.163470
O1    O     O_3   0.000000 0.000000 0.500000 -0.450862
O2    O     O_R   0.384160 0.323450 0.268320 -0.548071
O3    O     O_R   0.384130 0.444860 0.560610 -0.529723
O4    O     O_R   0.115780 0.055050 0.731580 -0.516586
O5    O     O_R   0.555060 0.615780 0.439210 -0.543097
O6    O     O_R   0.384140 0.323430 0.439180 -0.547287
O7    O     O_R   0.676490 0.615760 0.560640 -0.535087
O8    O     O_R   0.676470 0.615740 0.731500 -0.549709
O9    O     O_R   0.384180 0.444900 0.268330 -0.540251
O10   O     O_R   0.384150 0.615750 0.560620 -0.536378
O11   O     O_R   0.555030 0.323430 0.439190 -0.560853
O12   O     O_R   0.823480 0.055090 0.439280 -0.544370
O13   O     O_R   0.823490 0.884220 0.268410 -0.526813
O14   O     O_R   0.944920 0.176520 0.560720 -0.545620
O15   O     O_R   0.115810 0.884200 0.439290 -0.552025
O16   O     O_R   0.115820 0.176530 0.560730 -0.536249
O17   O     O_R   0.944890 0.884180 0.560700 -0.565174
O18   O     O_R   0.115830 0.055100 0.439300 -0.558773
O19   O     O_R   0.823460 0.884190 0.439270 -0.501992
O20   O     O_2   0.622324 0.530911 0.851712 -0.497877
O21   O     O_2   0.697085 0.694355 0.184505 -0.498405
O22   O     O_3   0.248344 0.644512 0.321526 -0.521393
O23   O     O_R   0.115790 0.884180 0.560710 -0.516105
O24   O     O_3   0.346160 0.744757 0.727960 -0.543423
O25   O     O_2   0.352999 0.008544 0.786714 -0.507597
O26   O     O_2   0.164996 0.411817 0.943019 -0.468752
O27   O     O_3   0.739989 0.980335 0.557743 -0.577085
O28   O     O_3   0.240765 0.009084 0.894194 -0.532251
O29   O     O_2   0.309505 0.043407 0.410837 -0.503416
O30   O     O_2   0.385034 0.426879 0.740938 -0.499455
O31   O     O_2   0.537367 0.095308 0.238786 -0.532358
O32   O     O_3   0.855770 0.458256 0.607325 -0.554285
O33   O     O_3   0.972438 0.380633 0.765497 -0.546636
O34   O     O_R   0.115790 0.176500 0.731590 -0.553957
O35   O     O_2   0.465256 0.680641 0.072036 -0.486182
O36   O     O_R   0.944940 0.884220 0.268420 -0.549334
O37   O     O_3   0.499960 0.499960 0.499910 -0.456773
O38   O     O_R   0.384170 0.615770 0.439200 -0.495083
O39   O     O_R   0.676480 0.444870 0.560630 -0.495449
O40   O     O_R   0.555020 0.615730 0.731490 -0.528432
Zn1   Zn    Zn3+2 0.869870 0.956630 0.413250 0.975879
Zn2   Zn    Zn3+2 0.043380 0.130130 0.586750 0.947160
Zn3   Zn    Zn3+2 0.043390 0.956630 0.413260 0.939580
Zn4   Zn    Zn3+2 0.043360 0.956610 0.586740 0.968283
Zn5   Zn    Zn3+2 0.630090 0.543330 0.586660 0.966830
Zn6   Zn    Zn3+2 0.456570 0.543320 0.586650 0.959968
Zn7   Zn    Zn3+2 0.456580 0.369830 0.413160 0.940715
Zn8   Zn    Zn3+2 0.456590 0.543350 0.413170 0.952643

loop_
_geom_bond_atom_site_label_1
_geom_bond_atom_site_label_2
_ccdc_geom_bond_type
C3    H20   S    
C66   C68   A    
C72   H28   S    
O11   Zn7   S    
C48   H11   S    
C72   H30   S    
C27   C29   S    
C41   C42   A    
C54   C55   A    
C2    C84   A    
C35   C36   A    
C75   H33   S    
C47   C79   S    
C43   C44   A    
C81   H46   S    
O17   Zn4   S    
C8    H34   S    
C7    C8    A    
C39   C41   A    
C5    H21   S    
C53   C54   A    
C52   O17   A    
C48   H13   S    
C12   C68   A    
C12   C23   A    
C26   C27   S    
C23   C83   S    
C37   H6    S    
C3    C9    A    
O2    Zn7   S    
C36   C37   S    
C16   C50   S    
C18   C19   S    
C2    C68   S    
C27   O24   S    
C32   C74   S    
C30   C31   A    
C65   O5    A    
C29   C73   S    
C14   H51   S    
C10   C17   A    
C56   C65   S    
C71   H26   S    
C38   H8    S    
C1    C31   S    
C30   C38   S    
C38   O28   S    
C70   O21   D    
O19   Zn1   S    
O23   Zn4   S    
C52   C84   S    
C29   H4    S    
C1    O4    A    
C43   H9    S    
C46   C47   S    
C47   C48   S    
C45   C56   A    
C8    C9    A    
C12   H15   S    
C71   H27   S    
C63   O6    A    
C18   H52   S    
O1    Zn2   S    
C79   O30   D    
C80   H42   S    
O1    Zn3   S    
C19   H53   S    
O6    Zn7   S    
C59   O10   A    
O34   Zn2   S    
C51   H14   S    
C79   H41   S    
C61   O40   A    
O9    Zn8   S    
C4    O36   A    
C13   C14   A    
C81   H43   S    
C40   O16   A    
C67   C78   A    
C80   O31   D    
O36   Zn3   S    
C64   H2    S    
C44   C46   A    
C28   O23   A    
C50   C51   A    
C20   C29   S    
C44   C63   S    
C15   C61   S    
C37   H7    S    
C53   C80   S    
C75   H35   S    
C24   C25   A    
C16   O14   A    
C59   O38   A    
C45   H18   S    
C54   C60   S    
C25   C26   A    
C49   C55   A    
C57   H16   S    
C72   H29   S    
C49   C58   S    
C51   C53   A    
C34   H1    S    
C64   C66   A    
O14   Zn2   S    
C27   H3    S    
C61   O8    A    
C9    C67   S    
C37   C38   S    
C71   O22   S    
C33   H5    S    
O37   Zn7   S    
O13   Zn1   S    
C31   C32   A    
C83   H50   S    
C10   C19   S    
O10   Zn6   S    
C23   C34   A    
C74   H32   S    
O12   Zn1   S    
C34   C64   A    
C17   C18   S    
C63   O3    A    
C75   O27   S    
C58   H17   S    
C81   O32   S    
C4    C11   S    
C76   O28   S    
O1    Zn4   S    
C39   C46   A    
O8    Zn5   S    
C40   C41   S    
O4    Zn4   S    
C21   C28   S    
O15   Zn3   S    
C6    H12   S    
C62   O9    A    
C83   O35   D    
C81   H44   S    
C28   O15   A    
O5    Zn8   S    
C7    H23   S    
C2    C45   A    
O16   Zn2   S    
C42   C43   A    
C76   H37   S    
C82   H48   S    
O37   Zn5   S    
C57   O32   S    
C52   O19   A    
C15   C17   A    
C4    O13   A    
C22   H54   S    
C82   O33   S    
C13   H45   S    
C66   O27   S    
C78   H19   S    
C76   H39   S    
C75   H36   S    
C3    C5    A    
C69   H22   S    
C24   O22   S    
O38   Zn8   S    
C6    C7    A    
C77   O29   D    
C56   C67   A    
O7    Zn5   S    
C1    O34   A    
C73   H31   S    
C30   C36   A    
O3    Zn6   S    
C76   H38   S    
C32   C33   A    
C82   H49   S    
C55   C57   S    
C58   O33   S    
C60   O39   A    
C73   O25   D    
C77   H40   S    
O39   Zn5   S    
O37   Zn8   S    
C74   O26   D    
C11   C13   A    
C57   C58   S    
C5    C6    A    
C20   C26   A    
C18   C69   S    
C71   H25   S    
C33   C35   A    
C47   H10   S    
C69   O20   D    
C35   C62   S    
C22   C24   A    
C60   O11   A    
O1    Zn1   S    
C10   C11   A    
C78   C84   A    
C20   C21   A    
C42   C77   S    
C49   C50   A    
C72   O24   S    
C14   C15   A    
C40   O18   A    
C19   C70   S    
C16   O12   A    
C25   C59   S    
C62   O2    A    
C82   H47   S    
C21   C22   A    
C65   O7    A    
C70   H24   S    
O40   Zn6   S    
O18   Zn3   S    
C39   C48   S    
O37   Zn6   S    
