data_mof_unit_59148.cif
_audit_creation_date              2012-12-10T18:06:44-0500
_audit_creation_method            fapswitch 2.2
_symmetry_space_group_name_H-M    P1
_symmetry_Int_Tables_number       1
_space_group_crystal_system       triclinic
_cell_length_a                    12.61667
_cell_length_b                    13.158401
_cell_length_c                    15.466229
_cell_angle_alpha                 83.542564
_cell_angle_beta                  98.750122
_cell_angle_gamma                 96.550295
_cell_volume                      2509.32341428

loop_
_atom_site_label
_atom_site_type_symbol
_atom_type_description
_atom_site_fract_x
_atom_site_fract_y
_atom_site_fract_z
_atom_type_partial_charge
C1    C     C_R   0.442852 0.308567 0.508590 0.847109
C2    C     C_R   0.686897 0.543331 0.928807 0.122748
C3    C     C_R   0.576642 0.550762 0.895242 0.014847
C4    C     C_R   0.436267 0.515328 0.335923 0.858496
C5    C     C_R   0.758730 0.519381 0.874121 0.445692
C6    C     C_R   0.718852 0.499503 0.787037 -0.321759
C7    C     C_R   0.539097 0.524873 0.810424 -0.272724
C8    C     C_R   0.627777 0.939748 0.361657 -0.197864
C9    C     C_R   0.581240 0.800436 0.468669 -0.044078
C10   C     C_R   0.344818 0.161051 0.584384 -0.182673
C11   C     C_R   0.329925 0.056162 0.608368 -0.145484
C12   C     C_R   0.459554 0.572716 0.096647 0.086432
C13   C     C_R   0.383786 0.989265 0.571242 -0.182395
C14   C     C_R   0.449731 0.026584 0.505648 0.089733
C15   C     C_R   0.451214 0.130879 0.472799 0.066831
C16   C     C_R   0.555744 0.691402 0.489038 0.848394
C17   C     C_R   0.514201 0.964270 0.471347 0.082658
C18   C     C_R   0.565902 0.002438 0.397055 0.164382
C19   C     C_R   0.552710 0.101530 0.357834 -0.231916
C20   C     C_R   0.495775 0.165102 0.395245 -0.162343
C21   C     C_R   0.529171 0.864996 0.509189 -0.248331
C22   C     C_R   0.634083 0.838064 0.396652 -0.190638
C23   C     C_R   0.353131 0.594105 0.061380 0.173225
C24   C     C_R   0.408430 0.198981 0.518735 -0.115947
C25   C     C_R   0.138421 0.638468 0.625381 -0.310830
C26   C     C_R   0.758368 0.385004 0.391692 0.621668
C27   C     C_R   0.855109 0.359808 0.370374 -0.354316
C28   C     C_R   0.565436 0.489965 0.663769 0.882804
C29   C     C_R   0.951811 0.401820 0.413097 -0.248844
C30   C     C_R   0.953117 0.470849 0.476959 0.017417
C31   C     C_R   0.853395 0.493251 0.497453 0.142878
C32   C     C_R   0.049141 0.519471 0.520028 0.009814
C33   C     C_R   0.044082 0.589202 0.582862 0.193706
C34   C     C_R   0.538490 0.573990 0.040533 0.075916
C35   C     C_R   0.945017 0.609705 0.601954 -0.286528
C36   C     C_R   0.850976 0.562739 0.559290 -0.193694
C37   C     C_R   0.150903 0.502509 0.502671 -0.056305
C38   C     C_R   0.236543 0.618448 0.604951 0.010172
C39   C     C_R   0.403921 0.539435 0.241672 -0.063444
C40   C     C_R   0.608853 0.501415 0.755740 -0.097371
C41   C     C_R   0.274851 0.592617 0.117098 -0.194443
C42   C     C_R   0.300325 0.565922 0.207112 -0.191726
C43   C     C_R   0.481944 0.542629 0.186294 -0.257328
C44   C     C_R   0.504721 0.576669 0.949225 0.099238
C45   C     C_R   0.399794 0.603588 0.915201 -0.229391
C46   C     C_R   0.325875 0.614106 0.970862 -0.235313
C47   C     C_R   0.649390 0.570842 0.072533 -0.270858
C48   C     C_R   0.722636 0.558110 0.016949 -0.176390
H1    H     H_    0.245743 0.633360 0.942767 0.152836
H2    H     H_    0.310847 0.655404 0.637076 0.124737
H3    H     H_    0.454009 0.519863 0.786527 0.173210
H4    H     H_    0.940084 0.663089 0.649411 0.157063
H5    H     H_    0.136217 0.691777 0.673500 0.142756
H6    H     H_    0.163627 0.451085 0.456732 0.127117
H7    H     H_    0.023526 0.379571 0.393601 0.158939
H8    H     H_    0.855673 0.308455 0.320432 0.151937
H9    H     H_    0.777421 0.583495 0.575073 0.213403
H10   H     H_    0.773544 0.482860 0.744034 0.163198
H11   H     H_    0.806686 0.555566 0.044368 0.198054
H12   H     H_    0.673940 0.787528 0.364276 0.156565
H13   H     H_    0.193722 0.610482 0.090884 0.147137
H14   H     H_    0.239094 0.565265 0.249285 0.161710
H15   H     H_    0.559482 0.517595 0.213647 0.180516
H16   H     H_    0.373696 0.618961 0.845601 0.142918
H17   H     H_    0.682002 0.580550 0.140127 0.153368
H18   H     H_    0.905132 0.498016 0.860045 0.333344
H19   H     H_    0.673736 0.308509 0.300223 0.296796
H20   H     H_    0.587411 0.130183 0.298805 0.143969
H21   H     H_    0.666873 0.967893 0.304668 0.138507
H22   H     H_    0.496297 0.833478 0.568066 0.136722
H23   H     H_    0.309832 0.212748 0.619345 0.159014
H24   H     H_    0.370143 0.908894 0.593635 0.127873
H25   H     H_    0.280178 0.026947 0.658628 0.142630
H26   H     H_    0.485136 0.241039 0.362503 0.192698
N1    N     N_R   0.239390 0.551900 0.544730 -0.102226
N2    N     N_R   0.759950 0.448600 0.455730 -0.143042
O1    O     O_R   0.374950 0.371210 0.521360 -0.618673
O2    O     O_3   0.660936 0.347984 0.347981 -0.763321
O3    O     O_R   0.542050 0.338030 0.492790 -0.557811
O4    O     O_R   0.368720 0.526070 0.390200 -0.620625
O5    O     O_R   0.535820 0.492890 0.361630 -0.567284
O6    O     O_R   0.457950 0.661970 0.507210 -0.608766
O7    O     O_R   0.625050 0.628790 0.478640 -0.642582
O8    O     O_R   0.464180 0.507110 0.638370 -0.622222
O9    O     O_R   0.631280 0.473930 0.609800 -0.635152
O10   O     O_3   0.866582 0.515533 0.906843 -0.795020
Zn1   Zn    Zn3+2 0.388420 0.522150 0.519080 0.937435
Zn2   Zn    Zn3+2 0.611580 0.477850 0.480920 0.971044

loop_
_geom_bond_atom_site_label_1
_geom_bond_atom_site_label_2
_ccdc_geom_bond_type
C28   O8    A    
C1    O1    A    
C41   C42   A    
C6    H10   S    
C19   C20   A    
O8    Zn1   S    
C41   H13   S    
C43   H15   S    
C45   C46   A    
C46   H1    S    
C26   C27   A    
C26   O2    S    
C9    C16   S    
C25   H5    S    
C4    O4    A    
O4    Zn1   S    
C3    C7    A    
C22   H12   S    
C30   C31   A    
C9    C22   A    
C27   C29   A    
C28   C40   S    
O6    Zn1   S    
C18   C19   A    
C4    O5    A    
C35   C36   A    
C26   N2    A    
C7    C40   A    
C42   H14   S    
C10   H23   S    
O7    Zn2   S    
C37   N1    A    
C23   C46   A    
C13   C14   A    
C14   C17   A    
H19   O2    S    
O3    Zn2   S    
C39   C42   A    
C38   N1    A    
C15   C20   A    
C3    C44   A    
C34   C44   A    
C36   H9    S    
C11   H25   S    
C27   H8    S    
C39   C43   A    
C29   H7    S    
C2    C48   A    
C16   O7    A    
C17   C21   A    
C29   C30   A    
C25   C38   A    
C8    C22   A    
C47   C48   A    
C12   C23   A    
C4    C39   S    
C16   O6    A    
C17   C18   A    
C8    H21   S    
C20   H26   S    
C19   H20   S    
C32   C37   A    
C37   H6    S    
N1    Zn1   S    
C15   C24   A    
C1    O3    A    
C6    C40   A    
C2    C5    A    
C5    O10   S    
C12   C34   A    
C28   O9    A    
C44   C45   A    
C48   H11   S    
O9    Zn2   S    
N2    Zn2   S    
C31   C36   A    
H18   O10   S    
C38   H2    S    
C13   H24   S    
C12   C43   A    
C45   H16   S    
C23   C41   A    
C21   H22   S    
C10   C24   A    
C32   C33   A    
C2    C3    A    
C7    H3    S    
C30   C32   A    
C11   C13   A    
C9    C21   A    
C31   N2    A    
C5    C6    A    
C33   C35   A    
C8    C18   A    
O5    Zn2   S    
C10   C11   A    
O1    Zn1   S    
C1    C24   S    
C35   H4    S    
C14   C15   A    
C34   C47   A    
C47   H17   S    
C25   C33   A    
