data_mof_unit_24257.cif
_audit_creation_date              2012-12-10T17:25:31-0500
_audit_creation_method            fapswitch 2.2
_symmetry_space_group_name_H-M    P1
_symmetry_Int_Tables_number       1
_space_group_crystal_system       triclinic
_cell_length_a                    10.10001
_cell_length_b                    10.482907
_cell_length_c                    23.446711
_cell_angle_alpha                 89.937796
_cell_angle_beta                  81.613303
_cell_angle_gamma                 95.516995
_cell_volume                      2444.26698655

loop_
_atom_site_label
_atom_site_type_symbol
_atom_type_description
_atom_site_fract_x
_atom_site_fract_y
_atom_site_fract_z
_atom_type_partial_charge
C1    C     C_R   0.556631 0.735511 0.495148 0.922660
C2    C     C_R   0.443287 0.264467 0.502722 0.919910
C3    C     C_R   0.627750 0.484099 0.753339 0.213828
C4    C     C_R   0.373179 0.513994 0.246340 0.215007
C5    C     C_R   0.623779 0.484273 0.694083 -0.238504
C6    C     C_R   0.377342 0.517098 0.305585 -0.240334
C7    C     C_R   0.503688 0.500778 0.672688 -0.082871
C8    C     C_R   0.496053 0.496763 0.327329 -0.076951
C9    C     C_R   0.386600 0.517593 0.710865 -0.220872
C10   C     C_R   0.611351 0.472421 0.289542 -0.219587
C11   C     C_R   0.389390 0.517396 0.769760 -0.132688
C12   C     C_R   0.608147 0.468705 0.230713 -0.135374
C13   C     C_R   0.508766 0.500505 0.791065 0.306481
C14   C     C_R   0.490206 0.489358 0.209041 0.308140
C15   C     C_2   0.588427 0.873385 0.484510 -0.004520
C16   C     C_2   0.410970 0.126639 0.496020 -0.005515
C17   C     C_2   0.500055 0.930960 0.457852 -0.235672
C18   C     C_2   0.498661 0.069122 0.457963 -0.238088
C19   C     C_2   0.927169 0.509681 0.505351 -0.137740
C20   C     C_2   0.072444 0.488644 0.495372 -0.140691
C21   C     C_R   0.500948 0.500227 0.610652 0.882086
C22   C     C_R   0.499019 0.499509 0.389345 0.876072
C23   C     C_R   0.458774 0.377233 0.122031 0.476268
C24   C     C_R   0.541007 0.611869 0.878119 0.499189
C25   C     C_R   0.530562 0.601254 0.118439 0.514428
C26   C     C_R   0.470784 0.387565 0.881463 0.493472
C27   C     C_R   0.535779 0.604634 0.058777 -0.059233
C28   C     C_R   0.466355 0.383840 0.941110 -0.056347
C29   C     C_R   0.498980 0.491731 0.030088 -0.036695
C30   C     C_R   0.503267 0.496634 0.969833 -0.037665
C31   C     C_R   0.457623 0.374690 0.061695 -0.072707
C32   C     C_R   0.544532 0.613691 0.938257 -0.076053
C33   C     C_R   0.578617 0.719037 0.027965 -0.153805
C34   C     C_R   0.424761 0.269123 0.971838 -0.151212
C35   C     C_R   0.587137 0.726189 0.967835 0.136891
C36   C     C_R   0.417098 0.261626 0.031949 0.135087
H1    H     H_    0.606396 0.803122 0.051687 0.208333
H2    H     H_    0.397271 0.185086 0.948033 0.209092
H3    H     H_    0.120192 0.616179 0.553176 0.162241
H4    H     H_    0.880103 0.385129 0.446251 0.159683
H5    H     H_    0.714627 0.470746 0.664810 0.165781
H6    H     H_    0.287582 0.535370 0.334581 0.164861
H7    H     H_    0.292849 0.530575 0.695329 0.168357
H8    H     H_    0.703975 0.456181 0.305342 0.167395
H9    H     H_    0.298565 0.530102 0.799142 0.141991
H10   H     H_    0.697730 0.450533 0.201639 0.143101
H11   H     H_    0.583653 0.123995 0.432310 0.172961
H12   H     H_    0.414917 0.876037 0.443061 0.175039
H13   H     H_    0.108249 0.419494 0.463786 0.163700
H14   H     H_    0.891082 0.577511 0.537512 0.161564
N1    N     N_R   0.492375 0.489339 0.148217 -0.348077
N2    N     N_R   0.507400 0.499915 0.851839 -0.349568
N3    N     N_2   0.842710 0.448880 0.476480 -0.191063
N4    N     N_2   0.157290 0.551120 0.523520 -0.193089
O1    O     O_R   0.431060 0.692470 0.504730 -0.623299
O2    O     O_R   0.568940 0.307530 0.495270 -0.622490
O3    O     O_R   0.651120 0.659650 0.489640 -0.592274
O4    O     O_R   0.348880 0.340350 0.510360 -0.595415
O5    O     O_R   0.389950 0.516450 0.591390 -0.610313
O6    O     O_R   0.610050 0.483550 0.408610 -0.614537
O7    O     O_R   0.610020 0.483630 0.576300 -0.616084
O8    O     O_R   0.389980 0.516370 0.423700 -0.620155
O9    O     O_2   0.427945 0.270096 0.154958 -0.592134
O10   O     O_2   0.568477 0.719812 0.845584 -0.592696
O11   O     O_2   0.564199 0.708817 0.146870 -0.572037
O12   O     O_2   0.438313 0.279892 0.852886 -0.566949
Zn1   Zn    Zn3+2 0.353060 0.521920 0.510080 0.928301
Zn2   Zn    Zn3+2 0.646940 0.478080 0.489920 0.930360
C37   C     C_3   0.643730 0.851663 0.935803 -0.322022
C38   C     C_3   0.705044 0.958860 0.971124 -0.932641
H15   H     H_    0.627232 0.994686 0.003925 0.266096
H16   H     H_    0.787050 0.924766 0.992209 0.271610
H17   H     H_    0.748567 0.040614 0.941969 0.269811
H18   H     H_    0.725891 0.830210 0.901268 0.245341
H19   H     H_    0.562396 0.891036 0.916088 0.250140
C39   C     C_3   0.364324 0.134935 0.063752 -0.320542
C40   C     C_3   0.310028 0.024878 0.027987 -0.935120
H20   H     H_    0.225921 0.053909 0.006779 0.271402
H21   H     H_    0.390800 0.993683 0.995254 0.267166
H22   H     H_    0.271039 0.941403 0.056860 0.269864
H23   H     H_    0.446496 0.099533 0.084320 0.249712
H24   H     H_    0.279428 0.153344 0.097560 0.248215
C41   C     C_3   0.758406 0.464209 0.774977 -0.415092
C42   C     C_3   0.859745 0.582258 0.762934 -0.844004
H25   H     H_    0.884268 0.602271 0.715856 0.249712
H26   H     H_    0.818570 0.667093 0.784652 0.289938
H27   H     H_    0.953895 0.565321 0.779760 0.246578
H28   H     H_    0.742785 0.443021 0.821992 0.211935
H29   H     H_    0.801483 0.379980 0.753397 0.210002
C43   C     C_3   0.243791 0.536738 0.224276 -0.432039
C44   C     C_3   0.217570 0.677592 0.228899 -0.819437
H30   H     H_    0.207273 0.708088 0.274552 0.254162
H31   H     H_    0.301280 0.738566 0.203182 0.292261
H32   H     H_    0.122846 0.691623 0.211940 0.249089
H33   H     H_    0.245671 0.508123 0.178640 0.213489
H34   H     H_    0.158627 0.476854 0.249728 0.205255
C45   C     C_3   0.292350 0.049055 0.532306 -0.412539
C46   C     C_3   0.204822 0.125656 0.575713 -0.842200
H35   H     H_    0.267091 0.180698 0.604370 0.261587
H36   H     H_    0.149201 0.191347 0.553053 0.272742
H37   H     H_    0.129525 0.058628 0.602905 0.242323
H38   H     H_    0.227206 0.000086 0.503018 0.216310
H39   H     H_    0.331641 0.973965 0.556929 0.228708
C47   C     C_3   0.706781 0.950942 0.506027 -0.392814
C48   C     C_3   0.795220 0.873913 0.537854 -0.871891
H40   H     H_    0.733621 0.817423 0.574114 0.257315
H41   H     H_    0.851122 0.809517 0.507709 0.270515
H42   H     H_    0.870261 0.940705 0.555815 0.246512
H43   H     H_    0.771353 0.001173 0.468689 0.215733
H44   H     H_    0.667120 0.025000 0.536013 0.227843

loop_
_geom_bond_atom_site_label_1
_geom_bond_atom_site_label_2
_ccdc_geom_bond_type
C24   N2    A    
C47   H44   S    
C27   C29   A    
C19   C20   S    
O7    Zn2   S    
C42   H27   S    
C18   H11   S    
C25   N1    A    
C45   C46   S    
C43   H33   S    
C40   H20   S    
C27   C33   A    
C48   H41   S    
C20   H13   S    
O8    Zn1   S    
C42   H26   S    
C21   O5    A    
C1    O3    A    
C22   O6    A    
C47   H43   S    
C16   C45   S    
H3    N4    S    
C44   H31   S    
C7    C9    A    
N3    Zn2   S    
C36   C39   S    
O5    Zn1   S    
C14   N1    S    
C8    C22   S    
C17   H12   S    
C38   H15   S    
C1    C15   S    
C15   C47   S    
C2    C16   S    
C21   O7    A    
C45   H38   S    
C3    C13   A    
C19   N3    D    
C23   O9    S    
C41   H28   S    
C28   C34   A    
C24   O10   S    
C20   N4    D    
C47   C48   S    
C4    C43   S    
C40   H21   S    
C41   H29   S    
C48   H42   S    
C9    H7    S    
C38   H16   S    
C10   H8    S    
C26   O12   S    
C32   C35   A    
C25   O11   S    
C39   C40   S    
C4    C6    A    
C39   H24   S    
C44   H30   S    
C5    C7    A    
C6    C8    A    
N4    Zn1   S    
O2    Zn2   S    
C33   H1    S    
C23   C31   A    
C24   C32   A    
C29   C30   A    
C26   N2    A    
C22   O8    A    
C13   N2    S    
C23   N1    A    
C41   C42   S    
C38   H17   S    
C17   C18   S    
C37   H18   S    
C16   C18   D    
C42   H25   S    
C9    C11   A    
O6    Zn2   S    
C45   H39   S    
C10   C12   A    
C12   H10   S    
C12   C14   A    
C46   H35   S    
C46   H36   S    
C3    C41   S    
C11   H9    S    
O3    Zn2   S    
C40   H22   S    
C15   C17   D    
C5    H5    S    
C34   H2    S    
C3    C5    A    
C39   H23   S    
O1    Zn1   S    
C2    O4    A    
C43   H34   S    
C25   C27   A    
C46   H37   S    
C48   H40   S    
C26   C28   A    
C28   C30   A    
C1    O1    A    
C29   C31   A    
C7    C21   S    
C44   H32   S    
C30   C32   A    
C11   C13   A    
C19   H14   S    
C43   C44   S    
C33   C35   A    
C37   H19   S    
C34   C36   A    
C4    C14   A    
C37   C38   S    
O4    Zn1   S    
C35   C37   S    
C8    C10   A    
H4    N3    S    
C6    H6    S    
C31   C36   A    
C2    O2    A    
