data_mof_unit_10064.cif
_audit_creation_date              2012-12-11T14:06:50-0500
_audit_creation_method            fapswitch 2.2
_symmetry_space_group_name_H-M    P1
_symmetry_Int_Tables_number       1
_space_group_crystal_system       triclinic
_cell_length_a                    6.928747
_cell_length_b                    17.284861
_cell_length_c                    24.029287
_cell_angle_alpha                 103.947338
_cell_angle_beta                  90.835917
_cell_angle_gamma                 90.030784
_cell_volume                      2792.63975636

loop_
_atom_site_label
_atom_site_type_symbol
_atom_type_description
_atom_site_fract_x
_atom_site_fract_y
_atom_site_fract_z
_atom_type_partial_charge
O1    O     O_R   0.494290 0.391990 0.999150 -0.538285
O2    O     O_R   0.827170 0.534410 0.082350 -0.543021
O3    O     O_R   0.994360 0.608010 0.000850 -0.536901
C1    C     C_R   0.659824 0.549078 0.106218 0.703926
O4    O     O_R   0.824210 0.388010 0.004470 -0.548146
O5    O     O_R   0.991370 0.460560 0.922410 -0.533545
C2    C     C_R   0.654509 0.354914 0.001569 0.796716
O6    O     O_R   0.497270 0.539440 0.077590 -0.534427
O7    O     O_3   0.659770 0.523970 0.973170 -0.361825
V1    V     V_3+5 0.935840 0.495550 0.004980 1.480800
O8    O     O_R   0.320910 0.465590 0.917650 -0.532337
C3    C     C_R   0.150374 0.452166 0.893679 0.701308
O9    O     O_R   0.323870 0.611990 0.995530 -0.543902
C4    C     C_R   0.154478 0.645142 0.998579 0.786771
V2    V     V_3+5 0.435470 0.504450 0.995020 1.497820
O10   O     O_3   0.161670 0.476030 0.026830 -0.376343
C5    C     C_2   0.142780 0.730384 0.998269 -0.298705
H1    H     H_    0.277036 0.761384 0.994992 0.154833
C6    C     C_2   0.972841 0.769756 0.002129 -0.316880
H2    H     H_    0.838597 0.738777 0.005454 0.149816
C7    C     C_R   0.128135 0.274010 0.624099 0.595674
N1    N     N_R   0.097863 0.353476 0.646098 -0.551008
C8    C     C_R   0.067259 0.404424 0.611273 0.580986
C9    C     C_R   0.062564 0.375694 0.550449 -0.046627
C10   C     C_R   0.090268 0.292973 0.527231 0.008824
C11   C     C_R   0.129143 0.241505 0.564070 -0.124878
C12   C     C_R   0.032683 0.426300 0.512180 -0.113977
C13   C     C_R   0.028087 0.394315 0.452048 -0.093316
C14   C     C_R   0.046888 0.310943 0.428983 -0.036822
C15   C     C_R   0.077741 0.261028 0.467043 -0.059710
C16   C     C_R   0.102485 0.178624 0.444447 -0.150448
C17   C     C_R   0.182792 0.131978 0.479565 0.462577
C18   C     C_R   0.178607 0.160629 0.539507 -0.193724
C19   C     C_R   0.040606 0.274675 0.368934 0.757265
N2    N     N_R   0.023562 0.193516 0.349629 -0.553391
C20   C     C_R   0.046711 0.145790 0.387105 0.705816
O11   O     O_2   0.158680 0.227104 0.660804 -0.515603
O12   O     O_2   0.039458 0.482259 0.635876 -0.497097
O13   O     O_2   0.055293 0.319279 0.330307 -0.454046
O14   O     O_2   0.009580 0.066972 0.369430 -0.432211
C21   C     C_R   0.140850 0.101480 0.262289 -0.084735
H3    H     H_    0.260944 0.088669 0.287918 0.214825
C22   C     C_R   0.127993 0.062290 0.204075 0.361123
C23   C     C_R   0.976938 0.081882 0.169563 -0.252613
C24   C     C_R   0.834607 0.135865 0.196241 -0.237172
H4    H     H_    0.716573 0.150406 0.170557 0.200480
C25   C     C_R   0.842054 0.171804 0.255431 0.435902
C26   C     C_R   0.001518 0.156584 0.288755 0.157006
C27   C     C_R   0.259265 0.429874 0.734541 -0.111147
H5    H     H_    0.369570 0.447205 0.708306 0.139785
C28   C     C_R   0.276151 0.452575 0.794552 -0.091525
C29   C     C_R   0.135041 0.428029 0.829378 -0.135557
C30   C     C_R   0.975948 0.381625 0.801340 -0.079634
C31   C     C_R   0.961649 0.360474 0.741347 -0.109721
H6    H     H_    0.841938 0.323884 0.720323 0.136895
C32   C     C_R   0.103326 0.383564 0.707702 0.357364
C33   C     C_R   0.573799 0.858849 0.614941 0.646401
N3    N     N_R   0.518561 0.810497 0.649497 -0.571099
C34   C     C_R   0.487463 0.730598 0.627069 0.618061
C35   C     C_R   0.512229 0.696678 0.567919 -0.001417
C36   C     C_R   0.565652 0.745831 0.531695 -0.009793
C37   C     C_R   0.597787 0.827528 0.555547 -0.107712
C38   C     C_R   0.488455 0.614682 0.544700 -0.132867
C39   C     C_R   0.513861 0.581112 0.486128 -0.078706
C40   C     C_R   0.557783 0.630549 0.448281 -0.044212
C41   C     C_R   0.587450 0.713399 0.471815 -0.050879
C42   C     C_R   0.641027 0.763836 0.435854 -0.173513
C43   C     C_R   0.688776 0.845158 0.461464 0.411546
C44   C     C_R   0.659865 0.875938 0.520255 -0.144544
C45   C     C_R   0.575163 0.600643 0.388004 0.604435
N4    N     N_R   0.616615 0.650777 0.353449 -0.567790
C46   C     C_R   0.643149 0.730782 0.375857 0.657253
O15   O     O_2   0.606612 0.937044 0.638039 -0.489379
O16   O     O_2   0.432845 0.684060 0.661811 -0.494682
H7    H     H_    0.452783 0.575870 0.572478 0.172173
O17   O     O_2   0.549974 0.522361 0.363816 -0.475738
O18   O     O_2   0.663221 0.778199 0.339365 -0.446915
H8    H     H_    0.691426 0.938165 0.539050 0.229801
C47   C     C_R   0.801578 0.633816 0.263963 -0.089145
H9    H     H_    0.922763 0.663704 0.289335 0.144248
C48   C     C_R   0.812326 0.613114 0.203927 -0.086160
C49   C     C_R   0.653953 0.574600 0.170251 -0.096422
C50   C     C_R   0.487138 0.559103 0.198758 -0.155179
H10   H     H_    0.363969 0.529240 0.174584 0.147013
C51   C     C_R   0.475964 0.582148 0.258676 -0.048229
H11   H     H_    0.343433 0.571841 0.279166 0.143767
C52   C     C_R   0.632912 0.619920 0.291891 0.350631
C53   C     C_R   0.642128 0.833285 0.749574 -0.014652
C54   C     C_R   0.625647 0.868533 0.808248 -0.205086
H12   H     H_    0.739514 0.858738 0.837206 0.130709
C55   C     C_R   0.464327 0.914904 0.830172 -0.091167
C56   C     C_R   0.316651 0.925759 0.791073 -0.123278
C57   C     C_R   0.334449 0.890876 0.731520 -0.055214
C58   C     C_R   0.497235 0.844322 0.710583 0.293702
C59   C     C_2   0.642883 0.269719 0.001938 -0.315090
H13   H     H_    0.777467 0.238817 0.005308 0.144002
C60   C     C_2   0.472640 0.230254 0.997967 -0.320161
H14   H     H_    0.338061 0.261154 0.994584 0.147525
O19   O     O_R   0.618210 0.960470 0.922400 -0.542898
O20   O     O_R   0.291310 0.111960 0.995450 -0.551247
O21   O     O_R   0.124210 0.039530 0.077580 -0.503748
C61   C     C_R   0.460998 0.145080 0.998406 0.769076
O22   O     O_R   0.288310 0.965490 0.917650 -0.547875
O23   O     O_R   0.121180 0.892010 0.999220 -0.526317
C62   C     C_R   0.455812 0.949536 0.893753 0.685578
O24   O     O_R   0.621230 0.107990 0.000760 -0.543454
O25   O     O_3   0.455770 0.976060 0.026840 -0.325846
V3    V     V_3+5 0.179680 0.004440 0.995020 1.540986
O26   O     O_R   0.791670 0.888040 0.004570 -0.549889
C63   C     C_R   0.961082 0.854919 0.001607 0.780960
O27   O     O_R   0.794680 0.034510 0.082370 -0.521005
C64   C     C_R   0.964918 0.049136 0.106158 0.797282
V4    V     V_3+5 0.680070 0.995560 0.005010 1.553242
O28   O     O_3   0.953840 0.023940 0.973160 -0.384319
S1    S     S_3+6 0.644766 0.231673 0.286065 0.074656
O29   O     O_2   0.688426 0.317689 0.288962 -0.244993
O30   O     O_2   0.466634 0.208480 0.249451 -0.333375
O31   O     O_3   0.602502 0.221236 0.352627 -0.482206
H15   H     H_    0.572918 0.163885 0.347664 0.363963
C65   C     C_1   0.438817 0.502459 0.818649 0.349463
N5    N     N_1   0.569347 0.542390 0.837774 -0.337808
C66   C     C_1   0.827592 0.351731 0.832413 0.352580
N6    N     N_1   0.708304 0.327685 0.857072 -0.351003
C67   C     C_1   0.500853 0.495207 0.467575 0.367273
N7    N     N_1   0.491782 0.426390 0.452982 -0.270994
S2    S     S_3+6 0.809174 0.908495 0.424609 0.147657
O32   O     O_2   0.673942 0.932510 0.382390 -0.219811
O33   O     O_2   0.881748 0.982437 0.466271 -0.277024
O34   O     O_3   0.997131 0.859167 0.389208 -0.480338
H16   H     H_    0.041255 0.892704 0.363711 0.412309
C68   C     C_1   0.982939 0.637016 0.178399 0.335155
N8    N     N_1   0.119128 0.656597 0.157954 -0.330529
C69   C     C_1   0.810000 0.785696 0.729868 0.341389
N9    N     N_1   0.944266 0.747312 0.714055 -0.282219
C70   C     C_1   0.149149 0.974142 0.811072 0.327238
N10   N     N_1   0.015124 0.012700 0.826883 -0.321523
C71   C     C_1   0.186087 0.902727 0.691296 0.388327
N11   N     N_1   0.067847 0.912136 0.659082 -0.276485
C72   C     C_1   0.008254 0.511869 0.533314 0.366087
N12   N     N_1   0.988783 0.580048 0.549779 -0.295592
C73   C     C_1   0.001406 0.448572 0.414837 0.463783
N13   N     N_1   0.981237 0.492140 0.385430 -0.271083
S3    S     S_3+6 0.347410 0.053566 0.450825 0.093869
O35   O     O_2   0.374051 0.042498 0.387438 -0.288081
O36   O     O_2   0.539261 0.075495 0.480382 -0.302590
O37   O     O_3   0.272350 0.967874 0.464854 -0.461947
H17   H     H_    0.343496 0.925333 0.438076 0.386481
C74   C     C_1   0.235021 0.106294 0.574385 0.589455
N14   N     N_1   0.280092 0.062602 0.601907 -0.229790
S4    S     S_3+6 0.299080 0.986716 0.177785 0.065258
O38   O     O_2   0.457972 0.021494 0.149580 -0.305815
O39   O     O_2   0.384647 0.956068 0.226170 -0.279890
O40   O     O_3   0.196401 0.910240 0.129678 -0.493619
H18   H     H_    0.088445 0.892494 0.150235 0.331773

loop_
_geom_bond_atom_site_label_1
_geom_bond_atom_site_label_2
_ccdc_geom_bond_type
S3    O37   S    
C7    C11   A    
C57   C58   A    
C21   H3    S    
C55   C62   S    
C59   H13   S    
C9    C12   A    
C1    O6    A    
C47   C52   A    
C48   C49   A    
C70   N10   T    
C51   H11   S    
C29   C30   A    
O21   C64   A    
C25   S1    S    
C46   O18   S    
C35   C38   A    
C13   C14   A    
C53   C69   S    
V4    O28   S    
C30   C66   S    
O5    C3    A    
C15   C16   A    
C48   C68   S    
C33   O15   S    
V2    O10   S    
C19   N2    A    
V3    O28   S    
C19   O13   S    
C27   H5    S    
O31   H15   S    
O25   V4    S    
C17   S3    S    
O8    V2    S    
C36   C41   A    
C16   C17   A    
C43   C44   A    
C27   C28   A    
S4    O40   S    
C8    C9    A    
O22   V3    S    
O1    V2    S    
C54   C55   A    
O7    V1    S    
C60   C61   S    
O26   V4    S    
O21   V3    S    
C51   C52   A    
C41   C42   A    
C34   C35   A    
O9    C4    A    
C21   C22   A    
C4    C5    S    
C44   H8    S    
N2    C26   S    
C3    C29   S    
C28   C65   S    
C60   H14   S    
C53   C58   A    
C24   C25   A    
O19   C62   A    
C72   N12   T    
C31   C32   A    
O20   V3    S    
O24   V4    S    
C42   C43   A    
C33   C37   A    
C74   N14   T    
O22   C62   A    
C54   H12   S    
C55   C56   A    
C47   C48   A    
O34   H16   S    
N1    C32   S    
S2    O34   S    
S1    O30   D    
C10   C11   A    
C39   C67   S    
C14   C19   A    
C12   C72   S    
C28   C29   A    
C37   C44   A    
C35   C36   A    
N2    C20   A    
O2    C1    A    
C22   C23   A    
O19   V4    S    
C14   C15   A    
C18   C74   S    
C11   C18   A    
C25   C26   A    
C20   O14   S    
O25   V3    S    
S1    O31   S    
O20   C61   A    
C5    H1    S    
C65   N5    T    
C7    O11   S    
O27   V4    S    
C9    C10   A    
O3    C4    A    
C34   O16   S    
C45   N4    A    
C22   S4    S    
N4    C52   S    
C23   C64   S    
C50   C51   A    
C40   C41   A    
O6    V2    S    
O9    V2    S    
C45   O17   S    
C69   N9    T    
S4    O39   D    
C47   H9    S    
C50   H10   S    
C56   C70   S    
C68   N8    T    
C8    O12   S    
C43   S2    S    
O23   V3    S    
C42   C46   A    
C23   C24   A    
O4    C2    A    
O37   H17   S    
N3    C58   S    
C6    C63   S    
C10   C15   A    
S3    O36   D    
C31   H6    S    
S2    O33   D    
O27   C64   A    
O1    C2    A    
N1    C8    A    
O5    V1    S    
O8    C3    A    
C59   C60   D    
C30   C31   A    
C27   C32   A    
C2    C59   S    
C71   N11   T    
S4    O38   D    
C17   C18   A    
C6    H2    S    
S3    O35   D    
N3    C34   A    
N4    C46   A    
O3    V1    S    
V1    O10   S    
C73   N13   T    
C39   C40   A    
O23   C63   A    
C33   N3    A    
C38   H7    S    
S2    O32   D    
C56   C57   A    
C5    C6    D    
C21   C26   A    
C61   O24   A    
O7    V2    S    
C36   C37   A    
C57   C71   S    
C38   C39   A    
C24   H4    S    
O4    V1    S    
C1    C49   S    
C53   C54   A    
C49   C50   A    
O26   C63   A    
C12   C13   A    
C66   N6    T    
C16   C20   A    
C13   C73   S    
S1    O29   D    
O40   H18   S    
C7    N1    A    
C40   C45   A    
C67   N7    T    
O2    V1    S    
