data_mof_unit_66661.cif
_audit_creation_date              2012-12-11T15:52:14-0500
_audit_creation_method            fapswitch 2.2
_symmetry_space_group_name_H-M    P1
_symmetry_Int_Tables_number       1
_space_group_crystal_system       triclinic
_cell_length_a                    11.138276
_cell_length_b                    11.284026
_cell_length_c                    18.714237
_cell_angle_alpha                 90.193834
_cell_angle_beta                  89.403815
_cell_angle_gamma                 120.238924
_cell_volume                      2031.93431193

loop_
_atom_site_label
_atom_site_type_symbol
_atom_type_description
_atom_site_fract_x
_atom_site_fract_y
_atom_site_fract_z
_atom_type_partial_charge
C1    C     C_R   0.520572 0.456547 0.147619 0.546204
C2    C     C_R   0.541768 0.060846 0.148125 0.538909
C3    C     C_R   0.939151 0.480372 0.148223 0.529194
C4    C     C_R   0.453013 0.521450 0.853686 0.539362
C5    C     C_R   0.075595 0.550868 0.855971 0.564988
C6    C     C_R   0.455166 0.880020 0.860270 0.581387
C7    C     C_3   0.715111 0.957703 0.525282 0.187085
C8    C     C_3   0.049934 0.755129 0.533244 0.175619
C9    C     C_3   0.267839 0.259472 0.553491 0.178370
C10   C     C_3   0.034321 0.742918 0.451954 0.176029
C11   C     C_3   0.718559 0.965124 0.444627 0.171731
C12   C     C_3   0.270890 0.256005 0.471864 0.180872
C13   C     C_R   0.544202 0.423216 0.360936 0.557613
C14   C     C_R   0.542824 0.061207 0.352810 0.526728
C15   C     C_R   0.926812 0.476478 0.355865 0.540670
C16   C     C_R   0.456901 0.519045 0.646523 0.538203
C17   C     C_R   0.060495 0.543792 0.647792 0.537743
C18   C     C_R   0.456542 0.879599 0.638737 0.567296
C19   C     C_R   0.463173 0.910685 0.936528 0.044558
C20   C     C_R   0.051241 0.533212 0.932539 0.079233
C21   C     C_R   0.472476 0.502147 0.927637 0.016716
C22   C     C_R   0.015930 0.505479 0.081304 -0.025848
C23   C     C_R   0.491133 0.980358 0.082718 -0.006099
C24   C     C_R   0.505498 0.489975 0.075363 -0.005022
C25   C     C_R   0.378915 0.954495 0.969486 -0.041804
C26   C     C_R   0.018372 0.410245 0.965764 -0.015749
C27   C     C_R   0.598498 0.529952 0.954849 0.007061
C28   C     C_R   0.000314 0.395705 0.038885 0.001859
C29   C     C_R   0.388545 0.983985 0.041872 -0.036180
C30   C     C_R   0.614191 0.522153 0.026860 -0.010915
C31   C     C_R   0.562646 0.918779 0.052624 -0.148026
C32   C     C_R   0.079425 0.636571 0.050234 -0.174576
C33   C     C_R   0.372933 0.445059 0.047921 -0.136015
C34   C     C_R   0.092389 0.649403 0.975977 -0.122662
C35   C     C_R   0.547405 0.882550 0.980330 -0.135825
C36   C     C_R   0.356743 0.450816 0.974436 -0.118589
C37   C     C_3   0.350039 0.067187 0.951254 0.116121
C38   C     C_3   0.906610 0.266708 0.951013 0.149114
C39   C     C_3   0.744570 0.640267 0.942126 0.092572
C40   C     C_3   0.884334 0.249844 0.031531 0.174678
C41   C     C_3   0.356216 0.096829 0.031202 0.143125
C42   C     C_3   0.764128 0.631513 0.022507 0.172687
C43   C     C_R   0.474564 0.920590 0.564791 0.015201
C44   C     C_R   0.012702 0.521489 0.575413 0.046445
C45   C     C_R   0.502813 0.485189 0.580825 -0.024646
C46   C     C_R   0.965866 0.489763 0.429424 -0.012074
C47   C     C_R   0.499236 0.987680 0.419580 0.007792
C48   C     C_R   0.530463 0.445525 0.435543 0.021174
C49   C     C_R   0.560860 0.896817 0.520511 0.023456
C50   C     C_R   0.074021 0.635387 0.530029 0.030663
C51   C     C_R   0.419826 0.357784 0.548802 0.027222
C52   C     C_R   0.051641 0.619801 0.457575 0.046443
C53   C     C_R   0.567141 0.921655 0.447787 0.031444
C54   C     C_R   0.427131 0.340912 0.477005 0.006978
C55   C     C_R   0.417360 0.015779 0.465002 -0.089464
C56   C     C_R   0.886998 0.379244 0.476421 -0.149711
C57   C     C_R   0.631699 0.563205 0.470100 -0.119180
C58   C     C_R   0.907662 0.397473 0.549934 -0.146167
C59   C     C_R   0.402655 0.978955 0.535984 -0.168042
C60   C     C_R   0.615136 0.584126 0.541930 -0.112581
Cr1   Cr    Cr6+3 0.769160 0.541570 0.250690 0.967520
Cr2   Cr    Cr6+3 0.458430 0.227590 0.250690 0.973374
Cr3   Cr    Cr6+3 0.772410 0.230840 0.250690 0.930410
Cr4   Cr    Cr6+3 0.541570 0.769160 0.749310 0.946023
Cr5   Cr    Cr6+3 0.227590 0.458430 0.749310 0.936897
Cr6   Cr    Cr6+3 0.230840 0.772410 0.749310 0.950809
H1    H     H_    0.640058 0.910934 0.082955 0.149143
H2    H     H_    0.100039 0.725599 0.081613 0.145887
H3    H     H_    0.282747 0.405616 0.082940 0.156590
H4    H     H_    0.126617 0.748775 0.952454 0.147298
H5    H     H_    0.608032 0.840734 0.957711 0.118915
H6    H     H_    0.254744 0.419323 0.954277 0.148942
H7    H     H_    0.246820 0.029542 0.926435 0.160880
H8    H     H_    0.945000 0.202097 0.925929 0.153669
H9    H     H_    0.756727 0.738975 0.922920 0.127797
H10   H     H_    0.780999 0.231050 0.050309 0.165966
H11   H     H_    0.441590 0.199707 0.047378 0.180108
H12   H     H_    0.831588 0.590098 0.036443 0.202130
H13   H     H_    0.373342 0.075468 0.447034 0.149109
H14   H     H_    0.804184 0.282447 0.456588 0.154235
H15   H     H_    0.716375 0.642599 0.440493 0.185811
H16   H     H_    0.839243 0.319791 0.587240 0.163524
H17   H     H_    0.342081 0.003471 0.569771 0.187387
H18   H     H_    0.681006 0.680388 0.565239 0.157679
H19   H     H_    0.744741 0.886701 0.546711 0.112619
H20   H     H_    0.141466 0.848629 0.550960 0.145676
H21   H     H_    0.199771 0.297317 0.574151 0.156630
H22   H     H_    0.931758 0.720352 0.432728 0.139778
H23   H     H_    0.793367 0.070291 0.425160 0.137249
H24   H     H_    0.230641 0.151741 0.450670 0.107300
O1    O     O_R   0.911480 0.572650 0.170990 -0.514523
O2    O     O_R   0.427350 0.338830 0.170990 -0.507661
O3    O     O_R   0.661170 0.088520 0.170990 -0.551332
O4    O     O_R   0.572650 0.911480 0.829010 -0.513679
O5    O     O_R   0.338830 0.427350 0.829010 -0.525817
O6    O     O_R   0.088520 0.661170 0.829010 -0.519097
O7    O     O_R   0.640340 0.528970 0.175680 -0.488158
O8    O     O_R   0.471030 0.111370 0.175680 -0.493499
O9    O     O_R   0.888630 0.359660 0.175680 -0.528584
O10   O     O_R   0.528970 0.640340 0.824320 -0.541636
O11   O     O_R   0.111370 0.471030 0.824320 -0.538838
O12   O     O_R   0.359660 0.888630 0.824320 -0.509962
O13   O     O_R   0.909980 0.572450 0.331530 -0.554894
O14   O     O_R   0.427550 0.337530 0.331530 -0.548750
O15   O     O_R   0.662470 0.090020 0.331530 -0.560901
O16   O     O_R   0.572450 0.909980 0.668470 -0.534080
O17   O     O_R   0.337530 0.427550 0.668470 -0.551714
O18   O     O_R   0.090020 0.662470 0.668470 -0.534211
O19   O     O_R   0.638950 0.528780 0.324500 -0.531911
O20   O     O_R   0.471220 0.110170 0.324500 -0.526102
O21   O     O_R   0.889830 0.361050 0.324500 -0.536741
O22   O     O_R   0.528780 0.638950 0.675500 -0.526816
O23   O     O_R   0.110170 0.471220 0.675500 -0.528022
O24   O     O_R   0.361050 0.889830 0.675500 -0.530446
O25   O     O_3   0.666667 0.333333 0.250560 -0.263394
O26   O     O_3   0.333333 0.666667 0.749440 -0.280442
O27   O     O_3   0.458783 0.175495 0.912767 -0.716926
H25   H     H_    0.547215 0.205994 0.938274 0.370259
O28   O     O_3   0.793067 0.261465 0.916517 -0.721196
H26   H     H_    0.813530 0.265938 0.864591 0.329595
O29   O     O_3   0.817264 0.592187 0.901412 -0.698717
H27   H     H_    0.778734 0.577089 0.852498 0.330323
O30   O     O_3   0.921488 0.157051 0.058386 -0.703374
H28   H     H_    0.906312 0.153795 0.110785 0.342388
O31   O     O_3   0.227065 0.066298 0.060859 -0.680855
H29   H     H_    0.155729 0.972253 0.046070 0.327602
O32   O     O_3   0.796004 0.751461 0.060396 -0.709464
H30   H     H_    0.728374 0.779559 0.046633 0.313580
O33   O     O_3   0.778924 0.090843 0.555669 -0.611275
C61   C     C_3   0.889644 0.118568 0.602587 -0.021634
H31   H     H_    0.974918 0.223950 0.592255 0.164213
H32   H     H_    0.937988 0.055532 0.592462 0.105574
C62   C     C_3   0.840443 0.108675 0.680495 -0.262656
H33   H     H_    0.757681 0.136258 0.683203 0.213548
H34   H     H_    0.798764 0.002125 0.697871 0.185128
C63   C     C_3   0.949662 0.199167 0.734391 -0.444120
H35   H     H_    0.055405 0.233519 0.714480 0.169346
H36   H     H_    0.933265 0.143580 0.785671 0.118269
H37   H     H_    0.936815 0.288152 0.746598 0.183347
O34   O     O_3   0.924261 0.718364 0.571756 -0.592520
C64   C     C_3   0.939285 0.819450 0.622867 -0.007141
H38   H     H_    0.849423 0.832908 0.619273 0.121982
H39   H     H_    0.027681 0.921836 0.611368 0.142409
C65   C     C_3   0.939017 0.776974 0.701175 -0.243072
H40   H     H_    0.876427 0.663491 0.706650 0.204323
H41   H     H_    0.047323 0.817382 0.718467 0.196335
C66   C     C_3   0.882775 0.839537 0.754217 -0.508419
H42   H     H_    0.948134 0.952548 0.751955 0.113194
H43   H     H_    0.890294 0.807653 0.809112 0.164820
H44   H     H_    0.772346 0.804471 0.743316 0.190741
O35   O     O_3   0.242898 0.134039 0.583391 -0.657563
C67   C     C_3   0.264875 0.140674 0.658568 -0.006861
H45   H     H_    0.207518 0.034411 0.678922 0.125701
H46   H     H_    0.217578 0.192432 0.687027 0.149808
C68   C     C_3   0.417727 0.196436 0.680748 -0.269993
H47   H     H_    0.463721 0.141543 0.653822 0.179246
H48   H     H_    0.486413 0.305030 0.667872 0.157999
C69   C     C_3   0.428177 0.184138 0.760840 -0.389217
H49   H     H_    0.416593 0.264628 0.788510 0.203304
H50   H     H_    0.531372 0.197533 0.773955 0.190849
H51   H     H_    0.345260 0.082994 0.780397 0.198264
O36   O     O_3   0.151200 0.846050 0.414210 -0.592431
C70   C     C_3   0.117563 0.919597 0.364792 -0.019932
H52   H     H_    0.209880 0.022972 0.360310 0.157801
H53   H     H_    0.031495 0.934476 0.383918 0.105080
C71   C     C_3   0.092323 0.857390 0.289359 -0.268786
H54   H     H_    0.158044 0.810403 0.279840 0.201475
H55   H     H_    0.982185 0.779613 0.283493 0.191928
C72   C     C_3   0.120635 0.961397 0.230517 -0.453877
H56   H     H_    0.047308 0.000398 0.235742 0.117209
H57   H     H_    0.103855 0.910255 0.177839 0.192591
H58   H     H_    0.229108 0.047602 0.232565 0.206690
O37   O     O_3   0.735603 0.858681 0.415981 -0.628987
C73   C     C_3   0.763435 0.874867 0.341949 0.002064
H59   H     H_    0.823307 0.823695 0.329613 0.138468
H60   H     H_    0.829742 0.983302 0.325615 0.111226
C74   C     C_3   0.630880 0.802465 0.297429 -0.239439
H61   H     H_    0.565926 0.694296 0.314390 0.200594
H62   H     H_    0.565568 0.849399 0.304586 0.177461
C75   C     C_3   0.669186 0.809444 0.218576 -0.436888
H63   H     H_    0.727752 0.917640 0.200698 0.168055
H64   H     H_    0.573756 0.751786 0.186279 0.140190
H65   H     H_    0.738176 0.766387 0.209937 0.201396
O38   O     O_3   0.215829 0.334414 0.442245 -0.578776
C76   C     C_3   0.105544 0.257377 0.394169 -0.008503
H66   H     H_    0.033503 0.296759 0.398354 0.186601
H67   H     H_    0.042833 0.146647 0.408196 0.089825
C77   C     C_3   0.161159 0.277792 0.317153 -0.261700
H68   H     H_    0.250244 0.384068 0.311380 0.225945
H69   H     H_    0.193346 0.201419 0.306985 0.164353
C78   C     C_3   0.059995 0.260961 0.258901 -0.450311
H70   H     H_    0.952338 0.181736 0.272493 0.161626
H71   H     H_    0.090809 0.232274 0.207983 0.146083
H72   H     H_    0.067860 0.361383 0.249676 0.194307

loop_
_geom_bond_atom_site_label_1
_geom_bond_atom_site_label_2
_ccdc_geom_bond_type
C71   H55   S    
C45   C60   A    
Cr4   O26   S    
C55   C59   A    
C68   H48   S    
C72   H56   S    
Cr6   O12   S    
C70   H52   S    
C9    C51   S    
Cr5   O11   S    
Cr1   O19   S    
C18   O24   A    
C18   O16   A    
C62   H33   S    
C17   O23   A    
O30   H28   S    
C5    C20   S    
C12   O38   S    
O37   C73   S    
C7    C11   S    
C6    C19   S    
C10   H22   S    
Cr6   O26   S    
C77   C78   S    
C23   C29   A    
C12   H24   S    
C70   H53   S    
Cr1   O1    S    
C59   H17   S    
O36   C70   S    
C58   H16   S    
C41   H11   S    
Cr4   O22   S    
C28   C40   S    
C24   C30   A    
C46   C52   A    
C33   C36   A    
O38   C76   S    
C3    O1    A    
C73   H59   S    
C13   O19   A    
C69   H51   S    
C25   C37   S    
Cr2   O8    S    
C37   C41   S    
C14   O15   A    
C66   H42   S    
C77   H69   S    
C44   C58   A    
C6    O4    A    
Cr2   O2    S    
Cr1   O25   S    
C62   C63   S    
Cr3   O9    S    
O35   C67   S    
C39   H9    S    
Cr3   O15   S    
C34   H4    S    
C8    H20   S    
C11   C53   S    
C75   H65   S    
C43   C59   A    
C32   H2    S    
Cr3   O25   S    
O31   H29   S    
C21   C27   A    
C35   H5    S    
C10   O36   S    
C22   C28   A    
C27   C30   A    
C69   H50   S    
C72   H57   S    
C64   H38   S    
C65   C66   S    
C75   H64   S    
C39   C42   S    
Cr2   O14   S    
C25   C29   A    
Cr1   O13   S    
C5    O11   A    
C11   O37   S    
Cr6   O6    S    
C78   H70   S    
C41   O31   S    
C48   C57   A    
C66   H44   S    
O34   C64   S    
C7    C49   S    
C65   H41   S    
C17   O18   A    
C27   C39   S    
C21   C36   A    
C16   O17   A    
C43   C49   A    
C76   C77   S    
C74   H62   S    
C32   C34   A    
C40   H10   S    
C77   H68   S    
C63   H37   S    
C69   H49   S    
C48   C54   A    
C61   H32   S    
C78   H71   S    
C15   O21   A    
C4    O5    A    
C55   H13   S    
C10   C52   S    
C11   H23   S    
C50   C52   A    
Cr2   O20   S    
C67   C68   S    
Cr5   O5    S    
C74   C75   S    
C70   C71   S    
Cr1   O7    S    
C13   O14   A    
C73   C74   S    
O29   H27   S    
C22   C32   A    
C42   O32   S    
C71   C72   S    
C38   O28   S    
C63   H36   S    
C67   H46   S    
C42   H12   S    
C1    O2    A    
C4    O10   A    
C71   H54   S    
C72   H58   S    
C31   C35   A    
C64   C65   S    
C61   C62   S    
C12   C54   S    
C1    O7    A    
O32   H30   S    
C8    C50   S    
C68   H47   S    
C5    O6    A    
C75   H63   S    
C16   O22   A    
C47   C55   A    
O33   C61   S    
C38   H8    S    
C44   C50   A    
C14   O20   A    
C40   O30   S    
C37   H7    S    
C9    O35   S    
Cr6   O24   S    
C66   H43   S    
Cr5   O23   S    
C2    O3    A    
C26   C38   S    
Cr6   O18   S    
C65   H40   S    
C57   C60   A    
C39   O29   S    
C16   C45   S    
C13   C48   S    
O28   H26   S    
Cr4   O16   S    
C14   C47   S    
C33   H3    S    
Cr3   O3    S    
C26   C28   A    
C24   C33   A    
C56   H14   S    
C47   C53   A    
C8    O34   S    
C51   C54   A    
C64   H39   S    
C61   H31   S    
C78   H72   S    
C20   C34   A    
Cr2   O25   S    
C19   C35   A    
O27   H25   S    
C9    H21   S    
C38   C40   S    
C4    C21   S    
C60   H18   S    
C76   H66   S    
C7    H19   S    
C20   C26   A    
C49   C53   A    
Cr5   O26   S    
C56   C58   A    
C57   H15   S    
C6    O12   A    
Cr3   O21   S    
C19   C25   A    
C9    C12   S    
C73   H60   S    
C7    O33   S    
C76   H67   S    
C31   H1    S    
Cr4   O4    S    
C3    O9    A    
Cr4   O10   S    
C37   O27   S    
C67   H45   S    
C2    O8    A    
C1    C24   S    
C8    C10   S    
C74   H61   S    
C46   C56   A    
C2    C23   S    
C62   H34   S    
C45   C51   A    
C29   C41   S    
C30   C42   S    
C3    C22   S    
C15   C46   S    
C15   O13   A    
C18   C43   S    
Cr5   O17   S    
C17   C44   S    
C63   H35   S    
C36   H6    S    
C23   C31   A    
C68   C69   S    
