data_mof_unit_24903.cif
_audit_creation_date              2012-12-11T16:26:33-0500
_audit_creation_method            fapswitch 2.2
_symmetry_space_group_name_H-M    P1
_symmetry_Int_Tables_number       1
_space_group_crystal_system       triclinic
_cell_length_a                    6.936156
_cell_length_b                    17.439069
_cell_length_c                    19.635532
_cell_angle_alpha                 108.435396
_cell_angle_beta                  89.156466
_cell_angle_gamma                 90.853294
_cell_volume                      2252.85161172

loop_
_atom_site_label
_atom_site_type_symbol
_atom_type_description
_atom_site_fract_x
_atom_site_fract_y
_atom_site_fract_z
_atom_type_partial_charge
O1    O     O_R   0.494330 0.415720 0.413720 -0.503438
O2    O     O_R   0.819330 0.430070 0.560210 -0.553889
O3    O     O_R   0.994320 0.584280 0.586280 -0.545717
C1    C     C_R   0.650331 0.417924 0.584211 0.773997
O4    O     O_R   0.823730 0.406300 0.412670 -0.548586
O5    O     O_R   0.998760 0.560340 0.437690 -0.548896
C2    C     C_R   0.654448 0.379885 0.387348 0.825494
O6    O     O_R   0.489890 0.439660 0.562310 -0.521559
O7    O     O_3   0.662340 0.550560 0.508380 -0.368722
V1    V     V_3+5 0.935370 0.490620 0.498450 1.491698
O8    O     O_R   0.328750 0.569930 0.439790 -0.507113
C3    C     C_R   0.162108 0.583345 0.416616 0.764079
O9    O     O_R   0.324340 0.593700 0.587330 -0.550226
C4    C     C_R   0.155337 0.616132 0.615207 0.662140
V2    V     V_3+5 0.435940 0.509380 0.501550 1.559821
O10   O     O_3   0.159100 0.449440 0.491620 -0.358747
C5    C     C_R   0.018423 0.594508 0.747505 -0.167952
C6    C     C_R   0.953108 0.581247 0.810233 -0.113723
C7    C     C_R   0.943981 0.645069 0.873910 -0.094734
C8    C     C_R   0.999276 0.722649 0.875241 -0.157285
C9    C     C_R   0.063553 0.738635 0.812045 0.051978
C10   C     C_R   0.074223 0.672843 0.746950 0.078064
C11   C     C_R   0.120133 0.818078 0.813635 -0.137960
C12   C     C_R   0.190371 0.831557 0.748838 -0.049136
C13   C     C_R   0.205949 0.763876 0.684569 -0.030303
C14   C     C_R   0.145139 0.685382 0.683338 -0.107763
C15   C     C_R   0.243569 0.909834 0.744141 0.227466
C16   C     C_R   0.324933 0.918069 0.680571 0.377245
C17   C     C_R   0.342013 0.850939 0.619474 0.355682
C18   C     C_R   0.278865 0.775850 0.621042 -0.280721
H1    H     H_    0.026518 0.542301 0.699810 0.098068
H2    H     H_    0.911184 0.520932 0.809515 0.123446
H3    H     H_    0.894988 0.634373 0.922762 0.129051
H4    H     H_    0.992237 0.769419 0.926738 0.092150
H5    H     H_    0.288568 0.726905 0.571029 0.168147
C19   C     C_R   0.310274 0.627318 0.315050 0.333805
C20   C     C_R   0.157865 0.630603 0.365130 -0.152897
C21   C     C_R   0.996844 0.678929 0.365536 -0.195783
C22   C     C_R   0.986395 0.724847 0.318574 0.089888
C23   C     C_R   0.138891 0.722710 0.269702 0.008166
C24   C     C_R   0.301432 0.673904 0.267659 0.033448
C25   C     C_R   0.825620 0.773346 0.319956 -0.105990
C26   C     C_R   0.815151 0.819191 0.273135 -0.154917
C27   C     C_R   0.965226 0.817554 0.224056 0.098397
C28   C     C_R   0.128280 0.769459 0.222532 0.109351
C29   C     C_R   0.281053 0.768348 0.174048 0.128037
C30   C     C_R   0.441044 0.719768 0.172049 -0.205392
C31   C     C_R   0.450969 0.672914 0.217863 -0.112596
C32   C     C_R   0.955820 0.863569 0.176870 -0.166974
C33   C     C_R   0.109820 0.863803 0.129376 -0.060771
C34   C     C_R   0.271958 0.816036 0.128489 -0.172084
H6    H     H_    0.879462 0.681533 0.403287 0.175102
H7    H     H_    0.707152 0.775576 0.357128 0.178695
H8    H     H_    0.689155 0.855811 0.275212 0.193618
H9    H     H_    0.830676 0.900604 0.178250 0.133172
H10   H     H_    0.390704 0.815411 0.091771 0.115042
H11   H     H_    0.559718 0.718212 0.135118 0.131897
H12   H     H_    0.578483 0.636842 0.214158 0.192729
C35   C     C_R   0.464022 0.184379 0.866335 -0.035345
C36   C     C_R   0.621458 0.134991 0.868947 -0.037366
C37   C     C_R   0.781890 0.133606 0.824342 -0.166916
C38   C     C_R   0.785622 0.178756 0.776524 0.095494
C39   C     C_R   0.628452 0.228544 0.774810 0.082800
C40   C     C_R   0.467706 0.231912 0.820389 0.088802
C41   C     C_R   0.943490 0.174662 0.730085 -0.123655
C42   C     C_R   0.947031 0.220401 0.683026 -0.148876
C43   C     C_R   0.792915 0.271172 0.681733 0.070994
C44   C     C_R   0.632178 0.274993 0.727447 0.071566
C45   C     C_R   0.475465 0.325226 0.725939 0.093824
C46   C     C_R   0.317495 0.329033 0.772375 -0.183191
C47   C     C_R   0.313539 0.282708 0.819104 -0.149757
C48   C     C_R   0.797120 0.318178 0.635554 -0.171810
C49   C     C_R   0.641318 0.368226 0.633252 -0.046762
C50   C     C_R   0.480120 0.370946 0.678343 -0.192995
H13   H     H_    0.339033 0.186581 0.900680 0.165602
H14   H     H_    0.064890 0.136417 0.730456 0.201828
H15   H     H_    0.071287 0.216561 0.648028 0.166105
H16   H     H_    0.921619 0.315086 0.600779 0.149386
H17   H     H_    0.359932 0.409581 0.677238 0.114305
H18   H     H_    0.196233 0.367463 0.772237 0.130549
H19   H     H_    0.189189 0.286295 0.853994 0.159271
H20   H     H_    0.390304 0.116131 0.414970 0.208600
C51   C     C_R   0.807815 0.398639 0.257620 -0.164917
C52   C     C_R   0.863622 0.415618 0.195827 -0.176625
C53   C     C_R   0.812974 0.363431 0.129195 0.444873
C54   C     C_R   0.713542 0.291119 0.123949 0.293772
C55   C     C_R   0.681436 0.266501 0.186072 -0.055343
C56   C     C_R   0.713453 0.324914 0.254666 0.015563
C57   C     C_R   0.615816 0.187319 0.182175 -0.088367
C58   C     C_R   0.562077 0.170376 0.245967 -0.032944
C59   C     C_R   0.568896 0.232174 0.314460 -0.005223
C60   C     C_R   0.646204 0.310651 0.318592 -0.120234
C61   C     C_R   0.500203 0.091038 0.241933 -0.227262
C62   C     C_R   0.438906 0.072452 0.302248 0.380056
C63   C     C_R   0.439032 0.131665 0.368229 -0.115139
C64   C     C_R   0.503346 0.210021 0.375427 0.287819
H21   H     H_    0.840355 0.445020 0.307401 0.170403
H22   H     H_    0.937493 0.472125 0.200150 0.178671
H23   H     H_    0.498115 0.041790 0.191943 0.143134
O11   O     O_R   0.775200 0.060470 0.937800 -0.529116
O12   O     O_R   0.441110 0.093720 0.087350 -0.529340
O13   O     O_R   0.266330 0.939630 0.062280 -0.548482
C65   C     C_R   0.610072 0.119638 0.112788 0.773279
O14   O     O_R   0.445750 0.069950 0.939820 -0.506159
O15   O     O_R   0.271000 0.915700 0.913700 -0.526784
C66   C     C_R   0.614724 0.083919 0.917111 0.841626
O16   O     O_R   0.770530 0.084400 0.086380 -0.540578
O17   O     O_3   0.602830 0.949510 0.991680 -0.391906
V3    V     V_3+5 0.329710 0.009370 0.001550 1.553966
O18   O     O_R   0.940990 0.906170 0.912570 -0.543971
C67   C     C_R   0.110093 0.884595 0.883888 0.790805
O19   O     O_R   0.936350 0.929940 0.060100 -0.557125
C68   C     C_R   0.103601 0.914554 0.081431 0.679894
V4    V     V_3+5 0.829160 0.990450 0.998310 1.491281
O20   O     O_3   0.105910 0.050480 0.008320 -0.345051
Cl1   Cl    Cl    0.437041 0.859168 0.538298 -0.530730
H24   H     H_    0.902153 0.096246 0.825986 0.192581
Cl2   Cl    Cl    0.867994 0.392706 0.052968 -0.562747
Cl3   Cl    Cl    0.594156 0.245106 0.042814 -0.648453
Cl4   Cl    Cl    0.360930 0.974082 0.295194 -0.654590
Cl5   Cl    Cl    0.496181 0.272788 0.464120 -0.680868
Cl6   Cl    Cl    0.196838 0.001468 0.812086 -0.683892
Cl7   Cl    Cl    0.402717 0.013650 0.676257 -0.531414
Cl8   Cl    Cl    0.507166 0.561588 0.308395 -0.708915

loop_
_geom_bond_atom_site_label_1
_geom_bond_atom_site_label_2
_ccdc_geom_bond_type
C27   C32   A    
C55   C56   A    
C61   C62   A    
C63   C64   A    
C49   C50   A    
C7    C8    A    
C12   C15   A    
C1    O6    A    
O19   V4    S    
V4    O20   S    
C16   Cl7   S    
C53   C54   A    
C35   C40   A    
C38   C39   A    
C41   H14   S    
C64   Cl5   S    
C19   C20   A    
C19   Cl8   S    
C34   H10   S    
C25   H7    S    
O5    C3    A    
C21   C22   A    
C21   H6    S    
O12   V3    S    
V2    O10   S    
O17   V3    S    
C43   C48   A    
C40   C47   A    
O17   V4    S    
C3    C20   S    
O18   C67   A    
C48   H16   S    
C59   C64   A    
C29   C30   A    
O8    V2    S    
C62   C63   A    
C30   C31   A    
C44   C45   A    
C11   C12   A    
C54   Cl3   S    
O1    V2    S    
C17   C18   A    
O7    V1    S    
C61   H23   S    
C8    H4    S    
C42   C43   A    
O15   C67   A    
C35   C36   A    
O12   C65   A    
O9    C4    A    
C57   C65   S    
C19   C24   A    
C45   C46   A    
C62   Cl4   S    
O14   C66   A    
O19   C68   A    
C15   Cl6   S    
C33   C34   A    
C22   C25   A    
C23   C28   A    
C37   H24   S    
C43   C44   A    
C56   C60   A    
O11   V4    S    
C52   C53   A    
C7    H3    S    
C59   C60   A    
O4    C2    A    
C54   C55   A    
C6    C7    A    
C13   C14   A    
C32   H9    S    
C46   H18   S    
C29   C34   A    
C4    C14   S    
C36   C37   A    
O2    C1    A    
C26   C27   A    
O16   V4    S    
C20   C21   A    
C30   H11   S    
C26   H8    S    
C51   C52   A    
C5    C6    A    
C45   C50   A    
C12   C13   A    
C1    C49   S    
C46   C47   A    
O3    C4    A    
C18   H5    S    
C23   C24   A    
C17   Cl1   S    
C41   C42   A    
O6    V2    S    
C50   H17   S    
C9    C11   A    
C10   C14   A    
C5    H1    S    
C6    H2    S    
C25   C26   A    
O2    V1    S    
C35   H13   S    
C22   C23   A    
C36   C66   S    
C27   C28   A    
C58   C61   A    
C13   C18   A    
C42   H15   S    
O18   V4    S    
C39   C44   A    
C16   C17   A    
H20   C63   S    
C38   C41   A    
O1    C2    A    
C48   C49   A    
O5    V1    S    
O8    C3    A    
C31   H12   S    
C11   C67   S    
O11   C66   A    
C5    C10   A    
C33   C68   S    
C52   H22   S    
O9    V2    S    
O7    V2    S    
C53   Cl2   S    
O13   C68   A    
V1    O10   S    
C58   C59   A    
O14   V3    S    
O15   V3    S    
C2    C60   S    
C24   C31   A    
C51   C56   A    
C37   C38   A    
V3    O20   S    
C39   C40   A    
C28   C29   A    
O4    V1    S    
C8    C9    A    
C32   C33   A    
C51   H21   S    
C15   C16   A    
O3    V1    S    
C55   C57   A    
O13   V3    S    
C65   O16   A    
C57   C58   A    
C9    C10   A    
C47   H19   S    
