data_mof_unit_63025.cif
_audit_creation_date              2012-12-10T17:04:20-0500
_audit_creation_method            fapswitch 2.2
_symmetry_space_group_name_H-M    P1
_symmetry_Int_Tables_number       1
_space_group_crystal_system       triclinic
_cell_length_a                    15.096998
_cell_length_b                    15.131481
_cell_length_c                    16.060481
_cell_angle_alpha                 89.328965
_cell_angle_beta                  90.452325
_cell_angle_gamma                 90.434855
_cell_volume                      3668.38623308

loop_
_atom_site_label
_atom_site_type_symbol
_atom_type_description
_atom_site_fract_x
_atom_site_fract_y
_atom_site_fract_z
_atom_type_partial_charge
C1    C     C_R   0.259847 0.485898 0.487538 0.796970
C2    C     C_R   0.979187 0.490411 0.460150 0.180751
C3    C     C_R   0.019473 0.516363 0.536013 0.172273
C4    C     C_R   0.739851 0.514657 0.512475 0.801425
C5    C     C_R   0.111368 0.513944 0.544493 -0.265178
C6    C     C_R   0.123248 0.455778 0.404785 -0.193757
C7    C     C_R   0.031530 0.459880 0.395025 -0.209320
C8    C     C_R   0.513281 0.163440 0.520327 -0.066592
C9    C     C_R   0.482866 0.835122 0.477227 0.000436
C10   C     C_R   0.490136 0.964099 0.387368 -0.199759
C11   C     C_R   0.485301 0.872992 0.397483 -0.185849
C12   C     C_1   0.481487 0.516557 0.886503 0.092622
C13   C     C_R   0.486707 0.888342 0.547546 -0.242555
C14   C     C_R   0.494967 0.980016 0.538194 0.134887
C15   C     C_R   0.494002 0.019074 0.457353 0.058216
C16   C     C_R   0.512931 0.259800 0.513151 0.870169
C17   C     C_R   0.500083 0.111876 0.448861 0.364903
C18   C     C_R   0.518117 0.123605 0.599353 -0.283769
C19   C     C_R   0.507302 0.032685 0.608403 -0.208438
C20   C     C_R   0.486993 0.739685 0.485925 0.791942
C21   C     C_R   0.512717 0.488644 0.277302 0.820162
C22   C     C_R   0.487511 0.511108 0.722619 0.799322
C23   C     C_1   0.526048 0.476518 0.114237 -0.021654
C24   C     C_1   0.519544 0.482454 0.188660 -0.103147
C25   C     C_2   0.534661 0.468641 0.025087 -0.021838
C26   C     C_2   0.480345 0.517638 0.976252 -0.276318
C27   C     C_2   0.602933 0.406934 0.993108 0.948850
C28   C     C_1   0.483376 0.514832 0.811569 -0.085442
C29   C     C_R   0.163456 0.483836 0.479086 -0.017003
C30   C     C_R   0.835570 0.519727 0.518687 0.002139
C31   C     C_R   0.967155 0.543528 0.602469 -0.204884
C32   C     C_R   0.875354 0.543834 0.594176 -0.190358
C33   C     C_R   0.887164 0.494029 0.451437 -0.265332
H1    H     H_    0.432420 0.560947 0.004751 0.158078
H2    H     H_    0.001607 0.439139 0.336825 0.150594
H3    H     H_    0.835203 0.562893 0.646536 0.145633
H4    H     H_    0.855423 0.473841 0.393811 0.143518
H5    H     H_    0.663701 0.351788 0.895125 0.347008
H6    H     H_    0.449683 0.123979 0.338109 0.330082
H7    H     H_    0.526764 0.163396 0.654515 0.183013
H8    H     H_    0.493907 0.990022 0.324472 0.159566
H9    H     H_    0.509321 0.003434 0.670305 0.157631
H10   H     H_    0.484462 0.831671 0.342805 0.149367
H11   H     H_    0.487952 0.858048 0.609098 0.139598
H12   H     H_    0.142382 0.534827 0.602232 0.157835
H13   H     H_    0.162924 0.432847 0.353572 0.164809
H14   H     H_    0.997083 0.562988 0.661072 0.146005
O1    O     O_3   0.500000 0.500000 0.500000 -0.492072
O2    O     O_R   0.461330 0.435620 0.316920 -0.623677
O3    O     O_R   0.434750 0.558200 0.677930 -0.645601
O4    O     O_R   0.559650 0.545720 0.316320 -0.637947
O5    O     O_R   0.544270 0.460460 0.688830 -0.617365
O6    O     O_2   0.649081 0.365425 0.042573 -0.618277
O7    O     O_R   0.615231 0.395576 0.907701 -0.801122
O8    O     O_3   0.495654 0.153897 0.372110 -0.748537
O9    O     O_R   0.559890 0.307360 0.561630 -0.654596
O10   O     O_R   0.434610 0.697530 0.534530 -0.638236
O11   O     O_R   0.307380 0.433810 0.444990 -0.648334
O12   O     O_R   0.698130 0.561300 0.458860 -0.634638
O13   O     O_R   0.296270 0.542620 0.535390 -0.641397
O14   O     O_R   0.698230 0.462280 0.560770 -0.634181
O15   O     O_R   0.461480 0.296280 0.460320 -0.594013
O16   O     O_R   0.544020 0.698820 0.443520 -0.640217
Zn1   Zn    Zn3+2 0.574310 0.433680 0.576480 0.991603
Zn2   Zn    Zn3+2 0.433700 0.417860 0.431740 1.003234
Zn3   Zn    Zn3+2 0.574160 0.575160 0.430870 0.982311
Zn4   Zn    Zn3+2 0.417840 0.573310 0.560900 0.966452

loop_
_geom_bond_atom_site_label_1
_geom_bond_atom_site_label_2
_ccdc_geom_bond_type
O14   Zn1   S    
C30   C32   A    
C23   C24   T    
C27   O6    D    
C4    O14   A    
C11   H10   S    
C6    C7    A    
O1    Zn2   S    
C25   C27   S    
C6    H13   S    
O3    Zn4   S    
C17   O8    S    
C9    C20   S    
C8    C17   A    
C30   C33   A    
C19   H9    S    
C22   O3    A    
C20   O16   A    
C1    C29   S    
C2    C3    A    
C20   O10   A    
C27   O7    S    
C4    C30   S    
O12   Zn3   S    
C22   C28   S    
C1    O11   A    
C26   H1    S    
C10   H8    S    
C3    C31   A    
C9    C11   A    
O9    Zn1   S    
O2    Zn2   S    
C16   O9    A    
O10   Zn4   S    
C32   H3    S    
C4    O12   A    
C21   O2    A    
C31   H14   S    
C12   C28   T    
C8    C18   A    
C5    C29   A    
C10   C15   A    
C23   C25   S    
O1    Zn4   S    
C31   C32   A    
C33   H4    S    
O16   Zn3   S    
O1    Zn1   S    
C10   C11   A    
C21   C24   S    
C5    H12   S    
C21   O4    A    
C6    C29   A    
C2    C33   A    
C22   O5    A    
C18   C19   A    
O5    Zn1   S    
C1    O13   A    
C15   C17   A    
C18   H7    S    
C14   C15   A    
C9    C13   A    
C8    C16   S    
O11   Zn2   S    
O15   Zn2   S    
O1    Zn3   S    
C25   C26   D    
C13   C14   A    
C7    H2    S    
C14   C19   A    
C16   O15   A    
C13   H11   S    
H6    O8    S    
C2    C7    A    
O13   Zn4   S    
C12   C26   S    
C3    C5    A    
O4    Zn3   S    
H5    O7    S    
