data_mof_unit_12312.cif
_audit_creation_date              2013-03-05T15:46:11-0500
_audit_creation_method            fapswitch 2.2
_symmetry_space_group_name_H-M    P1
_symmetry_Int_Tables_number       1
_space_group_crystal_system       triclinic
_cell_length_a                    10.123568
_cell_length_b                    10.540401
_cell_length_c                    12.793463
_cell_angle_alpha                 92.057217
_cell_angle_beta                  90.923268
_cell_angle_gamma                 93.918973
_cell_volume                      1360.83927634

loop_
_atom_site_label
_atom_site_type_symbol
_atom_site_description
_atom_site_fract_x
_atom_site_fract_y
_atom_site_fract_z
_atom_type_partial_charge
O1    O     O_R   0.567930 0.307680 0.508550 -0.558697
O2    O     O_R   0.432070 0.692320 0.491450 -0.560867
O3    O     O_R   0.351090 0.340020 0.481290 -0.606060
O4    O     O_R   0.648910 0.659980 0.518710 -0.613174
C1    C     C_R   0.445578 0.266086 0.499246 1.035553
C2    C     C_R   0.552453 0.734396 0.511742 1.035676
O5    O     O_R   0.590490 0.486480 0.665020 -0.613468
O6    O     O_R   0.409510 0.513520 0.334980 -0.590758
O7    O     O_R   0.373660 0.518820 0.637760 -0.561736
O8    O     O_R   0.626340 0.481180 0.362240 -0.602312
C3    C     C_R   0.473649 0.505375 0.698835 0.987127
C4    C     C_R   0.526599 0.496719 0.301801 1.008011
Zn1   Zn    Zn3+2 0.644780 0.478400 0.518200 1.028336
Zn2   Zn    Zn3+2 0.355220 0.521600 0.481800 1.050284
C5    C     C_R   0.547713 0.512722 0.193077 -0.179402
C6    C     C_R   0.453997 0.510434 0.810111 -0.163309
C7    C     C_R   0.348024 0.412410 0.957416 -0.080774
C8    C     C_R   0.602361 0.661227 0.057905 -0.086408
C9    C     C_R   0.347690 0.436266 0.850208 0.377899
C10   C     C_R   0.604996 0.630565 0.164015 0.363874
C11   C     C_R   0.544138 0.584353 0.875878 -0.123001
C12   C     C_R   0.478649 0.428266 0.121875 -0.122132
C13   C     C_R   0.532818 0.574834 0.984777 -0.029043
C14   C     C_R   0.452160 0.470692 0.021754 -0.009240
C15   C     C_2   0.415771 0.132268 0.517327 -0.375977
C16   C     C_2   0.574635 0.869733 0.535638 -0.380454
C17   C     C_2   0.492934 0.071895 0.583129 0.336420
C18   C     C_2   0.478701 0.933333 0.581033 0.381137
H1    H     H_    0.667164 0.918832 0.513040 0.126293
H2    H     H_    0.334387 0.081203 0.473757 0.137683
H3    H     H_    0.900158 0.577573 0.434127 0.186255
H4    H     H_    0.099931 0.423217 0.566524 0.187616
N1    N     N_2   0.162330 0.550370 0.457540 -0.179011
N2    N     N_2   0.837670 0.449630 0.542460 -0.182913
C19   C     C_2   0.071353 0.490101 0.509121 -0.084462
C20   C     C_2   0.928704 0.510387 0.491292 -0.111007
H5    H     H_    0.867888 0.386560 0.596262 0.196344
H6    H     H_    0.132062 0.613154 0.403525 0.188810
C21   C     C_2   0.451116 0.291535 0.147187 0.923307
O9    O     O_2   0.413320 0.261516 0.233747 -0.637120
O10   O     O_R   0.470470 0.196752 0.070665 -0.766073
H7    H     H_    0.449056 0.107854 0.096201 0.367573
C22   C     C_2   0.657084 0.659402 0.829663 0.971807
O11   O     O_2   0.770777 0.639649 0.854699 -0.586416
O12   O     O_R   0.632880 0.751469 0.757198 -0.785533
H8    H     H_    0.717493 0.796454 0.731879 0.341234
O13   O     O_3   0.658916 0.713634 0.242347 -0.765300
H9    H     H_    0.656820 0.802454 0.220409 0.346923
O14   O     O_3   0.251083 0.381783 0.781691 -0.738122
H10   H     H_    0.165372 0.375324 0.817905 0.353881
C23   C     C_2   0.236921 0.333669 0.002678 0.925859
O15   O     O_2   0.198118 0.231446 0.960737 -0.559716
O16   O     O_R   0.178300 0.376312 0.094518 -0.779289
H11   H     H_    0.104858 0.314381 0.118468 0.361702
C24   C     C_2   0.656819 0.788900 0.027627 0.900118
O17   O     O_2   0.771333 0.825039 0.050701 -0.557191
O18   O     O_R   0.576316 0.867690 0.973144 -0.769123
H12   H     H_    0.624233 0.952060 0.956703 0.369071
O19   O     O_3   0.364693 0.870500 0.617032 -0.703528
H13   H     H_    0.308090 0.934885 0.647692 0.348278
O20   O     O_3   0.590765 0.137453 0.644511 -0.721981
H14   H     H_    0.635015 0.075139 0.686910 0.346520

loop_
_geom_bond_atom_site_label_1
_geom_bond_atom_site_label_2
_geom_bond_distance
_ccdc_geom_bond_type
Zn1   N2    2.017333 S    
C23   O16   1.398481 S    
O7    Zn2   2.002434 S    
C6    C11   1.406675 A    
C15   C17   1.345019 D    
N2    H5    1.031096 S    
C22   O12   1.396787 S    
C3    C6    1.440201 S    
C9    O14   1.383511 S    
C16   C18   1.345031 D    
O13   H9    0.988471 S    
C4    C5    1.424915 S    
O5    Zn1   1.966128 S    
O6    C4    1.286907 A    
C7    C23   1.488999 S    
Zn2   N1    2.017332 S    
C11   C13   1.406338 A    
O19   H13   0.991995 S    
C21   O10   1.399148 S    
O2    C2    1.287242 A    
O16   H11   1.013980 S    
O5    C3    1.291686 A    
O7    C3    1.287373 A    
O18   H12   1.013985 S    
C2    C16   1.449653 S    
O3    Zn2   1.911298 S    
O8    C4    1.284837 A    
C8    C24   1.485883 S    
C16   H1    1.087230 S    
C6    C9    1.401465 A    
C1    C15   1.449674 S    
C12   C21   1.497041 S    
C12   C14   1.399652 A    
C7    C9    1.403265 A    
N2    C20   1.287185 D    
C24   O18   1.398390 S    
C22   O11   1.223258 D    
O20   H14   0.992113 S    
O2    Zn2   1.910016 S    
O1    C1    1.287585 A    
C24   O17   1.223406 D    
C7    C14   1.418977 A    
O1    Zn1   1.910014 S    
C13   C14   1.422214 A    
C8    C13   1.424827 A    
C10   O13   1.386700 S    
H4    C19   1.085469 S    
C17   C18   1.456989 S    
C23   O15   1.223524 D    
C8    C10   1.406957 A    
O4    C2    1.297547 A    
O14   H10   0.989609 S    
O10   H7    1.014011 S    
C18   O19   1.384700 S    
C21   O9    1.222761 D    
H3    C20   1.085450 S    
C15   H2    1.087313 S    
N1    H6    1.031059 S    
O6    Zn2   1.966128 S    
C17   O20   1.384736 S    
N1    C19   1.287240 D    
O12   H8    1.013869 S    
C5    C12   1.395439 A    
C11   C22   1.488108 S    
C19   C20   1.489400 S    
O4    Zn1   1.911298 S    
C5    C10   1.399651 A    
O3    C1    1.297206 A    
O8    Zn1   2.002435 S    
