data_mof_unit_45066.cif
_audit_creation_date              2012-12-10T19:45:47-0500
_audit_creation_method            fapswitch 2.2
_symmetry_space_group_name_H-M    P1
_symmetry_Int_Tables_number       1
_space_group_crystal_system       triclinic
_cell_length_a                    10.835296
_cell_length_b                    14.663038
_cell_length_c                    14.687128
_cell_angle_alpha                 65.372189
_cell_angle_beta                  102.724233
_cell_angle_gamma                 102.782816
_cell_volume                      2046.93224668

loop_
_atom_site_label
_atom_site_type_symbol
_atom_type_description
_atom_site_fract_x
_atom_site_fract_y
_atom_site_fract_z
_atom_type_partial_charge
C1    C     C_R   0.476945 0.119713 0.312361 0.766667
C2    C     C_R   0.588546 0.786258 0.972081 -0.219772
C3    C     C_R   0.442422 0.150194 0.128557 -0.220153
C4    C     C_R   0.574874 0.852083 0.870831 -0.210980
C5    C     C_R   0.489643 0.292290 0.180078 -0.256646
C6    C     C_R   0.518573 0.708495 0.821061 -0.258446
C7    C     C_R   0.497501 0.361471 0.080076 0.090305
C8    C     C_R   0.537832 0.640710 0.922343 0.089537
C9    C     C_R   0.477859 0.321871 0.003979 0.175945
C10   C     C_R   0.568228 0.681063 0.998368 0.168773
C11   C     C_R   0.524327 0.468380 0.053691 0.069832
C12   C     C_R   0.520664 0.880420 0.687631 0.772544
C13   C     C_R   0.523365 0.534069 0.949936 0.067109
C14   C     C_R   0.510873 0.491218 0.877397 -0.234503
C15   C     C_R   0.553306 0.511966 0.127249 -0.232321
C16   C     C_R   0.262834 0.000638 0.500622 0.839194
C17   C     C_R   0.737320 0.999378 0.499499 0.864160
C18   C     C_R   0.488959 0.387113 0.904355 -0.252486
C19   C     C_R   0.576734 0.616203 0.099757 -0.246681
C20   C     C_R   0.706582 0.282608 0.672169 -0.348659
C21   C     C_R   0.290646 0.715712 0.330098 -0.336563
C22   C     C_R   0.676369 0.201921 0.640861 0.102639
C23   C     C_R   0.870968 0.997379 0.499923 -0.260072
C24   C     C_R   0.322271 0.797175 0.360216 0.100400
C25   C     C_R   0.520439 0.285715 0.508340 0.007344
C26   C     C_R   0.480016 0.714450 0.491567 0.004355
C27   C     C_R   0.547434 0.371022 0.535719 -0.002285
C28   C     C_R   0.451368 0.628207 0.465566 0.001140
C29   C     C_R   0.641965 0.367009 0.620424 0.172007
C30   C     C_R   0.355379 0.631434 0.381875 0.170726
C31   C     C_R   0.483363 0.458628 0.483582 0.132012
C32   C     C_R   0.514954 0.540387 0.518060 0.127476
C33   C     C_R   0.608223 0.531207 0.604152 -0.256705
C34   C     C_R   0.129424 0.004363 0.498535 -0.260600
C35   C     C_R   0.388565 0.467057 0.398487 -0.209053
C36   C     C_R   0.670382 0.446450 0.653790 -0.222157
C37   C     C_R   0.325397 0.551261 0.349555 -0.185521
C38   C     C_R   0.360354 0.069612 0.771442 -0.198498
C39   C     C_R   0.650004 0.950247 0.214891 -0.221597
C40   C     C_R   0.270328 0.023077 0.713896 -0.135009
C41   C     C_R   0.737393 0.990405 0.278771 -0.135500
C42   C     C_R   0.187346 0.080386 0.632111 0.119160
C43   C     C_R   0.813040 0.927554 0.361697 0.169451
C44   C     C_R   0.195759 0.184465 0.608851 -0.174118
C45   C     C_R   0.907587 0.969099 0.429886 -0.143508
C46   C     C_R   0.799497 0.823935 0.380444 -0.212251
C47   C     C_R   0.285038 0.230939 0.667010 0.488978
C48   C     C_R   0.711641 0.782933 0.315265 0.477629
C49   C     C_R   0.368911 0.173366 0.747425 -0.215974
C50   C     C_R   0.635803 0.847196 0.234074 -0.166760
C51   C     C_R   0.962793 0.024173 0.572215 0.424929
C52   C     C_R   0.037177 0.977382 0.426136 0.413654
C53   C     C_3   0.246016 0.358189 0.704170 0.038995
C54   C     C_3   0.111231 0.384120 0.657168 -0.343782
C55   C     C_3   0.055147 0.417711 0.722810 -0.930804
C56   C     C_R   0.092849 0.033404 0.568214 -0.147682
C57   C     C_3   0.797611 0.630891 0.379941 0.033263
C58   C     C_3   0.782307 0.536048 0.357038 -0.322899
C59   C     C_3   0.883656 0.468967 0.422623 -0.921813
C60   C     C_3   0.939630 0.960914 0.742063 0.044457
C61   C     C_3   0.869126 0.857050 0.742992 -0.390095
C62   C     C_3   0.874682 0.776275 0.850438 -0.886275
C63   C     C_3   0.126033 0.044197 0.278018 0.083087
C64   C     C_3   0.024482 0.087264 0.187540 -0.370472
C65   C     C_3   0.085400 0.169891 0.098031 -0.911938
C66   C     C_R   0.467487 0.187634 0.205118 -0.047328
C67   C     C_R   0.537469 0.813260 0.794948 -0.037640
C68   C     C_R   0.448515 0.216938 0.028517 -0.212667
Cu1   Cu    Cu3+1 0.466270 0.918260 0.475690 0.943475
Cu2   Cu    Cu3+1 0.533730 0.081740 0.524310 0.951064
H1    H     H_    0.441380 0.209358 0.790463 0.130475
H2    H     H_    0.724804 0.136071 0.681609 0.148306
H3    H     H_    0.779115 0.278564 0.737112 0.145582
H4    H     H_    0.216724 0.718959 0.266126 0.137935
H5    H     H_    0.635294 0.588280 0.635843 0.126319
H6    H     H_    0.360341 0.409555 0.367391 0.118916
H7    H     H_    0.424258 0.025480 0.834257 0.141232
H8    H     H_    0.593436 0.999031 0.149881 0.146099
H9    H     H_    0.265350 0.942791 0.732571 0.118088
H10   H     H_    0.746261 0.070272 0.263667 0.116519
H11   H     H_    0.485221 0.681234 0.761004 0.150370
H12   H     H_    0.565796 0.817003 0.184817 0.135764
H13   H     H_    0.500601 0.317642 0.240621 0.146622
H14   H     H_    0.592924 0.933020 0.852075 0.147520
H15   H     H_    0.419601 0.069555 0.146132 0.146139
H16   H     H_    0.741178 0.442875 0.719631 0.145297
H17   H     H_    0.252683 0.553945 0.284963 0.137360
H18   H     H_    0.133951 0.229788 0.544753 0.139448
H19   H     H_    0.856510 0.776300 0.446377 0.113344
H20   H     H_    0.306880 0.426547 0.712909 0.175945
H21   H     H_    0.244892 0.297462 0.781826 0.126911
H22   H     H_    0.115399 0.446539 0.581341 0.234488
H23   H     H_    0.431248 0.186469 0.970392 0.124418
H24   H     H_    0.047898 0.316813 0.647836 0.222004
H25   H     H_    0.045395 0.355004 0.797820 0.256771
H26   H     H_    0.959226 0.439008 0.685043 0.251449
H27   H     H_    0.117352 0.484696 0.733628 0.262521
H28   H     H_    0.802839 0.607891 0.462902 0.166205
H29   H     H_    0.888218 0.679516 0.354137 0.143998
H30   H     H_    0.686253 0.491566 0.370613 0.226707
H31   H     H_    0.790499 0.559062 0.276081 0.215782
H32   H     H_    0.980843 0.511535 0.409467 0.253653
H33   H     H_    0.870434 0.401606 0.403137 0.261321
H34   H     H_    0.615124 0.817629 0.029813 0.133296
H35   H     H_    0.874397 0.442452 0.503812 0.266949
H36   H     H_    0.901045 0.978970 0.795733 0.163672
H37   H     H_    0.042085 0.955952 0.771885 0.145473
H38   H     H_    0.768072 0.863375 0.709023 0.219719
H39   H     H_    0.913557 0.831955 0.697640 0.202995
H40   H     H_    0.975453 0.765632 0.883998 0.248892
H41   H     H_    0.820419 0.703116 0.848776 0.259644
H42   H     H_    0.831735 0.798588 0.898689 0.266661
H43   H     H_    0.199703 0.023121 0.251511 0.163675
H44   H     H_    0.175737 0.104787 0.306019 0.101109
H45   H     H_    0.521213 0.536167 0.799128 0.141539
H46   H     H_    0.967873 0.025535 0.164053 0.234804
H47   H     H_    0.959321 0.120549 0.209813 0.208989
H48   H     H_    0.143493 0.232078 0.120067 0.262509
H49   H     H_    0.009350 0.201705 0.034685 0.252554
H50   H     H_    0.147585 0.137951 0.071436 0.258827
H51   H     H_    0.480980 0.357417 0.846682 0.144938
H52   H     H_    0.599051 0.646309 0.158405 0.188371
H53   H     H_    0.561444 0.468187 0.207429 0.140348
H54   H     H_    0.554708 0.720335 0.551512 0.120853
H55   H     H_    0.447302 0.280554 0.447280 0.119149
H56   H     H_    0.273483 0.862655 0.319596 0.136252
N1    N     N_R   0.584450 0.204570 0.560790 -0.176430
N2    N     N_R   0.415550 0.795430 0.439210 -0.177711
O1    O     O_R   0.455540 0.022090 0.338120 -0.593792
O2    O     O_3   0.689970 0.681041 0.329107 -0.635777
O3    O     O_3   0.922718 0.042170 0.646118 -0.608499
O4    O     O_3   0.072150 0.954759 0.353154 -0.608491
O5    O     O_R   0.544460 0.977910 0.661880 -0.584100
O6    O     O_R   0.512510 0.160150 0.379180 -0.597677
O7    O     O_R   0.487490 0.839850 0.620820 -0.599093
O8    O     O_R   0.291160 0.930970 0.479480 -0.550007
O9    O     O_R   0.708840 0.069030 0.520520 -0.538129
O10   O     O_R   0.348130 0.069020 0.520540 -0.582323
O11   O     O_R   0.651870 0.930980 0.479460 -0.588578
O12   O     O_3   0.298702 0.334721 0.638000 -0.624219

loop_
_geom_bond_atom_site_label_1
_geom_bond_atom_site_label_2
_ccdc_geom_bond_type
Cu2   N1    S    
Cu1   O11   S    
C19   H52   S    
C34   C56   A    
C8    C13   A    
C23   C45   A    
C3    H15   S    
C53   O12   S    
C14   C18   A    
C3    C68   A    
C61   H39   S    
C41   H10   S    
C22   N1    A    
C60   H36   S    
C39   C41   A    
C46   H19   S    
C53   C54   S    
C15   C19   A    
C29   C36   A    
C17   C23   S    
C26   H54   S    
C64   H46   S    
C35   C37   A    
C1    O1    A    
C5    H13   S    
C27   C29   A    
C14   H45   S    
C57   H29   S    
C33   C36   A    
C51   C56   A    
C61   H38   S    
C25   H55   S    
C16   C34   S    
C63   H44   S    
C11   C15   A    
C33   H5    S    
C62   H41   S    
Cu1   N2    S    
C12   O7    A    
C62   H40   S    
C47   O12   S    
C53   H21   S    
Cu2   O5    S    
C65   H48   S    
C44   C47   A    
C42   C56   S    
C40   C42   A    
Cu1   O7    S    
C6    H11   S    
C13   C14   A    
C24   H56   S    
C41   C43   A    
C48   O2    S    
C61   C62   S    
C42   C44   A    
C60   O3    S    
C22   H2    S    
C7    C11   A    
C20   C29   A    
C12   C67   S    
C46   C48   A    
C35   H6    S    
C26   N2    A    
C27   C31   A    
C52   O4    S    
C39   H8    S    
C57   O2    S    
C28   C32   A    
C58   H30   S    
C55   H25   S    
C5    C7    A    
C51   O3    S    
C55   H26   S    
C6    C8    A    
C45   C52   A    
C36   H16   S    
C58   C59   S    
C21   H4    S    
C64   H47   S    
C30   C37   A    
C60   C61   S    
C2    C4    A    
C54   H22   S    
C23   C51   A    
C31   C32   A    
C4    H14   S    
C2    H34   S    
C10   C19   A    
C55   H27   S    
C1    C66   S    
C65   H49   S    
C40   H9    S    
C17   O11   A    
C58   H31   S    
C59   H35   S    
C63   O4    S    
C43   C45   S    
C60   H37   S    
C15   H53   S    
Cu1   O1    S    
C6    C67   A    
C20   C22   A    
Cu2   O10   S    
Cu1   O8    S    
C12   O5    A    
C31   C35   A    
C3    C66   A    
C1    O6    A    
C16   O8    A    
C38   C49   A    
C50   H12   S    
C24   N2    A    
C7    C9    A    
C54   C55   S    
C59   H32   S    
C26   C28   A    
C37   H17   S    
C16   O10   A    
C5    C66   A    
C4    C67   A    
C38   H7    S    
C25   C27   A    
C21   C30   A    
C34   C52   A    
C68   H23   S    
C59   H33   S    
C64   C65   S    
C28   C30   A    
C25   N1    A    
C9    C68   A    
C47   C49   A    
C32   C33   A    
C38   C40   A    
C11   C13   A    
C57   C58   S    
C57   H28   S    
C48   C50   A    
C65   H50   S    
C20   H3    S    
Cu1   Cu2   S    
C43   C46   A    
C54   H24   S    
C18   H51   S    
C63   C64   S    
C63   H43   S    
C9    C18   A    
C39   C50   A    
C62   H42   S    
Cu2   O9    S    
C8    C10   A    
C49   H1    S    
C21   C24   A    
C53   H20   S    
Cu2   O6    S    
C17   O9    A    
C44   H18   S    
C2    C10   A    
