data_mof_unit_67767.cif
_audit_creation_date              2012-12-10T16:50:08-0500
_audit_creation_method            fapswitch 2.2
_symmetry_space_group_name_H-M    P1
_symmetry_Int_Tables_number       1
_space_group_crystal_system       triclinic
_cell_length_a                    7.970296
_cell_length_b                    8.57413
_cell_length_c                    10.777707
_cell_angle_alpha                 98.558539
_cell_angle_beta                  84.286563
_cell_angle_gamma                 92.103551
_cell_volume                      724.531471902

loop_
_atom_site_label
_atom_site_type_symbol
_atom_type_description
_atom_site_fract_x
_atom_site_fract_y
_atom_site_fract_z
_atom_type_partial_charge
C1    C     C_R   0.543345 0.791462 0.487384 0.892954
C2    C     C_R   0.362686 0.559661 0.959592 0.096344
C3    C     C_R   0.503058 0.509346 0.875720 -0.114324
C4    C     C_R   0.637913 0.439291 0.919299 -0.201144
C5    C     C_R   0.632879 0.422548 0.044996 -0.248731
C6    C     C_R   0.486044 0.459673 0.124551 -0.126819
C7    C     C_2   0.563898 0.946120 0.455830 -0.168159
C8    C     C_2   0.436334 0.042561 0.496732 -0.473837
C9    C     C_R   0.500596 0.506545 0.740927 0.816293
C10   C     C_R   0.456975 0.205703 0.496947 0.955332
C11   C     C_R   0.496755 0.482784 0.259518 0.858635
C12   C     C_R   0.250051 0.670762 0.936142 -0.163284
C13   C     C_R   0.093383 0.690417 0.005908 -0.127113
C14   C     C_R   0.051251 0.600773 0.102352 -0.152088
C15   C     C_R   0.173354 0.507119 0.137011 -0.153775
C16   C     C_R   0.339093 0.503490 0.074547 0.100675
H1    H     H_    0.748574 0.400436 0.857259 0.177431
H2    H     H_    0.292236 0.750850 0.872387 0.112514
H3    H     H_    0.005455 0.773923 0.984979 0.164345
H4    H     H_    0.927793 0.609933 0.154291 0.172537
H5    H     H_    0.136148 0.437896 0.211381 0.152492
H6    H     H_    0.743453 0.381256 0.079942 0.166309
H7    H     H_    0.319696 0.004542 0.545056 0.189098
H8    H     H_    0.008387 0.365982 0.407364 0.175275
N1    N     N_2   0.950330 0.457950 0.466250 -0.169341
N2    N     N_2   0.049670 0.542050 0.533750 -0.117676
O1    O     O_R   0.389250 0.738570 0.508280 -0.645926
O2    O     O_R   0.678390 0.711630 0.486650 -0.644464
O3    O     O_R   0.355400 0.513470 0.694050 -0.635728
O4    O     O_R   0.644540 0.486530 0.672420 -0.642186
O5    O     O_R   0.321610 0.288370 0.513350 -0.626050
O6    O     O_R   0.610750 0.261430 0.491720 -0.589616
O7    O     O_R   0.355460 0.513470 0.327580 -0.631912
O8    O     O_R   0.644600 0.486530 0.305950 -0.618615
Zn1   Zn    Zn3+2 0.306930 0.517990 0.514440 0.916303
Zn2   Zn    Zn3+2 0.693070 0.482010 0.485560 0.932537
C17   C     C_R   0.006314 0.691252 0.624915 0.269297
C18   C     C_R   0.137366 0.783482 0.680855 -0.146994
C19   C     C_R   0.123474 0.936260 0.748259 -0.253532
C20   C     C_R   0.968220 0.003525 0.776934 -0.078272
C21   C     C_R   0.829372 0.912282 0.745150 -0.250795
C22   C     C_R   0.848864 0.760043 0.676753 -0.137553
H9    H     H_    0.254251 0.738605 0.684566 0.205227
H10   H     H_    0.233814 0.999060 0.782975 0.137555
H11   H     H_    0.954791 0.120382 0.830530 0.134333
H12   H     H_    0.704612 0.958246 0.775683 0.133422
H13   H     H_    0.730354 0.713710 0.674787 0.200956
C23   C     C_R   0.709467 0.983192 0.365288 0.179893
C24   C     C_R   0.876336 0.982584 0.396921 -0.087632
C25   C     C_R   0.010890 0.017467 0.311099 -0.160576
C26   C     C_R   0.980092 0.053690 0.193332 -0.150914
C27   C     C_R   0.814722 0.054144 0.160854 -0.155085
C28   C     C_R   0.679810 0.019260 0.246350 -0.141827
H14   H     H_    0.902368 0.957377 0.488232 0.155573
H15   H     H_    0.139042 0.017107 0.336097 0.147624
H16   H     H_    0.084361 0.080871 0.127078 0.129523
H17   H     H_    0.791069 0.081172 0.069291 0.128614
H18   H     H_    0.552239 0.019929 0.219915 0.112878

loop_
_geom_bond_atom_site_label_1
_geom_bond_atom_site_label_2
_ccdc_geom_bond_type
C1    O2    A    
C28   H18   S    
N2    C17   S    
C19   H10   S    
C3    C9    S    
C11   O7    A    
C9    O3    A    
C23   C28   A    
C2    C16   A    
C21   C22   A    
O3    Zn1   S    
C25   H15   S    
O4    Zn2   S    
C21   H12   S    
C2    C12   A    
C7    C23   S    
C17   C22   A    
C2    C3    A    
C18   H9    S    
C13   C14   A    
C12   C13   A    
C26   C27   A    
C5    C6    A    
C9    O4    A    
C4    H1    S    
O6    Zn2   S    
C23   C24   A    
O7    Zn1   S    
C17   C18   A    
C25   C26   A    
O8    Zn2   S    
C22   H13   S    
C11   O8    A    
C20   H11   S    
O5    Zn1   S    
C7    C8    D    
C27   H17   S    
C13   H3    S    
N1    Zn2   S    
C6    C16   A    
C24   H14   S    
C19   C20   A    
C10   O6    A    
N2    Zn1   S    
C15   H5    S    
C8    H7    S    
C18   C19   A    
H8    N1    S    
O2    Zn2   S    
C14   H4    S    
C8    C10   S    
C24   C25   A    
C12   H2    S    
C6    C11   S    
C1    O1    A    
C14   C15   A    
C20   C21   A    
O1    Zn1   S    
N1    N2    D    
C1    C7    S    
C10   O5    A    
C15   C16   A    
C5    H6    S    
C3    C4    A    
C27   C28   A    
C4    C5    A    
C26   H16   S    
