data_mof_unit_67924.cif
_audit_creation_date              2012-12-10T18:59:59-0500
_audit_creation_method            fapswitch 2.2
_symmetry_space_group_name_H-M    P1
_symmetry_Int_Tables_number       1
_space_group_crystal_system       triclinic
_cell_length_a                    10.731577
_cell_length_b                    10.6729
_cell_length_c                    9.875199
_cell_angle_alpha                 87.552244
_cell_angle_beta                  90.243376
_cell_angle_gamma                 91.393771
_cell_volume                      1129.70396151

loop_
_atom_site_label
_atom_site_type_symbol
_atom_type_description
_atom_site_fract_x
_atom_site_fract_y
_atom_site_fract_z
_atom_type_partial_charge
C1    C     C_R   0.497489 0.259970 0.501799 0.869564
C2    C     C_R   0.525742 0.059577 0.620776 -0.236890
C3    C     C_R   0.501693 0.872671 0.497460 0.012004
C4    C     C_R   0.493971 0.127382 0.503025 0.006514
C5    C     C_R   0.561789 0.594175 0.065780 0.136314
C6    C     C_R   0.437064 0.406573 0.934265 0.153688
C7    C     C_R   0.559726 0.593020 0.921904 -0.096321
C8    C     C_R   0.439126 0.407782 0.078120 -0.074213
C9    C     C_R   0.260270 0.503394 0.498815 0.920634
C10   C     C_R   0.739805 0.496619 0.501037 0.877115
C11   C     C_R   0.247467 0.739379 0.111565 -0.225588
C12   C     C_R   0.501460 0.740073 0.498242 0.909219
C13   C     C_R   0.835966 0.206820 0.888891 -0.272926
C14   C     C_R   0.191770 0.705104 0.236575 0.562710
C15   C     C_R   0.874591 0.258429 0.760722 0.514174
C16   C     C_R   0.118414 0.593287 0.249471 0.034804
C17   C     C_R   0.882770 0.390429 0.741593 0.059666
C18   C     C_R   0.096342 0.522895 0.134220 -0.239083
C19   C     C_R   0.852573 0.467208 0.848024 -0.200773
C20   C     C_R   0.148322 0.560998 0.009310 -0.146448
C21   C     C_R   0.813210 0.414336 0.972684 -0.146755
C22   C     C_R   0.224642 0.668474 0.998196 -0.182531
C23   C     C_R   0.872340 0.495705 0.502834 -0.066406
C24   C     C_R   0.804282 0.284562 0.992822 -0.180042
C25   C     C_R   0.933075 0.543960 0.386492 -0.299687
C26   C     C_R   0.067065 0.456155 0.611943 -0.247977
C27   C     C_3   0.121837 0.860072 0.368268 0.058659
C28   C     C_3   0.127619 0.973578 0.266912 -0.399595
C29   C     C_3   0.041429 0.076846 0.308361 -0.919443
C30   C     C_3   0.856485 0.068608 0.647545 0.076067
C31   C     C_3   0.940613 0.962134 0.697332 -0.353791
C32   C     C_3   0.884838 0.833884 0.664427 -0.972660
C33   C     C_3   0.626488 0.703202 0.133174 -0.388079
C34   C     C_R   0.127863 0.505496 0.496332 -0.064413
C35   C     C_3   0.729517 0.773867 0.050303 -0.444194
C36   C     C_3   0.800635 0.867136 0.136566 -0.890461
C37   C     C_3   0.371738 0.297741 0.867131 -0.383903
C38   C     C_3   0.269944 0.226317 0.951285 -0.454126
C39   C     C_3   0.197236 0.133716 0.865616 -0.861861
C40   C     C_R   0.939398 0.449222 0.616708 0.062523
C41   C     C_R   0.061049 0.548730 0.380532 0.034857
C42   C     C_R   0.463913 0.068173 0.382867 -0.215133
C43   C     C_R   0.530669 0.931920 0.617919 -0.217150
C44   C     C_R   0.467943 0.940379 0.380208 -0.166419
H1    H     H_    0.266616 0.696553 0.901777 0.163605
H2    H     H_    0.792442 0.473860 0.055133 0.151729
H3    H     H_    0.880788 0.579120 0.299186 0.161352
H4    H     H_    0.119186 0.419009 0.698344 0.150515
H5    H     H_    0.437472 0.120271 0.291034 0.139979
H6    H     H_    0.557852 0.880120 0.709671 0.144677
H7    H     H_    0.442248 0.895217 0.288060 0.155788
H8    H     H_    0.551335 0.104757 0.713028 0.142275
H9    H     H_    0.135116 0.894421 0.471696 0.188249
H10   H     H_    0.028177 0.813058 0.366431 0.126115
H11   H     H_    0.224384 0.012282 0.260769 0.231565
H12   H     H_    0.775560 0.243943 0.090426 0.158531
H13   H     H_    0.099357 0.943843 0.164629 0.210375
H14   H     H_    0.943700 0.040621 0.314886 0.261763
H15   H     H_    0.046073 0.155952 0.231553 0.262128
H16   H     H_    0.070465 0.112445 0.408053 0.285491
H17   H     H_    0.835116 0.057002 0.538601 0.175875
H18   H     H_    0.765461 0.061330 0.700294 0.125488
H19   H     H_    0.033295 0.974765 0.648870 0.229122
H20   H     H_    0.954672 0.964999 0.808498 0.210597
H21   H     H_    0.795016 0.816907 0.718365 0.256676
H22   H     H_    0.950241 0.759427 0.697380 0.267643
H23   H     H_    0.605739 0.665614 0.859990 0.134465
H24   H     H_    0.868758 0.828181 0.553656 0.256566
H25   H     H_    0.736413 0.937811 0.174339 0.263821
H26   H     H_    0.845506 0.817437 0.224155 0.252845
H27   H     H_    0.874252 0.916397 0.074510 0.252249
H28   H     H_    0.796632 0.706412 0.011835 0.231157
H29   H     H_    0.688011 0.827881 0.963374 0.218961
H30   H     H_    0.554576 0.771339 0.156887 0.204679
H31   H     H_    0.670612 0.668145 0.227526 0.255374
H32   H     H_    0.150666 0.183913 0.779410 0.285687
H33   H     H_    0.260736 0.063429 0.825743 0.263008
H34   H     H_    0.392682 0.335574 0.140168 0.136643
H35   H     H_    0.124911 0.083944 0.929067 0.247614
H36   H     H_    0.312977 0.171604 0.036811 0.218333
H37   H     H_    0.203647 0.293291 0.992298 0.237543
H38   H     H_    0.326785 0.332785 0.773253 0.255935
H39   H     H_    0.443580 0.229948 0.842541 0.207769
H40   H     H_    0.307391 0.822280 0.101899 0.126450
H41   H     H_    0.833133 0.106902 0.911183 0.138101
H42   H     H_    0.039630 0.437550 0.141623 0.161331
H43   H     H_    0.862332 0.568162 0.834943 0.140628
H44   H     H_    0.130647 0.506256 0.921367 0.150970
N1    N     N_R   0.499970 0.499970 0.857200 -0.110397
N2    N     N_R   0.500030 0.500030 0.142800 -0.113257
O1    O     O_R   0.499990 0.316750 0.614620 -0.646241
O2    O     O_3   0.919427 0.186068 0.657980 -0.675766
O3    O     O_R   0.500010 0.683250 0.385380 -0.634480
O4    O     O_R   0.499990 0.316780 0.385290 -0.632685
O5    O     O_R   0.500010 0.683220 0.614710 -0.637488
O6    O     O_R   0.316760 0.500000 0.614660 -0.650830
O7    O     O_R   0.683240 0.500000 0.385340 -0.646111
O8    O     O_R   0.316760 0.500020 0.385330 -0.606361
O9    O     O_R   0.683240 0.499980 0.614670 -0.614332
O10   O     O_3   0.218907 0.775826 0.347338 -0.676836
Zn1   Zn    Zn3+2 0.500000 0.499980 0.653120 0.926546
Zn2   Zn    Zn3+2 0.500000 0.500020 0.346880 0.936931

loop_
_geom_bond_atom_site_label_1
_geom_bond_atom_site_label_2
_ccdc_geom_bond_type
C9    O8    A    
C35   C36   S    
C27   H10   S    
C28   H13   S    
C3    C43   A    
C18   H42   S    
C4    C42   A    
C39   H33   S    
C28   C29   S    
C19   C21   A    
C19   H43   S    
C30   C31   S    
C11   C14   A    
C23   C40   A    
C7    N1    A    
N2    Zn2   S    
C3    C12   S    
C33   C35   S    
C15   O2    S    
C33   H31   S    
C29   H15   S    
C1    O4    A    
C5    C33   S    
C12   O5    A    
C25   H3    S    
O7    Zn2   S    
C36   H27   S    
C26   H4    S    
C32   H24   S    
C1    O1    A    
O6    Zn1   S    
C26   C34   A    
C8    H34   S    
C34   C41   A    
C42   C44   A    
O1    Zn1   S    
C28   H11   S    
C36   H26   S    
C27   O10   S    
C3    C44   A    
C31   H19   S    
C30   O2    S    
C25   C41   A    
C5    C7    A    
C6    C8    A    
O8    Zn2   S    
C13   C24   A    
C17   C40   S    
C39   H35   S    
C10   O7    A    
C2    C4    A    
C37   C38   S    
C31   C32   S    
C29   H16   S    
C2    C43   A    
C6    C37   S    
C39   H32   S    
C9    O6    A    
C2    H8    S    
C44   H7    S    
O9    Zn1   S    
C20   C22   A    
C35   H28   S    
C30   H18   S    
C38   H37   S    
C9    C34   S    
C10   C23   S    
C14   C16   A    
C12   O3    A    
C30   H17   S    
C8    N2    A    
C36   H25   S    
C32   H22   S    
C21   H2    S    
C15   C17   A    
C35   H29   S    
N1    Zn1   S    
C31   H20   S    
C5    N2    A    
O3    Zn2   S    
C27   H9    S    
C43   H6    S    
C14   O10   S    
C11   H40   S    
C24   H12   S    
C6    N1    A    
C11   C22   A    
C1    C4    S    
C13   C15   A    
C26   C40   A    
C38   C39   S    
C38   H36   S    
C20   H44   S    
C17   C19   A    
C18   C20   A    
C23   C25   A    
C10   O9    A    
C37   H38   S    
C42   H5    S    
C7    H23   S    
C33   H30   S    
C22   H1    S    
C29   H14   S    
O4    Zn2   S    
C16   C18   A    
C21   C24   A    
C13   H41   S    
C27   C28   S    
C37   H39   S    
C16   C41   S    
O5    Zn1   S    
C32   H21   S    
