data_mof_unit_46314.cif
_audit_creation_date              2012-12-10T18:33:44-0500
_audit_creation_method            fapswitch 2.2
_symmetry_space_group_name_H-M    P1
_symmetry_Int_Tables_number       1
_space_group_crystal_system       triclinic
_cell_length_a                    10.533006
_cell_length_b                    15.0951
_cell_length_c                    15.368639
_cell_angle_alpha                 80.760461
_cell_angle_beta                  90.65799
_cell_angle_gamma                 105.775908
_cell_volume                      2319.68004694

loop_
_atom_site_label
_atom_site_type_symbol
_atom_type_description
_atom_site_fract_x
_atom_site_fract_y
_atom_site_fract_z
_atom_type_partial_charge
C1    C     C_R   0.474494 0.440439 0.661986 0.947357
C2    C     C_R   0.464698 0.497488 0.042344 0.091122
C3    C     C_R   0.362599 0.416250 0.073342 -0.122721
C4    C     C_R   0.617996 0.591226 0.923466 -0.119390
C5    C     C_R   0.298284 0.358025 0.015883 -0.164104
C6    C     C_R   0.683564 0.649200 0.980601 -0.156287
C7    C     C_R   0.658280 0.832510 0.657567 -0.217789
C8    C     C_R   0.341111 0.167417 0.342590 -0.217962
C9    C     C_R   0.645869 0.750025 0.626143 0.564881
C10   C     C_R   0.354143 0.250086 0.373814 0.584829
C11   C     C_R   0.520619 0.796136 0.506839 -0.056129
C12   C     C_R   0.524633 0.559539 0.338030 0.935481
C13   C     C_R   0.478867 0.203660 0.493320 -0.052912
C14   C     C_R   0.537306 0.884496 0.533520 0.000563
C15   C     C_R   0.461555 0.115160 0.466815 -0.000384
C16   C     C_R   0.742483 0.501595 0.500986 0.979057
C17   C     C_R   0.257631 0.498439 0.498890 0.971733
C18   C     C_R   0.601192 0.899647 0.613903 -0.008467
C19   C     C_R   0.397587 0.100026 0.386457 -0.009219
C20   C     C_R   0.491943 0.957143 0.483778 0.089453
C21   C     C_R   0.506510 0.042389 0.516682 0.088899
C22   C     C_R   0.561800 0.051524 0.599718 -0.244464
C23   C     C_R   0.522494 0.440300 0.819010 -0.119643
C24   C     C_R   0.436219 0.947894 0.400879 -0.249084
C25   C     C_R   0.609100 0.982039 0.648255 -0.002519
C26   C     C_R   0.389017 0.017417 0.352325 -0.003537
C27   C     C_3   0.928054 0.425898 0.558054 -0.389927
C28   C     C_3   0.072208 0.573952 0.441985 -0.340139
C29   C     C_3   0.047793 0.503346 0.579437 0.453669
C30   C     C_3   0.952740 0.496529 0.420599 0.479805
C31   C     C_3   0.121893 0.495996 0.497390 -0.157869
C32   C     C_3   0.878366 0.503942 0.502543 -0.165145
C33   C     C_3   0.003464 0.419449 0.474481 -0.087414
C34   C     C_R   0.468377 0.562831 0.181727 -0.107387
C35   C     C_3   0.996931 0.580392 0.525570 -0.089332
C36   C     C_R   0.440161 0.400726 0.754734 -0.186886
C37   C     C_R   0.555597 0.599609 0.245159 -0.189969
C38   C     C_R   0.272560 0.319889 0.868943 -0.194596
C39   C     C_R   0.717447 0.683008 0.128447 -0.197419
C40   C     C_R   0.314557 0.337475 0.780434 -0.059166
C41   C     C_R   0.680778 0.662496 0.217921 -0.057110
C42   C     C_2   0.007696 0.330046 0.445553 0.968242
C43   C     C_2   0.992288 0.669775 0.554322 0.963040
C44   C     C_2   0.322346 0.542908 0.197385 0.911950
C45   C     C_R   0.463877 0.441387 0.901035 0.045945
C46   C     C_2   0.669313 0.461510 0.806684 0.929859
C47   C     C_2   0.778486 0.706067 0.279558 0.957940
C48   C     C_2   0.221943 0.290188 0.718096 0.951447
C49   C     C_2   0.660811 0.997048 0.736768 0.909334
C50   C     C_2   0.336726 0.002187 0.263998 0.905829
C51   C     C_R   0.521686 0.564156 0.097386 0.053173
C52   C     C_R   0.344365 0.372880 0.928711 0.127536
C53   C     C_R   0.641078 0.632604 0.068652 0.120233
C54   C     C_R   0.517655 0.509365 0.955276 0.077169
H1    H     H_    0.537393 0.224750 0.548054 0.151243
H2    H     H_    0.768540 0.706570 0.956001 0.167975
H3    H     H_    0.179407 0.268849 0.890076 0.174834
H4    H     H_    0.810460 0.733756 0.106371 0.173512
H5    H     H_    0.329223 0.397431 0.141649 0.189007
H6    H     H_    0.649830 0.609874 0.854805 0.191872
H7    H     H_    0.038308 0.469428 0.705913 0.360995
H8    H     H_    0.971182 0.500344 0.296007 0.373777
H9    H     H_    0.279072 0.353070 0.365201 0.395492
H10   H     H_    0.721602 0.647523 0.634274 0.395516
H11   H     H_    0.975747 0.250772 0.349505 0.355478
H12   H     H_    0.462207 0.774965 0.452092 0.150761
H13   H     H_    0.946817 0.792207 0.523743 0.350396
H14   H     H_    0.144828 0.537745 0.144091 0.362481
H15   H     H_    0.828391 0.495417 0.723701 0.349905
H16   H     H_    0.968507 0.738108 0.315214 0.378574
H17   H     H_    0.034163 0.252937 0.678588 0.379534
H18   H     H_    0.662865 0.945148 0.866099 0.356664
H19   H     H_    0.334555 0.053550 0.134552 0.357129
H20   H     H_    0.715932 0.843537 0.715489 0.201803
H21   H     H_    0.283495 0.156478 0.284640 0.197723
H22   H     H_    0.565717 0.111319 0.630604 0.165110
H23   H     H_    0.431761 0.887948 0.370113 0.164121
H24   H     H_    0.867215 0.367170 0.606088 0.203587
H25   H     H_    0.132968 0.632604 0.393846 0.202961
H26   H     H_    0.212816 0.300817 0.039921 0.164611
N1    N     N_R   0.574200 0.731700 0.552740 -0.145495
N2    N     N_R   0.425800 0.268300 0.447260 -0.145071
O1    O     O_R   0.462600 0.383110 0.605620 -0.593356
O2    O     O_3   0.896790 0.493367 0.337785 -0.701445
O3    O     O_3   0.296855 0.312822 0.325714 -0.770495
O4    O     O_3   0.703861 0.687579 0.673951 -0.761838
O5    O     O_2   0.045892 0.272119 0.495949 -0.611267
O6    O     O_R   0.967701 0.313213 0.361370 -0.757938
O7    O     O_2   0.028522 0.685270 0.627552 -0.563306
O8    O     O_R   0.946595 0.735056 0.496893 -0.782961
O9    O     O_2   0.273324 0.522835 0.272134 -0.660344
O10   O     O_R   0.241293 0.551874 0.125578 -0.769843
O11   O     O_2   0.737999 0.457271 0.871148 -0.587247
O12   O     O_R   0.537400 0.616890 0.394380 -0.592881
O13   O     O_R   0.728832 0.481329 0.722396 -0.827084
O14   O     O_2   0.746602 0.747058 0.334403 -0.579598
O15   O     O_R   0.909969 0.704820 0.270935 -0.766453
O16   O     O_2   0.259289 0.248262 0.666302 -0.577131
O17   O     O_R   0.088935 0.288871 0.722772 -0.785581
O18   O     O_2   0.733442 0.072961 0.746509 -0.602303
O19   O     O_R   0.622041 0.925975 0.809571 -0.791141
O20   O     O_2   0.263329 0.926390 0.254658 -0.603511
O21   O     O_R   0.375817 0.072870 0.190917 -0.793116
O22   O     O_R   0.510210 0.531900 0.639510 -0.583121
O23   O     O_R   0.489790 0.468100 0.360490 -0.588156
O24   O     O_R   0.662240 0.425610 0.483080 -0.602805
O25   O     O_R   0.337760 0.574390 0.516920 -0.602035
O26   O     O_R   0.709860 0.574400 0.516970 -0.628157
O27   O     O_R   0.290140 0.425600 0.483030 -0.633501
O28   O     O_3   0.106540 0.508071 0.661385 -0.705415
Zn1   Zn    Zn3+2 0.468210 0.400660 0.477370 1.029217
Zn2   Zn    Zn3+2 0.531790 0.599340 0.522630 1.026742

loop_
_geom_bond_atom_site_label_1
_geom_bond_atom_site_label_2
_ccdc_geom_bond_type
C30   C32   S    
C10   O3    S    
C23   C45   A    
C27   C29   S    
C34   C37   A    
O25   Zn2   S    
C14   C18   A    
C22   H22   S    
C27   H24   S    
C26   C50   S    
C39   C41   A    
C11   N1    A    
C15   C19   A    
C34   C51   A    
C43   O7    D    
C33   C42   S    
C24   C26   A    
O27   Zn1   S    
C49   O19   S    
C12   O23   A    
C11   C14   A    
C38   C52   A    
H18   O19   S    
C40   C48   S    
O12   Zn2   S    
C12   C37   S    
C19   C26   A    
C28   H25   S    
C46   O13   S    
C20   C24   A    
C28   C35   S    
C22   C25   A    
C47   O14   D    
C31   C33   S    
C5    C52   A    
C35   C43   S    
C44   O10   S    
C11   H12   S    
C16   O24   A    
O23   Zn1   S    
C50   O21   S    
C23   C46   S    
C21   C22   A    
H9    O3    S    
C30   O2    S    
C12   O12   A    
C18   C25   A    
H7    O28   S    
H10   O4    S    
C7    H20   S    
O24   Zn1   S    
C43   O8    S    
C8    C19   A    
C32   C35   S    
C14   C20   A    
C29   O28   S    
C36   C40   A    
C34   C44   S    
C4    C6    A    
C2    C54   A    
O22   Zn2   S    
C45   C52   A    
C3    C5    A    
C39   H4    S    
H17   O17   S    
C13   N2    A    
C10   N2    A    
H13   O8    S    
C27   C33   S    
O26   Zn2   S    
C51   C53   A    
C9    O4    S    
C38   H3    S    
N1    Zn2   S    
H19   O21   S    
C7    C18   A    
C4    H6    S    
C41   C47   S    
C5    H26   S    
C1    O22   A    
C44   O9    D    
C45   C54   A    
C50   O20   D    
C13   C15   A    
C17   C31   S    
O1    Zn1   S    
C1    O1    A    
C6    C53   A    
H11   O6    S    
C7    C9    A    
C48   O17   S    
H8    O2    S    
C30   C33   S    
C4    C54   A    
C27   C32   S    
C28   C31   S    
C6    H2    S    
H15   O13   S    
C17   O27   A    
H16   O15   S    
C16   C32   S    
C48   O16   D    
C29   C35   S    
C47   O15   S    
N2    Zn1   S    
C17   O25   A    
C2    C3    A    
C29   C31   S    
C49   O18   D    
C38   C40   A    
C39   C53   A    
C46   O11   D    
C28   C30   S    
H14   O10   S    
C8    H21   S    
C37   C41   A    
C25   C49   S    
C2    C51   A    
C16   O26   A    
C24   H23   S    
C15   C21   A    
C42   O6    S    
C20   C21   A    
C8    C10   A    
C23   C36   A    
C42   O5    D    
C1    C36   S    
C9    N1    A    
C13   H1    S    
C3    H5    S    
