data_mof_unit_31111.cif
_audit_creation_date              2012-12-11T18:21:55-0500
_audit_creation_method            fapswitch 2.2
_symmetry_space_group_name_H-M    P1
_symmetry_Int_Tables_number       1
_space_group_crystal_system       triclinic
_cell_length_a                    8.293099
_cell_length_b                    14.386924
_cell_length_c                    14.944929
_cell_angle_alpha                 95.580912
_cell_angle_beta                  97.478321
_cell_angle_gamma                 92.318239
_cell_volume                      1757.01495791

loop_
_atom_site_label
_atom_site_type_symbol
_atom_type_description
_atom_site_fract_x
_atom_site_fract_y
_atom_site_fract_z
_atom_type_partial_charge
Ba1   Ba    Ba6+2 0.833400 0.543310 0.453520 1.718765
Ba2   Ba    Ba6+2 0.356420 0.456770 0.546480 1.697453
C1    C     C_3   0.641736 0.886001 0.199935 -0.441014
C2    C     C_3   0.576432 0.794919 0.230667 0.292611
C3    C     C_3   0.481415 0.248527 0.261272 0.272752
C4    C     C_3   0.567110 0.224390 0.177491 -0.456146
C5    C     C_3   0.181183 0.268308 0.812066 0.400047
C6    C     C_3   0.234227 0.249329 0.909849 -0.307166
C7    C     C_3   0.685285 0.208938 0.800895 0.289368
C8    C     C_3   0.591176 0.122402 0.750273 -0.268685
C9    C     C_R   0.847194 0.431444 0.831357 -0.025294
C10   C     C_R   0.911464 0.442568 0.924216 -0.049478
C11   C     C_R   0.047403 0.459786 0.110778 -0.062733
C12   C     C_3   0.984122 0.727303 0.200171 0.345072
C13   C     C_R   0.898890 0.409435 0.080082 -0.030576
C14   C     C_R   0.829705 0.403921 0.989593 -0.100693
C15   C     C_R   0.112579 0.472593 0.204519 0.013482
C16   C     C_R   0.256969 0.527792 0.230196 -0.203812
C17   C     C_R   0.080375 0.522725 0.793760 0.028453
C18   C     C_R   0.145419 0.535286 0.887492 -0.048824
C19   C     C_R   0.063355 0.492286 0.952234 0.016905
C20   C     C_R   0.291758 0.587795 0.918564 -0.031530
C21   C     C_R   0.361883 0.592569 0.008784 -0.093029
C22   C     C_R   0.283216 0.550753 0.073661 -0.057912
C23   C     C_3   0.967522 0.747186 0.101248 -0.377327
C24   C     C_R   0.130962 0.501345 0.045735 0.006151
C25   C     C_R   0.349343 0.559691 0.166233 0.039239
C26   C     C_R   0.939785 0.464372 0.767390 -0.232022
C27   C     C_R   0.708033 0.939497 0.557639 -0.055753
C28   C     C_R   0.510393 0.803663 0.505493 -0.004491
C29   C     C_R   0.354927 0.771525 0.463048 -0.193845
C30   C     C_R   0.240662 0.833197 0.431026 0.082407
C31   C     C_R   0.285868 0.927906 0.434456 -0.138479
C32   C     C_R   0.443036 0.961931 0.473887 -0.008358
C33   C     C_R   0.555627 0.900903 0.513030 -0.036966
C34   C     C_3   0.169520 0.747191 0.644399 0.357838
C35   C     C_R   0.638130 0.095648 0.519603 -0.036710
C36   C     C_R   0.750092 0.035785 0.560945 -0.005153
C37   C     C_R   0.681333 0.192561 0.523293 0.020946
C38   C     C_R   0.832492 0.228017 0.568032 -0.275899
C39   C     C_R   0.946679 0.168351 0.604063 0.019661
C40   C     C_R   0.904827 0.072835 0.602467 -0.126154
C41   C     C_R   0.486915 0.056865 0.475001 -0.017825
C42   C     C_3   0.134427 0.849559 0.662828 -0.348156
C43   C     C_3   0.976848 0.260121 0.363977 0.303984
C44   C     C_3   0.938489 0.154767 0.347963 -0.382034
C45   C     C_3   0.612189 0.718083 0.737078 0.181929
C46   C     C_3   0.626591 0.788896 0.821861 -0.288986
H1    H     H_    0.640879 0.787358 0.299283 0.093200
H2    H     H_    0.240170 0.888748 0.704498 0.141129
H3    H     H_    0.110289 0.880547 0.597602 0.037175
H4    H     H_    0.026127 0.856192 0.699081 0.136432
H5    H     H_    0.876808 0.294067 0.394396 0.008746
H6    H     H_    0.090827 0.273345 0.412002 0.084543
H7    H     H_    0.910695 0.127123 0.411034 0.056038
H8    H     H_    0.044037 0.118466 0.326654 0.159423
H9    H     H_    0.484019 0.707569 0.707766 0.036639
H10   H     H_    0.775205 0.887666 0.202603 0.174772
H11   H     H_    0.757205 0.804632 0.848986 0.081219
H12   H     H_    0.565563 0.759064 0.875548 0.074650
H13   H     H_    0.612539 0.947096 0.245441 0.102897
H14   H     H_    0.577510 0.147516 0.165013 0.160093
H15   H     H_    0.499302 0.249119 0.115759 0.041296
H16   H     H_    0.692196 0.257403 0.188359 0.139940
H17   H     H_    0.587188 0.893858 0.129270 0.138143
H18   H     H_    0.082204 0.781634 0.086823 0.124076
H19   H     H_    0.233701 0.338328 0.802435 0.062730
H20   H     H_    0.367670 0.262107 0.928069 0.122522
H21   H     H_    0.172978 0.296374 0.956591 0.051491
H22   H     H_    0.201631 0.175685 0.919231 0.178260
H23   H     H_    0.675989 0.066854 0.736248 0.071683
H24   H     H_    0.873136 0.690647 0.213804 0.106772
H25   H     H_    0.499685 0.095460 0.790799 0.158054
H26   H     H_    0.831942 0.374874 0.125490 0.094481
H27   H     H_    0.711895 0.367511 0.971617 0.071593
H28   H     H_    0.477538 0.631176 0.026662 0.114493
H29   H     H_    0.356480 0.624856 0.873737 0.091048
H30   H     H_    0.302600 0.542790 0.301487 0.132154
H31   H     H_    0.894448 0.450846 0.695915 0.107199
H32   H     H_    0.320331 0.697565 0.457030 0.065300
H33   H     H_    0.198936 0.974726 0.405516 0.092311
H34   H     H_    0.795527 0.895740 0.589925 0.103653
H35   H     H_    0.399348 0.099963 0.441737 0.135766
H36   H     H_    0.942998 0.680427 0.056570 0.082951
H37   H     H_    0.865527 0.792929 0.085396 0.143037
H38   H     H_    0.282929 0.742271 0.614504 -0.122992
H39   H     H_    0.069704 0.713769 0.594657 0.094084
O1    O     O_2   0.841230 0.444160 0.280430 -0.477370
O2    O     O_3   0.709170 0.750926 0.676018 -0.649906
O3    O     O_3   0.016492 0.811216 0.258207 -0.595193
O4    O     O_2   0.348480 0.555870 0.719620 -0.466894
O5    O     O_3   0.076830 0.552730 0.606300 -0.498486
O6    O     O_3   0.591760 0.384380 0.672320 -0.418122
O7    O     O_3   0.186855 0.705763 0.725937 -0.640801
O8    O     O_3   0.629090 0.386350 0.459240 -0.420971
O9    O     O_3   0.172520 0.335290 0.628920 -0.489134
O10   O     O_2   0.273049 0.168875 0.580631 -0.509064
O11   O     O_3   0.236421 0.198727 0.752344 -0.574276
O12   O     O_3   0.112860 0.447350 0.393710 -0.451667
O13   O     O_3   0.560610 0.613730 0.540770 -0.427144
O14   O     O_2   0.387460 0.270290 0.467210 -0.445913
O15   O     O_3   0.576727 0.214294 0.335309 -0.642522
O16   O     O_2   0.513744 0.452867 0.828897 -0.480908
O17   O     O_3   0.572844 0.276616 0.819840 -0.624042
O18   O     O_3   0.597940 0.615700 0.327690 -0.458250
O19   O     O_2   0.682030 0.544266 0.170892 -0.513133
O20   O     O_3   0.994696 0.294393 0.280909 -0.643504
O21   O     O_3   0.601940 0.718505 0.168343 -0.636302
O22   O     O_2   0.802240 0.729740 0.532850 -0.464764
O23   O     O_3   0.017180 0.664790 0.371080 -0.501194
O24   O     O_2   0.896964 0.830481 0.413059 -0.515602
P1    P     P_3+3 0.018600 0.416790 0.295970 1.010881
P2    P     P_3+3 0.635660 0.716530 0.560900 1.019096
P3    P     P_3+3 0.040945 0.785847 0.371800 0.975195
P4    P     P_3+3 0.171090 0.583290 0.704030 0.984531
P5    P     P_3+3 0.156431 0.216204 0.641246 0.953900
P6    P     P_3+3 0.558117 0.609695 0.208829 0.972531
P7    P     P_3+3 0.568301 0.266988 0.446674 1.016872
P8    P     P_3+3 0.634491 0.385937 0.789794 0.991509
H40   H     H_    0.833230 0.137801 0.294241 0.158651
C47   C     C_2   0.675416 0.628111 0.762645 0.594843
H41   H     H_    0.712656 0.616387 0.832881 -0.127286
O25   O     O_2   0.684295 0.566195 0.702498 -0.556280
C48   C     C_2   0.551735 0.878426 0.800418 0.533810
H42   H     H_    0.580220 0.911541 0.741850 -0.021261
O26   O     O_2   0.458793 0.914595 0.848707 -0.577733
C49   C     C_2   0.399459 0.802459 0.234959 0.393882
H43   H     H_    0.329912 0.855627 0.203068 0.048189
O27   O     O_2   0.331161 0.745355 0.273304 -0.667689
C50   C     C_2   0.317543 0.196808 0.242726 0.522809
H44   H     H_    0.216717 0.226488 0.203532 -0.029860
O28   O     O_2   0.300786 0.117641 0.264252 -0.604856
C51   C     C_2   0.465539 0.352473 0.271974 0.355552
H45   H     H_    0.526462 0.397588 0.231396 0.008355
O29   O     O_2   0.384994 0.387228 0.327479 -0.592196
H46   H     H_    0.046440 0.268638 0.801236 -0.065919
C52   C     C_2   0.772856 0.182525 0.888476 0.443735
H47   H     H_    0.728337 0.202815 0.952272 0.008796
O30   O     O_2   0.889519 0.133543 0.888155 -0.604000
H48   H     H_    0.775479 0.232026 0.757609 -0.050464
H49   H     H_    0.527465 0.140243 0.685029 0.139603
H50   H     H_    0.994146 0.027648 0.631416 0.077043
H51   H     H_    0.081256 0.678021 0.210310 0.061672
H52   H     H_    0.867065 0.301216 0.566970 0.042231

loop_
_geom_bond_atom_site_label_1
_geom_bond_atom_site_label_2
_ccdc_geom_bond_type
C19   C24   A    
C35   C41   A    
C5    O11   S    
C14   H27   S    
C41   H35   S    
O20   P1    S    
C17   C18   A    
C22   C25   A    
C21   H28   S    
C9    P8    S    
Ba1   O12   S    
C5    C6    S    
C29   C30   A    
C43   C44   S    
C3    C51   S    
C52   O30   D    
C6    H21   S    
C28   C33   A    
O14   P7    D    
Ba2   O8    S    
C22   C24   A    
C32   C33   A    
Ba1   P1    S    
C28   C29   A    
C8    H25   S    
C45   C47   S    
C13   C14   A    
Ba1   Ba2   S    
C39   C40   A    
C4    H16   S    
C26   H31   S    
C12   O3    S    
Ba1   O22   S    
C3    O15   S    
C7    C52   S    
C10   C14   A    
O4    P4    D    
C44   H7    S    
C40   H50   S    
C23   H36   S    
C21   C22   A    
C7    C8    S    
O23   P3    S    
O15   P7    S    
O22   P2    D    
O17   P8    S    
C8    H23   S    
C42   H4    S    
Ba1   O1    S    
C1    H13   S    
Ba2   O13   S    
O8    P7    S    
C45   O2    S    
O18   P6    S    
C1    H17   S    
Ba1   P2    S    
Ba1   O13   S    
C46   H12   S    
C25   P6    S    
C34   H39   S    
O2    P2    S    
C32   C41   A    
C29   H32   S    
C37   C38   A    
Ba2   O14   S    
C34   H38   S    
C5    H19   S    
C10   C19   A    
C8    H49   S    
C4    H15   S    
C27   C36   A    
C50   O28   D    
C49   O27   D    
C46   C48   S    
C35   C36   A    
C34   O7    S    
Ba1   O23   S    
C45   H9    S    
C2    O21   S    
Ba2   P4    S    
O13   P2    S    
O11   P5    S    
C45   C46   S    
C17   P4    S    
Ba1   O8    S    
C23   H37   S    
C15   C16   A    
C44   H40   S    
O10   P5    D    
Ba2   O5    S    
C17   C26   A    
C47   H41   S    
C42   H3    S    
C16   H30   S    
C18   C20   A    
Ba2   O12   S    
C6    H20   S    
Ba1   O5    S    
C11   C13   A    
O19   P6    D    
C51   H45   S    
C11   C24   A    
C34   C42   S    
C39   P5    S    
C1    C2    S    
C15   P1    S    
C46   H11   S    
C48   O26   D    
C42   H2    S    
C12   H51   S    
C38   C39   A    
C2    C49   S    
C12   H24   S    
O21   P6    S    
Ba2   O6    S    
O16   P8    D    
C23   H18   S    
C20   H29   S    
C43   H6    S    
O7    P4    S    
C36   C40   A    
C37   P7    S    
C52   H47   S    
C27   C33   A    
C6    H22   S    
C43   O20   S    
C11   C15   A    
C2    H1    S    
C16   C25   A    
C30   C31   A    
C4    H14   S    
C38   H52   S    
C50   H44   S    
C5    H46   S    
C35   C37   A    
C3    C4    S    
C9    C26   A    
C7    O17   S    
O12   P1    S    
Ba2   O9    S    
C7    H48   S    
C31   C32   A    
O24   P3    D    
O3    P3    S    
C12   C23   S    
Ba2   O4    S    
O5    P4    S    
C47   O25   D    
C43   H5    S    
O1    P1    D    
C1    H10   S    
C3    C50   S    
C27   H34   S    
C13   H26   S    
C18   C19   A    
C44   H8    S    
C51   O29   D    
C20   C21   A    
O9    P5    S    
O6    P8    S    
C30   P3    S    
C31   H33   S    
C49   H43   S    
C9    C10   A    
Ba1   O18   S    
C48   H42   S    
C28   P2    S    
