data_mof_unit_11838.cif
_audit_creation_date              2012-12-10T20:40:03-0500
_audit_creation_method            fapswitch 2.2
_symmetry_space_group_name_H-M    P1
_symmetry_Int_Tables_number       1
_space_group_crystal_system       triclinic
_cell_length_a                    23.300041
_cell_length_b                    10.663082
_cell_length_c                    9.993473
_cell_angle_alpha                 88.430304
_cell_angle_beta                  87.638788
_cell_angle_gamma                 90.143905
_cell_volume                      2479.82535573

loop_
_atom_site_label
_atom_site_type_symbol
_atom_type_description
_atom_site_fract_x
_atom_site_fract_y
_atom_site_fract_z
_atom_type_partial_charge
C1    C     C_R   0.505011 0.261317 0.501246 0.937022
C2    C     C_R   0.118507 0.589751 0.582438 0.526735
C3    C     C_R   0.244835 0.642495 0.476975 -0.217657
C4    C     C_R   0.389813 0.498152 0.502136 0.989823
C5    C     C_R   0.303706 0.632249 0.488658 0.312930
C6    C     C_R   0.328102 0.511331 0.504071 -0.285309
C7    C     C_R   0.293839 0.402065 0.502749 0.232926
C8    C     C_R   0.233715 0.415655 0.498843 0.372134
C9    C     C_R   0.210193 0.535828 0.481456 0.081071
C10   C     C_R   0.759876 0.607627 0.412949 -0.231376
C11   C     C_R   0.700013 0.602856 0.420382 0.409893
C12   C     C_R   0.977375 0.467955 0.237998 0.519716
C13   C     C_R   0.672486 0.501472 0.489380 -0.286790
C14   C     C_R   0.704611 0.403615 0.548777 0.342167
C15   C     C_R   0.764485 0.410192 0.541657 0.506763
C16   C     C_R   0.500013 0.740235 0.498366 0.945058
C17   C     C_R   0.791847 0.513294 0.473538 0.041245
C18   C     C_R   0.506740 0.061276 0.622565 -0.123949
C19   C     C_R   0.518114 0.130979 0.504933 -0.303979
C20   C     C_R   0.538250 0.069325 0.388737 0.398236
C21   C     C_R   0.529150 0.940833 0.381936 0.425563
C22   C     C_R   0.506355 0.873449 0.496484 -0.247079
C23   C     C_R   0.037286 0.477691 0.239334 -0.266740
C24   C     C_R   0.500063 0.934456 0.618020 -0.116910
C25   C     C_3   0.455298 0.928545 0.731722 0.688261
C26   C     C_3   0.462706 0.072077 0.736414 0.808075
C27   C     C_R   0.465017 0.421202 0.077096 -0.015257
C28   C     C_R   0.610260 0.499721 0.497275 0.926087
C29   C     C_R   0.538463 0.570697 0.063710 0.458340
C30   C     C_R   0.538184 0.569698 0.921290 -0.092850
C31   C     C_R   0.465634 0.419041 0.935927 0.066830
C32   C     C_3   0.401791 0.399107 0.937541 0.200839
C33   C     C_3   0.401131 0.417458 0.088801 0.741265
C34   C     C_R   0.064350 0.513871 0.354517 -0.083635
C35   C     C_R   0.877896 0.571738 0.579486 0.542105
C36   C     C_R   0.883620 0.491503 0.358083 0.563864
C37   C     C_R   0.943758 0.500431 0.353279 -0.116337
C38   C     C_R   0.970897 0.540990 0.469009 -0.122594
C39   C     C_R   0.937957 0.574687 0.585020 -0.133377
C40   C     C_3   0.966779 0.315775 0.079794 0.143986
C41   C     C_3   0.991847 0.321688 0.936522 -0.819474
C42   C     C_3   0.360623 0.879554 0.801678 0.131189
C43   C     C_3   0.300716 0.914355 0.758018 -0.838336
C44   C     C_3   0.538278 0.084159 0.894878 0.129524
C45   C     C_R   0.031233 0.547644 0.468856 -0.019587
C46   C     C_3   0.576952 0.199218 0.896881 -0.719595
C47   C     C_3   0.317712 0.442523 0.834720 0.078962
C48   C     C_3   0.274337 0.546716 0.812909 -0.783123
C49   C     C_3   0.320512 0.535867 0.157155 0.271731
C50   C     C_3   0.298678 0.670219 0.150612 -0.842771
C51   C     C_3   0.304446 0.200310 0.422211 0.192551
C52   C     C_3   0.352921 0.106558 0.400329 -0.719996
C53   C     C_3   0.186814 0.280440 0.645311 0.066738
C54   C     C_3   0.148194 0.165204 0.656812 -0.792882
C55   C     C_R   0.058579 0.588170 0.583086 -0.094246
C56   C     C_R   0.025883 0.621812 0.696899 -0.169028
C57   C     C_R   0.966334 0.612148 0.700780 0.447893
C58   C     C_R   0.124225 0.515206 0.359134 0.619510
H1    H     H_    0.062525 0.456058 0.149539 0.200029
H2    H     H_    0.004453 0.226196 0.905105 0.219459
H3    H     H_    0.959428 0.358896 0.867595 0.259357
H4    H     H_    0.693464 0.761083 0.319932 0.362043
H5    H     H_    0.638841 0.292518 0.589402 0.306733
H6    H     H_    0.836245 0.324779 0.581677 0.323265
H7    H     H_    0.583799 0.205892 0.309353 0.338004
H8    H     H_    0.505412 0.857230 0.227797 0.346521
H9    H     H_    0.371057 0.941512 0.885576 0.140512
H10   H     H_    0.359980 0.781051 0.840691 0.196513
H11   H     H_    0.286718 0.850992 0.679600 0.301585
H12   H     H_    0.568129 0.628631 0.862448 0.192302
H13   H     H_    0.269711 0.905757 0.845216 0.212727
H14   H     H_    0.300265 0.012523 0.718106 0.259065
H15   H     H_    0.467193 0.772197 0.831439 0.365967
H16   H     H_    0.385923 0.136479 0.770016 0.320910
H17   H     H_    0.559350 0.013265 0.830268 0.164743
H18   H     H_    0.535271 0.041593 0.997622 0.240413
H19   H     H_    0.561421 0.262982 0.976299 0.244916
H20   H     H_    0.621442 0.170137 0.918296 0.248665
H21   H     H_    0.577400 0.249893 0.798446 0.262298
H22   H     H_    0.570502 0.647976 0.214962 0.420890
H23   H     H_    0.392689 0.301060 0.908685 0.060947
H24   H     H_    0.298442 0.373769 0.909782 0.098962
H25   H     H_    0.324878 0.389217 0.743096 0.202548
H26   H     H_    0.294578 0.626241 0.755296 0.276525
H27   H     H_    0.237923 0.509918 0.758308 0.227590
H28   H     H_    0.256715 0.581384 0.909328 0.250556
H29   H     H_    0.310992 0.494828 0.257214 0.154169
H30   H     H_    0.296237 0.478835 0.089058 0.135623
H31   H     H_    0.306965 0.711723 0.048703 0.245049
H32   H     H_    0.251802 0.671955 0.175411 0.234194
H33   H     H_    0.321306 0.728429 0.222179 0.287617
H34   H     H_    0.046524 0.651077 0.786188 0.213044
H35   H     H_    0.398656 0.237649 0.135811 0.307031
H36   H     H_    0.911541 0.565578 0.841936 0.382829
H37   H     H_    0.376165 0.724812 0.497316 0.350050
H38   H     H_    0.295704 0.247560 0.324340 0.173754
H39   H     H_    0.265835 0.146076 0.458010 0.178785
H40   H     H_    0.357019 0.045711 0.491206 0.299631
H41   H     H_    0.343624 0.046284 0.314919 0.198640
H42   H     H_    0.394264 0.156420 0.378558 0.278694
H43   H     H_    0.164415 0.358042 0.698134 0.164709
H44   H     H_    0.227432 0.257773 0.695731 0.152897
H45   H     H_    0.225672 0.734312 0.464354 0.193182
H46   H     H_    0.169653 0.085038 0.606949 0.255311
H47   H     H_    0.139156 0.139478 0.764057 0.213268
H48   H     H_    0.106936 0.185132 0.608696 0.262127
H49   H     H_    0.782020 0.685888 0.362073 0.181108
H50   H     H_    0.927147 0.257519 0.082218 0.198525
H51   H     H_    0.997659 0.265858 0.145011 0.107161
H52   H     H_    0.030360 0.383417 0.929349 0.250352
N1    N     N_R   0.852762 0.526011 0.469954 -0.350646
N2    N     N_R   0.149687 0.549612 0.473192 -0.310122
N3    N     N_R   0.499610 0.499140 0.142800 -0.158478
N4    N     N_R   0.499610 0.499180 0.857150 -0.133090
O1    O     O_R   0.500010 0.316790 0.614690 -0.577597
O2    O     O_R   0.583850 0.500060 0.614640 -0.631359
O3    O     O_R   0.583840 0.500020 0.385300 -0.614993
O4    O     O_2   0.844302 0.615520 0.680903 -0.495858
O5    O     O_3   0.951550 0.438160 0.120212 -0.552634
O6    O     O_3   0.667486 0.697346 0.364227 -0.708537
O7    O     O_3   0.679584 0.299068 0.612406 -0.689865
O8    O     O_3   0.794560 0.313426 0.601082 -0.678903
O9    O     O_3   0.563084 0.131610 0.278017 -0.715461
O10   O     O_3   0.542534 0.884540 0.262700 -0.675208
O11   O     O_3   0.400462 0.889747 0.690668 -0.628945
O12   O     O_2   0.855756 0.447976 0.253016 -0.482888
O13   O     O_3   0.474827 0.862273 0.844926 -0.825796
O14   O     O_3   0.414352 0.137891 0.693599 -0.749504
O15   O     O_3   0.482105 0.120227 0.859190 -0.663305
O16   O     O_3   0.578133 0.647781 0.117861 -0.702519
O17   O     O_3   0.370894 0.493706 0.870704 -0.561753
O18   O     O_3   0.380332 0.536326 0.129092 -0.574576
O19   O     O_3   0.379805 0.315236 0.168193 -0.837759
O20   O     O_3   0.937862 0.637092 0.820481 -0.684177
O21   O     O_3   0.335399 0.742204 0.481205 -0.757799
O22   O     O_3   0.320038 0.285735 0.520387 -0.613804
O23   O     O_2   0.156879 0.480869 0.251614 -0.586148
O24   O     O_3   0.197480 0.312663 0.508557 -0.608008
O25   O     O_2   0.145496 0.628392 0.690966 -0.594705
O26   O     O_R   0.500000 0.316760 0.385350 -0.610406
O27   O     O_R   0.416160 0.499980 0.614700 -0.567307
O28   O     O_R   0.416150 0.499940 0.385360 -0.565482
O29   O     O_R   0.500000 0.683240 0.614650 -0.620139
O30   O     O_R   0.499990 0.683210 0.385310 -0.635850
Zn1   Zn    Zn3+2 0.500000 0.500020 0.653130 1.007584
Zn2   Zn    Zn3+2 0.500000 0.499980 0.346870 1.018090

loop_
_geom_bond_atom_site_label_1
_geom_bond_atom_site_label_2
_ccdc_geom_bond_type
C51   H39   S    
C55   C56   A    
C43   H14   S    
C15   O8    S    
O28   Zn2   S    
C19   C20   A    
C18   C26   S    
C41   H3    S    
C7    C8    A    
C53   C54   S    
C27   C33   S    
C23   H1    S    
C32   H23   S    
C12   C23   A    
C2    N2    A    
C29   C30   A    
C18   C24   A    
C2    O25   S    
C54   H46   S    
C36   C37   A    
C16   O30   A    
H35   O19   S    
C28   O3    A    
C4    O28   A    
C5    C6    A    
C10   C17   A    
C39   C57   A    
C56   C57   A    
C8    O24   S    
C18   C19   A    
C47   H24   S    
C12   C37   A    
C44   H18   S    
C25   O11   S    
C38   C45   A    
C29   N3    A    
C28   O2    A    
C42   O11   S    
C30   H12   S    
C50   H32   S    
H16   O14   S    
C47   C48   S    
C53   H43   S    
C8    C9    A    
C20   O9    S    
C16   C22   S    
C13   C28   S    
C47   H25   S    
C31   N4    A    
H4    O6    S    
O27   Zn1   S    
C51   H38   S    
C40   H50   S    
C9    N2    S    
C43   H11   S    
C14   O7    S    
C21   C22   A    
C42   H10   S    
C49   H30   S    
C10   H49   S    
C11   O6    S    
C17   N1    S    
H5    O7    S    
C44   C46   S    
C38   C39   A    
C49   O18   S    
C1    C19   S    
H22   O16   S    
C54   H48   S    
C27   C31   A    
C51   C52   S    
C16   O29   A    
C24   C25   S    
N4    Zn1   S    
O30   Zn2   S    
O26   Zn2   S    
C4    O27   A    
C46   H20   S    
C5    O21   S    
C48   H28   S    
C25   C26   S    
H15   O13   S    
C52   H42   S    
C48   H26   S    
C47   O17   S    
O3    Zn2   S    
N3    Zn2   S    
C44   H17   S    
C35   C39   A    
C49   H29   S    
C37   C38   A    
C3    C9    A    
C12   O5    S    
C51   O22   S    
C50   H31   S    
C31   C32   S    
C53   H44   S    
C23   C34   A    
C36   N1    A    
H37   O21   S    
C34   C45   A    
C26   O14   S    
C26   O15   S    
C40   H51   S    
C1    O26   A    
C27   N3    A    
C33   O18   S    
C4    C6    S    
C40   C41   S    
C53   O24   S    
C42   H9    S    
H8    O10   S    
C58   N2    A    
C57   O20   S    
C42   C43   S    
C35   N1    A    
C58   O23   S    
C30   N4    A    
C3    H45   S    
O29   Zn1   S    
O2    Zn1   S    
C43   H13   S    
C54   H47   S    
C48   H27   S    
C36   O12   S    
C41   H2    S    
C3    C5    A    
C46   H19   S    
C15   C17   A    
C6    C7    A    
O1    Zn1   S    
C52   H41   S    
C41   H52   S    
C32   C33   S    
C21   O10   S    
C44   O15   S    
C7    O22   S    
C11   C13   A    
C46   H21   S    
H6    O8    S    
C52   H40   S    
H36   O20   S    
C2    C55   A    
C22   C24   A    
H7    O9    S    
C25   O13   S    
C10   C11   A    
C29   O16   S    
C33   O19   S    
C50   H33   S    
C56   H34   S    
C40   O5    S    
C20   C21   A    
C45   C55   A    
C49   C50   S    
C34   C58   A    
C14   C15   A    
C35   O4    S    
C1    O1    A    
C13   C14   A    
C32   O17   S    
