data_mof_unit_19569.cif
_audit_creation_date              2012-12-11T15:20:11-0500
_audit_creation_method            fapswitch 2.2
_symmetry_space_group_name_H-M    P1
_symmetry_Int_Tables_number       1
_space_group_crystal_system       triclinic
_cell_length_a                    16.701938
_cell_length_b                    16.710069
_cell_length_c                    42.983688
_cell_angle_alpha                 90.059186
_cell_angle_beta                  90.01555
_cell_angle_gamma                 120.006841
_cell_volume                      10388.4095739

loop_
_atom_site_label
_atom_site_type_symbol
_atom_type_description
_atom_site_fract_x
_atom_site_fract_y
_atom_site_fract_z
_atom_type_partial_charge
C1    C     C_R   0.582641 0.426452 0.794278 0.539945
C2    C     C_R   0.843978 0.417242 0.705732 0.544664
C3    C     C_R   0.573904 0.156757 0.794497 0.541898
C4    C     C_R   0.582670 0.426656 0.705729 0.543935
C5    C     C_R   0.842688 0.416870 0.794651 0.540785
C6    C     C_R   0.573247 0.155951 0.705733 0.544867
C7    C     C_R   0.426119 0.582869 0.294451 0.541293
C8    C     C_R   0.416890 0.843421 0.205628 0.544068
C9    C     C_R   0.156782 0.573970 0.294459 0.539154
C10   C     C_R   0.426661 0.582471 0.205774 0.553888
C11   C     C_R   0.417214 0.843281 0.294460 0.539786
C12   C     C_R   0.156785 0.573440 0.205510 0.543880
C13   C     C_R   0.991279 0.433620 0.141511 -0.087313
C14   C     C_R   0.435518 0.978407 0.367075 -0.084510
C15   C     C_R   0.555441 0.571295 0.135738 -0.073765
C16   C     C_R   0.021816 0.457213 0.367015 -0.084447
C17   C     C_R   0.451352 0.009531 0.140584 -0.105581
C18   C     C_R   0.543392 0.564799 0.366958 -0.084199
C19   C     C_R   0.437262 0.001891 0.639044 -0.089268
C20   C     C_R   0.969670 0.430210 0.868943 -0.077370
C21   C     C_R   0.564631 0.561848 0.638910 -0.089114
C22   C     C_R   0.456331 0.025550 0.867581 -0.084123
C23   C     C_R   0.997322 0.434946 0.638924 -0.089414
C24   C     C_R   0.560281 0.551422 0.863757 -0.085889
C25   C     C_R   0.031308 0.461425 0.170919 -0.164536
C26   C     C_R   0.426202 0.953599 0.335619 -0.152171
C27   C     C_R   0.535169 0.580282 0.166568 -0.151980
C28   C     C_R   0.046542 0.472699 0.335568 -0.152022
C29   C     C_R   0.436659 0.970507 0.170301 -0.174735
C30   C     C_R   0.527748 0.574158 0.335533 -0.151569
C31   C     C_R   0.461505 0.037823 0.669047 -0.163166
C32   C     C_R   0.948834 0.423535 0.837141 -0.145976
C33   C     C_R   0.576254 0.537946 0.668948 -0.163088
C34   C     C_R   0.471531 0.049564 0.836080 -0.151730
C35   C     C_R   0.961653 0.423324 0.668944 -0.163190
C36   C     C_R   0.572133 0.532090 0.833025 -0.152458
C37   C     C_R   0.124491 0.619514 0.152530 0.047081
C38   C     C_R   0.490443 0.854613 0.346603 0.021054
C39   C     C_R   0.370797 0.497444 0.154505 0.048774
C40   C     C_R   0.145667 0.635912 0.346641 0.020793
C41   C     C_R   0.488146 0.865842 0.152208 0.057266
C42   C     C_R   0.364453 0.509683 0.346576 0.020705
C43   C     C_R   0.624050 0.118752 0.654576 0.036468
C44   C     C_R   0.847804 0.485932 0.847171 0.017278
C45   C     C_R   0.494805 0.375347 0.654537 0.036325
C46   C     C_R   0.636292 0.141042 0.846173 0.022128
C47   C     C_R   0.880842 0.505110 0.654596 0.036340
C48   C     C_R   0.504899 0.369726 0.846236 0.025993
C49   C     C_R   0.087255 0.590025 0.122454 0.286714
C50   C     C_R   0.477003 0.861675 0.378534 0.307933
C51   C     C_R   0.392392 0.499695 0.122708 0.295528
C52   C     C_R   0.138635 0.615432 0.378568 0.308097
C53   C     C_R   0.496081 0.900341 0.121876 0.282068
C54   C     C_R   0.385048 0.522933 0.378512 0.307973
C55   C     C_R   0.598469 0.089465 0.623532 0.279544
C56   C     C_R   0.850616 0.469365 0.879113 0.304330
C57   C     C_R   0.491293 0.400589 0.623458 0.279702
C58   C     C_R   0.617897 0.133772 0.878327 0.299865
C59   C     C_R   0.909805 0.508710 0.623530 0.279601
C60   C     C_R   0.512883 0.393314 0.877952 0.306734
C61   C     C_R   0.020755 0.496748 0.116946 0.222379
C62   C     C_R   0.456704 0.929608 0.389145 0.230034
C63   C     C_R   0.485077 0.534442 0.113354 0.222817
C64   C     C_R   0.070678 0.527210 0.389127 0.230053
C65   C     C_R   0.478404 0.973029 0.116029 0.203631
C66   C     C_R   0.473393 0.543318 0.389060 0.230052
C67   C     C_R   0.504565 0.030320 0.615807 0.220279
C68   C     C_R   0.917716 0.448940 0.890528 0.229860
C69   C     C_R   0.525941 0.494349 0.615685 0.220323
C70   C     C_R   0.528321 0.070657 0.889293 0.227636
C71   C     C_R   0.968796 0.473869 0.615734 0.220253
C72   C     C_R   0.534429 0.483381 0.886793 0.229149
C73   C     C_R   0.885302 0.448322 0.825943 -0.029239
C74   C     C_R   0.554049 0.100277 0.676816 -0.032017
C75   C     C_R   0.547641 0.441853 0.824099 -0.027900
C76   C     C_R   0.899399 0.453559 0.676789 -0.032170
C77   C     C_R   0.560994 0.110521 0.825167 -0.029427
C78   C     C_R   0.546196 0.445541 0.676772 -0.032005
C79   C     C_R   0.450516 0.889048 0.325150 -0.028523
C80   C     C_R   0.100776 0.553297 0.176608 -0.030833
C81   C     C_R   0.438768 0.549711 0.325110 -0.028116
C82   C     C_R   0.452412 0.896772 0.176327 -0.046057
C83   C     C_R   0.111115 0.561550 0.325145 -0.028395
C84   C     C_R   0.443448 0.547362 0.176113 -0.020623
C85   C     C_R   0.932066 0.508939 0.039610 0.021190
C86   C     C_R   0.531476 0.953285 0.471699 0.020807
C87   C     C_R   0.453608 0.442312 0.033416 0.021814
C88   C     C_R   0.046590 0.578185 0.471676 0.020724
C89   C     C_R   0.574568 0.040930 0.037200 0.018621
C90   C     C_R   0.422447 0.467454 0.471456 0.020501
C91   C     C_R   0.522448 0.950502 0.537446 0.021867
C92   C     C_R   0.933177 0.517847 0.973780 0.021397
C93   C     C_R   0.428489 0.475768 0.537219 0.021500
C94   C     C_R   0.576744 0.037784 0.971329 0.019081
C95   C     C_R   0.048695 0.571727 0.537433 0.021497
C96   C     C_R   0.447387 0.440044 0.967672 0.018987
C97   C     C_R   0.936422 0.505016 0.072369 0.478613
C98   C     C_R   0.536867 0.961371 0.439035 0.479238
C99   C     C_R   0.461743 0.445857 0.066077 0.480718
C100  C     C_R   0.038785 0.575583 0.438996 0.479281
C101  C     C_R   0.570551 0.042846 0.069982 0.480155
C102  C     C_R   0.425237 0.462514 0.438774 0.478955
C103  C     C_R   0.516497 0.951595 0.570164 0.483362
C104  C     C_R   0.942414 0.524894 0.941125 0.481328
C105  C     C_R   0.435337 0.481726 0.569943 0.483371
C106  C     C_R   0.571849 0.030512 0.938588 0.480144
C107  C     C_R   0.047401 0.564618 0.570150 0.483057
C108  C     C_R   0.446285 0.443811 0.934937 0.474836
C109  C     C_R   0.008119 0.412070 0.069012 0.488397
C110  C     C_R   0.392403 0.958199 0.436927 0.499619
C111  C     C_R   0.565244 0.609088 0.064760 0.478407
C112  C     C_R   0.042000 0.434381 0.436885 0.498902
C113  C     C_R   0.408991 0.992358 0.068497 0.486671
C114  C     C_R   0.566205 0.607261 0.436910 0.499180
C115  C     C_R   0.423804 0.023586 0.567353 0.477502
C116  C     C_R   0.943378 0.382649 0.938427 0.497248
C117  C     C_R   0.600026 0.575002 0.567266 0.477274
C118  C     C_R   0.440967 0.052203 0.937703 0.490954
C119  C     C_R   0.975415 0.399971 0.567213 0.477909
C120  C     C_R   0.597053 0.577435 0.934336 0.501898
C121  C     C_R   0.989872 0.399387 0.036541 0.008254
C122  C     C_R   0.398389 0.977424 0.469310 0.009606
C123  C     C_R   0.577248 0.605016 0.032186 0.006451
C124  C     C_R   0.022498 0.421043 0.469239 0.009057
C125  C     C_R   0.413404 0.007498 0.035833 0.008274
C126  C     C_R   0.579435 0.600991 0.469270 0.009411
C127  C     C_R   0.410753 0.005564 0.534893 0.008896
C128  C     C_R   0.961348 0.387552 0.970914 0.002289
C129  C     C_R   0.595113 0.588138 0.534821 0.008459
C130  C     C_R   0.427912 0.033583 0.970122 0.000290
C131  C     C_R   0.993620 0.405022 0.534773 0.008634
C132  C     C_R   0.589631 0.591122 0.966565 0.012919
C133  C     C_R   0.956731 0.453125 0.021693 -0.088755
C134  C     C_R   0.464732 0.967714 0.486960 -0.091713
C135  C     C_R   0.516273 0.521699 0.016390 -0.081630
C136  C     C_R   0.031994 0.496993 0.486909 -0.091911
C137  C     C_R   0.496271 0.027767 0.020104 -0.089456
C138  C     C_R   0.503468 0.534244 0.486817 -0.091609
C139  C     C_R   0.465760 0.974377 0.519784 -0.082064
C140  C     C_R   0.949611 0.452238 0.988832 -0.095275
C141  C     C_R   0.509028 0.532921 0.519636 -0.082076
C142  C     C_R   0.500529 0.033578 0.987216 -0.093597
C143  C     C_R   0.024991 0.491246 0.519724 -0.082772
C144  C     C_R   0.518007 0.517484 0.983568 -0.090141
C145  C     C_R   0.906881 0.568662 0.024334 0.033017
C146  C     C_R   0.591018 0.932813 0.489343 0.027512
C147  C     C_R   0.384846 0.362874 0.017508 0.024231
C148  C     C_R   0.066894 0.658116 0.489362 0.027375
C149  C     C_R   0.653026 0.049472 0.021219 0.024608
C150  C     C_R   0.342496 0.407404 0.489017 0.027271
C151  C     C_R   0.584504 0.928765 0.522041 0.030746
C152  C     C_R   0.910175 0.575172 0.991622 0.029184
C153  C     C_R   0.344881 0.413431 0.521733 0.029988
C154  C     C_R   0.653801 0.046976 0.988438 0.022622
C155  C     C_R   0.070559 0.655533 0.522069 0.030533
C156  C     C_R   0.380596 0.362364 0.984751 0.024912
C157  C     C_R   0.007888 0.339122 0.018209 0.279397
C158  C     C_R   0.340304 0.004512 0.484583 0.276897
C159  C     C_R   0.644570 0.681502 0.014758 0.267900
C160  C     C_R   0.995257 0.335849 0.484463 0.277352
C161  C     C_R   0.337206 0.998548 0.018190 0.275977
C162  C     C_R   0.664503 0.659185 0.484621 0.276831
C163  C     C_R   0.348618 0.021537 0.516864 0.266255
C164  C     C_R   0.990069 0.330529 0.985977 0.281986
C165  C     C_R   0.673184 0.650635 0.516880 0.265704
C166  C     C_R   0.345926 0.015575 0.985922 0.276982
C167  C     C_R   0.977714 0.326976 0.516703 0.266267
C168  C     C_R   0.651945 0.673815 0.982381 0.276884
Cr1   Cr    Cr6+3 0.530290 0.262330 0.750000 1.130394
Cr2   Cr    Cr6+3 0.732040 0.469710 0.750000 1.129629
Cr3   Cr    Cr6+3 0.737670 0.267960 0.750000 1.129569
Cr4   Cr    Cr6+3 0.262330 0.530290 0.250000 1.129117
Cr5   Cr    Cr6+3 0.469710 0.732040 0.250000 1.115482
Cr6   Cr    Cr6+3 0.267960 0.737670 0.250000 1.131782
H1    H     H_    0.010819 0.409751 0.189015 0.155499
H2    H     H_    0.398890 0.983831 0.319522 0.152824
H3    H     H_    0.591735 0.615867 0.182853 0.146406
H4    H     H_    0.016224 0.415152 0.319441 0.152119
H5    H     H_    0.409801 0.995786 0.188390 0.168817
H6    H     H_    0.585262 0.601572 0.319422 0.152230
H7    H     H_    0.406961 0.019973 0.685916 0.161076
H8    H     H_    0.981410 0.397964 0.821325 0.151836
H9    H     H_    0.612849 0.592638 0.685807 0.160753
H10   H     H_    0.413098 0.022039 0.820317 0.154267
H11   H     H_    0.979577 0.386609 0.685770 0.161167
H12   H     H_    0.601851 0.587925 0.816280 0.154801
H13   H     H_    0.939513 0.362042 0.137543 0.169173
H14   H     H_    0.420990 0.031851 0.374376 0.174530
H15   H     H_    0.626604 0.596808 0.128983 0.172853
H16   H     H_    0.968355 0.389247 0.374273 0.174240
H17   H     H_    0.437872 0.065573 0.136344 0.178793
H18   H     H_    0.611456 0.579427 0.374216 0.174258
H19   H     H_    0.365292 0.955133 0.633488 0.173066
H20   H     H_    0.022632 0.415654 0.876801 0.175945
H21   H     H_    0.589762 0.633714 0.633321 0.173048
H22   H     H_    0.387318 0.975728 0.875255 0.173448
H23   H     H_    0.043975 0.409675 0.633320 0.173108
H24   H     H_    0.576001 0.620645 0.869869 0.173445
N1    N     N_R   0.984035 0.466897 0.085972 -0.383340
N2    N     N_R   0.462127 0.951271 0.422112 -0.382069
N3    N     N_R   0.506803 0.529839 0.081039 -0.382257
N4    N     N_R   0.048986 0.511005 0.422080 -0.382085
N5    N     N_R   0.486682 0.007812 0.084714 -0.379144
N6    N     N_R   0.489700 0.537566 0.421990 -0.382126
N7    N     N_R   0.478225 0.998560 0.584159 -0.381179
N8    N     N_R   0.935581 0.452095 0.923801 -0.381212
N9    N     N_R   0.520548 0.520343 0.584009 -0.381124
N10   N     N_R   0.512298 0.049741 0.922296 -0.382138
N11   N     N_R   0.000404 0.479360 0.584076 -0.381275
N12   N     N_R   0.525589 0.503548 0.919019 -0.382856
O1    O     O_R   0.509640 0.171340 0.784000 -0.486477
O2    O     O_R   0.661700 0.490360 0.716000 -0.487108
O3    O     O_R   0.828660 0.338300 0.784000 -0.488658
O4    O     O_R   0.509640 0.171340 0.716000 -0.486723
O5    O     O_R   0.661700 0.490360 0.784000 -0.487582
O6    O     O_R   0.828660 0.338300 0.716000 -0.486512
O7    O     O_R   0.171340 0.509640 0.284000 -0.487403
O8    O     O_R   0.490360 0.661700 0.216000 -0.497956
O9    O     O_R   0.338300 0.828660 0.284000 -0.487050
O10   O     O_R   0.171340 0.509640 0.216000 -0.488229
O11   O     O_R   0.490360 0.661700 0.284000 -0.487978
O12   O     O_R   0.338300 0.828660 0.216000 -0.472446
O13   O     O_R   0.539230 0.345420 0.781810 -0.462830
O14   O     O_R   0.806190 0.460770 0.718190 -0.462868
O15   O     O_R   0.654580 0.193810 0.781810 -0.464098
O16   O     O_R   0.539230 0.345420 0.718190 -0.463114
O17   O     O_R   0.806190 0.460770 0.781810 -0.461369
O18   O     O_R   0.654580 0.193810 0.718190 -0.462363
O19   O     O_R   0.345420 0.539230 0.281810 -0.462321
O20   O     O_R   0.460770 0.806190 0.218190 -0.467258
O21   O     O_R   0.193810 0.654580 0.281810 -0.464250
O22   O     O_R   0.345420 0.539230 0.218190 -0.463491
O23   O     O_R   0.460770 0.806190 0.281810 -0.464242
O24   O     O_R   0.193810 0.654580 0.218190 -0.462059
O25   O     O_3   0.666667 0.333333 0.750000 -0.289666
O26   O     O_3   0.333333 0.666667 0.250000 -0.287308
O27   O     O_2   0.901300 0.538302 0.089030 -0.447776
O28   O     O_2   0.607509 0.976935 0.425466 -0.431108
O29   O     O_2   0.427412 0.374920 0.081468 -0.448928
O30   O     O_2   0.023321 0.630664 0.425409 -0.431039
O31   O     O_2   0.640730 0.072753 0.085697 -0.447979
O32   O     O_2   0.370387 0.391991 0.425065 -0.431609
O33   O     O_2   0.547706 0.913737 0.586458 -0.445833
O34   O     O_2   0.956777 0.595647 0.927953 -0.429696
O35   O     O_2   0.366129 0.450360 0.586178 -0.446006
O36   O     O_2   0.620483 0.007464 0.924385 -0.432880
O37   O     O_2   0.085198 0.633654 0.586501 -0.445876
O38   O     O_2   0.375856 0.393305 0.920373 -0.440789
O39   O     O_2   0.047188 0.376559 0.082226 -0.376991
O40   O     O_2   0.324859 0.945682 0.422059 -0.371709
O41   O     O_2   0.604723 0.682675 0.078606 -0.381149
O42   O     O_2   0.054660 0.379440 0.422032 -0.371601
O43   O     O_2   0.336347 0.963964 0.082562 -0.398932
O44   O     O_2   0.621104 0.675015 0.422157 -0.371727
O45   O     O_2   0.389017 0.063257 0.580650 -0.385387
O46   O     O_2   0.933118 0.316412 0.923267 -0.363853
O47   O     O_2   0.674468 0.609980 0.580607 -0.385111
O48   O     O_2   0.390573 0.072358 0.923306 -0.367998
O49   O     O_2   0.935680 0.325495 0.580446 -0.385072
O50   O     O_2   0.667453 0.629121 0.920099 -0.375807
Cl1   Cl    Cl    0.013248 0.253076 0.964756 -0.362390
Cl2   Cl    Cl    0.277248 0.060629 0.533850 -0.318588
Cl3   Cl    Cl    0.735209 0.773022 0.961926 -0.385990
Cl4   Cl    Cl    0.937872 0.216340 0.533575 -0.319300
Cl5   Cl    Cl    0.248430 0.004858 0.965572 -0.339442
Cl6   Cl    Cl    0.783538 0.722209 0.533960 -0.318383
Cl7   Cl    Cl    0.261729 0.026510 0.463574 -0.367217
Cl8   Cl    Cl    0.053235 0.272392 0.034564 -0.329583
Cl9   Cl    Cl    0.765011 0.738287 0.463730 -0.366854
Cl10  Cl    Cl    0.228127 0.964646 0.035403 -0.330992
Cl11  Cl    Cl    0.973790 0.235451 0.463430 -0.365751
Cl12  Cl    Cl    0.724611 0.787707 0.032706 -0.324126
C169  C     C_2   0.823666 0.556790 0.837226 0.628650
O51   O     O_2   0.864809 0.607920 0.815406 -0.468977
O52   O     O_R   0.761510 0.572067 0.854306 -0.611548
H25   H     H_    0.758873 0.628169 0.846771 0.355617
C170  C     C_2   0.722730 0.161980 0.663552 0.640519
O53   O     O_2   0.745210 0.129589 0.685102 -0.464792
O54   O     O_R   0.790497 0.235434 0.646362 -0.612304
H26   H     H_    0.854825 0.248808 0.652090 0.357031
C171  C     C_2   0.438967 0.272926 0.836581 0.629915
O55   O     O_2   0.388000 0.258770 0.814285 -0.469722
O56   O     O_R   0.428472 0.198178 0.854160 -0.610336
H27   H     H_    0.373912 0.137576 0.846983 0.353532
C172  C     C_2   0.837939 0.560756 0.663649 0.640829
O57   O     O_2   0.870711 0.615664 0.685212 -0.465458
O58   O     O_R   0.764340 0.555186 0.646526 -0.612297
H28   H     H_    0.751112 0.606160 0.652337 0.357019
C173  C     C_2   0.730151 0.164441 0.835160 0.634401
O59   O     O_2   0.737669 0.122740 0.812976 -0.470162
O60   O     O_R   0.809420 0.227630 0.851242 -0.614351
H29   H     H_    0.867584 0.231267 0.842560 0.353079
C174  C     C_2   0.439214 0.276824 0.663559 0.640665
O61   O     O_2   0.384267 0.254673 0.685077 -0.465261
O62   O     O_R   0.444873 0.208826 0.646454 -0.612381
H30   H     H_    0.393866 0.144625 0.652214 0.357073
C175  C     C_2   0.560115 0.828897 0.336579 0.629203
O63   O     O_2   0.610456 0.868455 0.314423 -0.473301
O64   O     O_R   0.575075 0.766896 0.353833 -0.611962
H31   H     H_    0.630262 0.762849 0.346079 0.354340
C176  C     C_2   0.186920 0.719302 0.157870 0.637633
O65   O     O_2   0.167374 0.759914 0.177434 -0.455659
O66   O     O_R   0.263831 0.768243 0.138747 -0.619398
H32   H     H_    0.290196 0.837201 0.140601 0.359354
C177  C     C_2   0.269011 0.440114 0.336528 0.629179
O67   O     O_2   0.258180 0.389650 0.314369 -0.469689
O68   O     O_R   0.192044 0.425428 0.353750 -0.612203
H33   H     H_    0.132760 0.370274 0.345984 0.354581
C178  C     C_2   0.516917 0.797141 0.157879 0.654922
O69   O     O_2   0.473067 0.720181 0.146395 -0.470573
O70   O     O_R   0.597643 0.822925 0.174826 -0.637663
H34   H     H_    0.615352 0.773191 0.175111 0.349190
C179  C     C_2   0.171438 0.731278 0.336658 0.628788
O71   O     O_2   0.131851 0.742046 0.314487 -0.471827
O72   O     O_R   0.233501 0.808235 0.353968 -0.611934
H35   H     H_    0.237548 0.867448 0.346241 0.354790
C180  C     C_2   0.273904 0.437336 0.164864 0.642354
O73   O     O_2   0.257371 0.381739 0.185825 -0.471438
O74   O     O_R   0.201274 0.440415 0.149948 -0.610163
H36   H     H_    0.138842 0.389115 0.157192 0.355305
C181  C     C_2   0.884594 0.639374 0.976553 0.664505
O75   O     O_2   0.817289 0.609058 0.959390 -0.381225
O76   O     O_R   0.936869 0.734157 0.982579 -0.590375
H37   H     H_    0.913047 0.770857 0.970999 0.399282
C182  C     C_2   0.646436 0.905459 0.539716 0.679593
O77   O     O_2   0.712996 0.965995 0.553725 -0.337937
O78   O     O_R   0.628212 0.814294 0.540135 -0.676872
H38   H     H_    0.673404 0.806496 0.553729 0.377499
C183  C     C_2   0.308424 0.277571 0.968901 0.678603
O79   O     O_2   0.330886 0.233103 0.952070 -0.351179
O80   O     O_R   0.215003 0.247671 0.974023 -0.588140
H39   H     H_    0.172531 0.188594 0.962352 0.395668
C184  C     C_2   0.093585 0.740653 0.539793 0.679685
O81   O     O_2   0.032844 0.746441 0.553721 -0.337708
O82   O     O_R   0.184721 0.813752 0.540356 -0.677101
H40   H     H_    0.192314 0.866644 0.553971 0.377807
C185  C     C_2   0.738377 0.059279 0.972542 0.674280
O83   O     O_2   0.782249 0.125609 0.955463 -0.363926
O84   O     O_R   0.768458 0.995945 0.977716 -0.582055
H41   H     H_    0.827204 0.012237 0.965908 0.396175
C186  C     C_2   0.259829 0.350601 0.539329 0.679721
O85   O     O_2   0.255255 0.285216 0.553628 -0.337691
O86   O     O_R   0.185316 0.366496 0.539290 -0.675870
H42   H     H_    0.132537 0.320808 0.552824 0.379064
C187  C     C_2   0.657114 0.909981 0.474124 0.667293
O87   O     O_2   0.628433 0.842916 0.456920 -0.372835
O88   O     O_R   0.751765 0.964207 0.480163 -0.583136
H43   H     H_    0.789650 0.941474 0.468702 0.398299
C188  C     C_2   0.880100 0.627941 0.042061 0.676831
O89   O     O_2   0.939076 0.696350 0.055755 -0.346725
O90   O     O_R   0.787547 0.605520 0.042665 -0.680519
H44   H     H_    0.777483 0.649775 0.055994 0.370936
C189  C     C_2   0.253702 0.341213 0.473698 0.668662
O91   O     O_2   0.215057 0.369805 0.456608 -0.371936
O92   O     O_R   0.213681 0.246570 0.479521 -0.583605
H45   H     H_    0.153072 0.208632 0.468033 0.397956
C190  C     C_2   0.732921 0.055099 0.038359 0.679288
O93   O     O_2   0.723069 0.989128 0.053668 -0.336115
O94   O     O_R   0.819239 0.135339 0.036564 -0.659534
H46   H     H_    0.867561 0.130755 0.049466 0.393159
C191  C     C_2   0.089973 0.747084 0.474184 0.667143
O95   O     O_2   0.157205 0.785453 0.457087 -0.373751
O96   O     O_R   0.035774 0.787550 0.480135 -0.583271
H47   H     H_    0.058678 0.848186 0.468711 0.398343
C192  C     C_2   0.312874 0.281449 0.034705 0.679041
O97   O     O_2   0.258439 0.289601 0.051565 -0.336067
O98   O     O_R   0.306550 0.195434 0.031040 -0.639864
H48   H     H_    0.254555 0.145803 0.043856 0.397079
Cl13  Cl    Cl    0.764188 0.464096 0.904281 -0.376540
Cl14  Cl    Cl    0.683487 0.128945 0.593838 -0.376617
Cl15  Cl    Cl    0.503883 0.313204 0.906650 -0.367747
Cl16  Cl    Cl    0.870127 0.554247 0.593899 -0.376364
Cl17  Cl    Cl    0.703919 0.209459 0.904765 -0.387678
Cl18  Cl    Cl    0.446211 0.315338 0.593783 -0.376158
Cl19  Cl    Cl    0.475778 0.779608 0.404848 -0.372080
Cl20  Cl    Cl    0.125269 0.669441 0.091031 -0.387618
Cl21  Cl    Cl    0.304106 0.523619 0.404952 -0.372223
Cl22  Cl    Cl    0.523238 0.848424 0.090663 -0.383323
Cl23  Cl    Cl    0.220717 0.696307 0.404958 -0.372286
Cl24  Cl    Cl    0.304250 0.463994 0.094219 -0.365429

loop_
_geom_bond_atom_site_label_1
_geom_bond_atom_site_label_2
_ccdc_geom_bond_type
C132  C144  A    
C2    O6    A    
C190  O93   D    
C183  O80   S    
O60   H29   S    
Cr6   O12   S    
C112  N4    Am   
C13   C25   A    
C185  O83   D    
Cr4   O22   S    
C93   C141  A    
C184  O81   D    
C17   H17   S    
C41   C178  S    
C54   Cl21  S    
C47   C76   A    
C112  C124  A    
C106  N10   Am   
C109  O39   D    
C33   C78   A    
C21   C33   A    
C60   C72   A    
Cr1   O1    S    
C86   C134  A    
C105  N9    Am   
C45   C78   A    
C55   Cl14  S    
C67   N7    S    
C48   C60   A    
C178  O70   S    
C96   C108  A    
C19   C31   A    
C31   H7    S    
C28   C83   A    
C40   C83   A    
C22   C34   A    
Cr6   O24   S    
C189  O92   S    
Cr4   O26   S    
C120  N12   Am   
C114  O44   D    
C125  C161  A    
O76   H37   S    
C58   C70   A    
Cr2   O5    S    
C120  O50   D    
C4    C78   S    
C96   C144  A    
C162  C165  A    
C15   C27   A    
O66   H32   S    
C65   N5    S    
C18   H18   S    
C10   O22   A    
C122  C158  A    
C14   C26   A    
C11   C79   S    
C9    C83   S    
Cr2   O14   S    
Cr3   O6    S    
C147  C192  S    
C52   Cl23  S    
C109  N1    Am   
C3    C77   S    
C131  C143  A    
C116  O46   D    
C89   C101  A    
C20   C68   A    
C91   C103  A    
C60   Cl15  S    
C138  C141  A    
C46   C77   A    
C108  N12   Am   
C56   Cl13  S    
C118  O48   D    
C129  C165  A    
C161  Cl10  S    
C97   O27   D    
Cr2   O25   S    
C108  O38   D    
C1    O13   A    
C93   C153  A    
C29   C82   A    
C172  O58   S    
C40   C52   A    
C192  O97   D    
C109  C121  A    
C96   C156  A    
C123  C159  A    
C152  C181  S    
C41   C82   A    
C124  C160  A    
C154  C185  S    
C113  N5    Am   
C85   C97   A    
C92   C104  A    
C47   C59   A    
O82   H40   S    
C1    O5    A    
Cr2   O2    S    
Cr3   O18   S    
C181  O75   D    
C29   H5    S    
C123  C135  A    
O94   H46   S    
C30   H6    S    
Cr1   O16   S    
C146  C187  S    
C12   O10   A    
C42   C54   A    
C11   O23   A    
C39   C51   A    
C137  C142  A    
C188  O89   D    
C13   H13   S    
O90   H44   S    
C90   C150  A    
C111  N3    Am   
Cr3   O25   S    
C24   C36   A    
C27   C84   A    
C85   C145  A    
C39   C84   A    
C136  C143  A    
C7    O11   A    
C179  O72   S    
C14   C62   A    
C128  C164  A    
C182  O78   S    
C122  C134  A    
C40   C179  S    
C177  O68   S    
C119  C131  A    
C102  O32   D    
C148  C155  A    
C117  C129  A    
Cr4   O10   S    
Cr5   O26   S    
C94   C154  A    
C66   N6    S    
C15   H15   S    
C131  C167  A    
C170  O53   D    
C46   C58   A    
C175  O64   S    
C44   C73   A    
C42   C81   A    
C39   C180  S    
C90   C138  A    
C184  O82   S    
C186  O86   S    
C3    O1    A    
C45   C57   A    
C37   C80   A    
C35   C76   A    
C42   C177  S    
C110  N2    Am   
C94   C142  A    
C101  N5    Am   
C134  C139  A    
C31   C74   A    
C50   Cl19  S    
C56   C68   A    
C5    O17   A    
C21   C69   A    
C46   C173  S    
C174  O61   D    
C36   C75   A    
C25   H1    S    
C43   C170  S    
C26   H2    S    
O54   H26   S    
C105  O35   D    
C2    O14   A    
C173  O59   D    
Cr5   O8    S    
C113  O43   D    
C41   C53   A    
C158  C163  A    
C43   C55   A    
C7    C81   S    
C98   O28   D    
C104  N8    Am   
C165  Cl6   S    
C68   N8    S    
C114  N6    Am   
C11   O9    A    
C8    O12   A    
C24   C72   A    
C20   C32   A    
C9    O7    A    
C157  Cl8   S    
C158  Cl7   S    
Cr1   O25   S    
C103  N7    Am   
Cr4   O19   S    
C54   C66   A    
C171  O56   S    
C153  C186  S    
C128  C140  A    
C169  O52   S    
C100  O30   D    
C5    C73   S    
C130  C142  A    
C116  N8    Am   
C145  C152  A    
C145  C188  S    
Cr5   O20   S    
C24   H24   S    
C146  C151  A    
C148  C191  S    
O56   H27   S    
C111  O41   D    
C22   C70   A    
C119  O49   D    
C162  Cl9   S    
C95   C143  A    
C25   C80   A    
C17   C29   A    
C97   N1    Am   
O52   H25   S    
O70   H34   S    
Cr5   O11   S    
C189  O91   D    
C110  O40   D    
C191  O96   S    
C87   C147  A    
C8    C82   S    
C34   C77   A    
C129  C141  A    
C38   C79   A    
C175  O63   D    
C180  O74   S    
C102  N6    Am   
C64   N4    S    
C100  N4    Am   
C94   C106  A    
C150  C153  A    
C6    O18   A    
O96   H47   S    
C19   C67   A    
C4    O16   A    
C187  O88   S    
C63   N3    S    
C99   O29   D    
C89   C149  A    
C44   C169  S    
O72   H35   S    
C190  O94   S    
Cr2   O17   S    
C99   N3    Am   
C61   N1    S    
C86   C146  A    
C185  O84   S    
Cr5   O23   S    
C6    C74   S    
C176  O66   S    
C69   N9    S    
C119  N11   Am   
C124  C136  A    
C111  C123  A    
O68   H33   S    
C87   C135  A    
C51   C63   A    
C88   C136  A    
C52   C64   A    
O88   H43   S    
C125  C137  A    
C178  O69   D    
O64   H31   S    
C172  O57   D    
C118  C130  A    
C23   C71   A    
C37   C49   A    
C130  C166  A    
O84   H41   S    
C6    O4    A    
C48   C171  S    
C149  C190  S    
C164  Cl1   S    
C21   H21   S    
C147  C156  A    
C88   C100  A    
C95   C107  A    
C91   C139  A    
C89   C137  A    
C53   Cl22  S    
C49   Cl20  S    
C18   C66   A    
C92   C140  A    
O62   H30   S    
C2    C76   S    
C7    O19   A    
C32   H8    S    
C159  Cl12  S    
C160  Cl11  S    
C127  C163  A    
C176  O65   D    
C27   H3    S    
C117  N9    Am   
C107  N11   Am   
C26   C79   A    
C98   N2    Am   
C30   C81   A    
C62   N2    S    
O78   H38   S    
O80   H39   S    
C110  C122  A    
C49   C61   A    
C179  O71   D    
C114  C126  A    
C163  Cl2   S    
C166  Cl5   S    
C182  O77   D    
C86   C98   A    
C23   C35   A    
O74   H36   S    
Cr3   O3    S    
C133  C140  A    
C177  O67   D    
Cr6   O9    S    
C70   N10   S    
C58   Cl17  S    
Cr4   O7    S    
C85   C133  A    
C155  C184  S    
C16   C28   A    
C157  C164  A    
O86   H42   S    
C183  O79   D    
O98   H48   S    
C149  C154  A    
C115  C127  A    
C186  O85   D    
C12   O24   A    
Cr1   O4    S    
C107  O37   D    
C192  O98   S    
C113  C125  A    
C37   C176  S    
C14   H14   S    
C159  C168  A    
C160  C167  A    
C44   C56   A    
C93   C105  A    
C8    O20   A    
C90   C102  A    
O92   H45   S    
C181  O76   S    
C33   H9    S    
C103  O33   D    
C34   H10   S    
C18   C30   A    
C101  O31   D    
Cr6   O21   S    
C3    O15   A    
C36   H12   S    
C161  C166  A    
C43   C74   A    
C5    O3    A    
C188  O90   S    
C121  C157  A    
C48   C75   A    
C22   H22   S    
C127  C139  A    
C20   H20   S    
C112  O42   D    
C87   C99   A    
C88   C148  A    
C72   N12   S    
C1    C75   S    
Cr3   O15   S    
C47   C172  S    
C32   C73   A    
C71   N11   S    
C171  O55   D    
C104  O34   D    
C57   Cl18  S    
C118  N10   Am   
C92   C152  A    
C117  O47   D    
C35   H11   S    
C169  O51   D    
C115  O45   D    
C150  C189  S    
C106  O36   D    
C16   H16   S    
C156  C183  S    
C135  C144  A    
C19   H19   S    
C170  O54   S    
O58   H28   S    
C50   C62   A    
C53   C65   A    
C10   O8    A    
C151  C182  S    
C126  C138  A    
C120  C132  A    
C45   C174  S    
C132  C168  A    
C59   Cl16  S    
Cr6   O26   S    
C55   C67   A    
C38   C50   A    
C191  O95   D    
C23   H23   S    
C17   C65   A    
C4    O2    A    
C115  N7    Am   
C9    O21   A    
C57   C69   A    
C174  O62   S    
C91   C151  A    
C51   Cl24  S    
Cr1   O13   S    
C12   C80   S    
C10   C84   S    
C173  O60   S    
C95   C155  A    
C167  Cl4   S    
C180  O73   D    
C168  Cl3   S    
C13   C61   A    
C38   C175  S    
C116  C128  A    
C15   C63   A    
C16   C64   A    
C121  C133  A    
C187  O87   D    
C126  C162  A    
C28   H4    S    
C59   C71   A    
