data_mof_unit_16613.cif
_audit_creation_date              2012-12-10T20:53:06-0500
_audit_creation_method            fapswitch 2.2
_symmetry_space_group_name_H-M    P1
_symmetry_Int_Tables_number       1
_space_group_crystal_system       triclinic
_cell_length_a                    18.360722
_cell_length_b                    18.364767
_cell_length_c                    18.356593
_cell_angle_alpha                 59.841664
_cell_angle_beta                  59.932842
_cell_angle_gamma                 59.848601
_cell_volume                      4364.27191253

loop_
_atom_site_label
_atom_site_type_symbol
_atom_type_description
_atom_site_fract_x
_atom_site_fract_y
_atom_site_fract_z
_atom_type_partial_charge
C1    C     C_R   0.389920 0.110146 0.110171 0.480342
C2    C     C_R   0.381909 0.804177 0.777473 -0.100151
C3    C     C_R   0.905643 0.526907 0.039866 0.011870
C4    C     C_R   0.445308 0.088762 0.965869 0.010645
C5    C     C_R   0.554696 0.911239 0.034130 0.010641
C6    C     C_R   0.946067 0.945874 0.553745 0.006565
C7    C     C_R   0.053934 0.054126 0.446255 0.006566
C8    C     C_R   0.945938 0.553916 0.945937 0.010978
C9    C     C_R   0.054062 0.446082 0.054063 0.010979
C10   C     C_R   0.553822 0.945912 0.946022 0.007044
C11   C     C_R   0.446178 0.054087 0.053979 0.007045
C12   C     C_R   0.192982 0.214704 0.623965 -0.100978
C13   C     C_R   0.807013 0.785231 0.376123 -0.100957
C14   C     C_R   0.177264 0.577080 0.284036 -0.066665
C15   C     C_R   0.822727 0.422935 0.715958 -0.066661
C16   C     C_R   0.576178 0.285492 0.179585 -0.068109
C17   C     C_R   0.423851 0.714487 0.820378 -0.068112
C18   C     C_R   0.283300 0.173460 0.582564 -0.070889
C19   C     C_R   0.716700 0.826485 0.417528 -0.070813
C20   C     C_R   0.087225 0.585732 0.314433 0.058515
C21   C     C_R   0.610080 0.889853 0.889829 0.480343
C22   C     C_R   0.912770 0.414268 0.685566 0.058520
C23   C     C_R   0.585025 0.314875 0.089584 0.059320
C24   C     C_R   0.414981 0.685120 0.910383 0.059330
C25   C     C_R   0.313952 0.085076 0.586080 0.058382
C26   C     C_R   0.686043 0.914895 0.413926 0.058386
C27   C     C_R   0.039728 0.636542 0.254111 -0.081195
C28   C     C_R   0.960267 0.363440 0.745891 -0.081197
C29   C     C_R   0.636159 0.253845 0.043034 -0.080599
C30   C     C_R   0.363818 0.746160 0.956924 -0.080602
C31   C     C_R   0.253599 0.038357 0.631453 -0.079106
C32   C     C_R   0.110158 0.110150 0.389943 0.480242
C33   C     C_R   0.746387 0.961629 0.368464 -0.079178
C34   C     C_R   0.081932 0.678173 0.164251 -0.104015
C35   C     C_R   0.918056 0.321809 0.835748 -0.104022
C36   C     C_R   0.678042 0.164303 0.086101 -0.104485
C37   C     C_R   0.321929 0.835696 0.913845 -0.104497
C38   C     C_R   0.163400 0.079760 0.672936 -0.101979
C39   C     C_R   0.836579 0.920217 0.326975 -0.102020
C40   C     C_R   0.171635 0.669206 0.134211 -0.100484
C41   C     C_R   0.828350 0.330791 0.865783 -0.100487
C42   C     C_R   0.669048 0.135303 0.175706 -0.100558
C43   C     C_R   0.889842 0.889850 0.610057 0.480242
C44   C     C_R   0.330944 0.864679 0.824236 -0.100562
C45   C     C_R   0.133105 0.167847 0.669206 -0.100072
C46   C     C_R   0.866879 0.832104 0.330791 -0.100093
C47   C     C_R   0.987269 0.591251 0.464479 -0.162720
C48   C     C_R   0.012736 0.408747 0.535523 -0.162700
C49   C     C_R   0.590957 0.464661 0.988439 -0.163884
C50   C     C_R   0.409044 0.535339 0.011551 -0.163881
C51   C     C_R   0.464494 0.987103 0.591266 -0.166485
C52   C     C_R   0.535506 0.012890 0.408735 -0.166487
C53   C     C_R   0.944338 0.552447 0.555071 0.016845
C54   C     C_R   0.110184 0.389893 0.110184 0.480946
C55   C     C_R   0.055665 0.447552 0.444929 0.016854
C56   C     C_R   0.552506 0.555025 0.944291 0.016658
C57   C     C_R   0.447494 0.444975 0.055700 0.016660
C58   C     C_R   0.555202 0.944830 0.552359 0.015993
C59   C     C_R   0.444797 0.055162 0.447643 0.015994
C60   C     C_R   0.957008 0.459952 0.591047 -0.036856
C61   C     C_R   0.042994 0.540047 0.408954 -0.036861
C62   C     C_R   0.460316 0.590819 0.955789 -0.036703
C63   C     C_R   0.539686 0.409180 0.044196 -0.036707
C64   C     C_R   0.591232 0.957899 0.459809 -0.038001
C65   C     C_R   0.889817 0.610107 0.889815 0.480945
C66   C     C_R   0.408766 0.042088 0.540194 -0.038004
C67   C     C_R   0.110915 0.390438 0.389759 0.500084
C68   C     C_R   0.889085 0.609562 0.610241 0.500075
C69   C     C_R   0.390405 0.389783 0.110949 0.499727
C70   C     C_R   0.609595 0.610217 0.889048 0.499726
C71   C     C_R   0.389713 0.110710 0.390436 0.496383
C72   C     C_R   0.610287 0.889288 0.609564 0.496376
C73   C     C_R   0.931454 0.176260 0.389100 -0.091166
C74   C     C_R   0.068546 0.823741 0.610903 -0.091168
C75   C     C_R   0.188389 0.446744 0.919131 -0.094527
C76   C     C_R   0.219309 0.618690 0.194019 -0.099436
C77   C     C_R   0.811610 0.553259 0.080869 -0.094529
C78   C     C_R   0.392679 0.177798 0.929867 -0.091400
C79   C     C_R   0.607335 0.822205 0.070130 -0.091404
C80   C     C_R   0.845362 0.208800 0.387305 -0.122801
C81   C     C_R   0.154637 0.791203 0.612699 -0.122800
C82   C     C_R   0.227140 0.474125 0.826400 -0.127964
C83   C     C_R   0.772858 0.525876 0.173603 -0.127962
C84   C     C_R   0.392950 0.211250 0.842800 -0.122473
C85   C     C_R   0.607069 0.788755 0.157197 -0.122473
C86   C     C_R   0.792087 0.155081 0.440252 -0.127061
C87   C     C_R   0.780677 0.381325 0.805973 -0.099436
C88   C     C_R   0.207913 0.844922 0.559752 -0.127074
C89   C     C_R   0.173496 0.527936 0.772759 -0.128894
C90   C     C_R   0.826501 0.472058 0.227245 -0.128894
C91   C     C_R   0.446177 0.157651 0.789377 -0.123808
C92   C     C_R   0.553833 0.842350 0.210623 -0.123804
C93   C     C_R   0.824573 0.068598 0.495371 -0.095273
C94   C     C_R   0.175427 0.931403 0.504630 -0.095289
C95   C     C_R   0.080798 0.554630 0.811545 -0.095398
C96   C     C_R   0.919200 0.445362 0.188458 -0.095395
C97   C     C_R   0.499421 0.070324 0.822738 -0.093485
C98   C     C_R   0.618112 0.195796 0.222477 -0.100146
C99   C     C_R   0.500579 0.929674 0.177265 -0.093480
C100  C     C_R   0.912430 0.033348 0.497502 0.010464
C101  C     C_R   0.087570 0.966652 0.502498 0.010463
C102  C     C_R   0.039831 0.527605 0.905610 0.011827
C103  C     C_R   0.960168 0.472391 0.094391 0.011828
C104  C     C_R   0.499503 0.034240 0.911494 0.010378
C105  C     C_R   0.500497 0.965759 0.088507 0.010376
C106  C     C_R   0.966727 0.087937 0.443453 0.010770
C107  C     C_R   0.033273 0.912063 0.556548 0.010769
C108  C     C_R   0.094357 0.473092 0.960134 0.011872
H1    H     H_    0.978908 0.661758 0.436721 0.142313
H2    H     H_    0.767169 0.595142 0.041869 0.104746
H3    H     H_    0.351326 0.222856 0.968006 0.119261
H4    H     H_    0.648694 0.777149 0.031989 0.119271
H5    H     H_    0.819660 0.276254 0.345134 0.112152
H6    H     H_    0.180338 0.723751 0.654873 0.112155
H7    H     H_    0.299118 0.453498 0.796058 0.101250
H8    H     H_    0.700879 0.546506 0.203944 0.101253
H9    H     H_    0.352133 0.279280 0.816488 0.110522
H10   H     H_    0.647898 0.720729 0.183506 0.110525
H11   H     H_    0.779608 0.030393 0.536580 0.123081
H12   H     H_    0.021099 0.338240 0.563281 0.142310
H13   H     H_    0.220392 0.969608 0.463421 0.123075
H14   H     H_    0.041795 0.596515 0.767105 0.104827
H15   H     H_    0.958202 0.403473 0.232900 0.104823
H16   H     H_    0.540800 0.032035 0.777829 0.120774
H17   H     H_    0.459193 0.967961 0.222176 0.120768
H18   H     H_    0.204101 0.701210 0.064541 0.107473
H19   H     H_    0.795879 0.298786 0.935452 0.107480
H20   H     H_    0.701392 0.065905 0.208788 0.108747
H21   H     H_    0.298592 0.934072 0.791145 0.108759
H22   H     H_    0.063202 0.199764 0.701140 0.107643
H23   H     H_    0.661220 0.437079 0.980973 0.141972
H24   H     H_    0.936777 0.800180 0.298854 0.107649
H25   H     H_    0.288885 0.611454 0.170613 0.099032
H26   H     H_    0.711097 0.388573 0.829375 0.099029
H27   H     H_    0.610896 0.173169 0.291980 0.097188
H28   H     H_    0.389139 0.826793 0.707967 0.097193
H29   H     H_    0.169443 0.283072 0.620581 0.097556
H30   H     H_    0.830556 0.716844 0.379573 0.097570
H31   H     H_    0.214787 0.537655 0.329824 0.090298
H32   H     H_    0.785205 0.462373 0.670168 0.090285
H33   H     H_    0.536550 0.331851 0.216362 0.089237
H34   H     H_    0.338781 0.562921 0.019017 0.141968
H35   H     H_    0.463500 0.668121 0.783608 0.089226
H36   H     H_    0.329134 0.210386 0.547229 0.089057
H37   H     H_    0.670875 0.789546 0.452934 0.089042
H38   H     H_    0.970520 0.643014 0.276493 0.095913
H39   H     H_    0.029477 0.356956 0.723513 0.095907
H40   H     H_    0.642939 0.275519 0.973790 0.096409
H41   H     H_    0.357020 0.724499 0.026173 0.096410
H42   H     H_    0.276295 0.970387 0.633945 0.094011
H43   H     H_    0.723688 0.029618 0.365907 0.094020
H44   H     H_    0.045211 0.717066 0.117828 0.110303
H45   H     H_    0.436724 0.978541 0.661797 0.141904
H46   H     H_    0.954777 0.282902 0.882174 0.110302
H47   H     H_    0.717281 0.117345 0.050083 0.110268
H48   H     H_    0.282667 0.882661 0.949857 0.110265
H49   H     H_    0.116941 0.043681 0.707675 0.111800
H50   H     H_    0.883029 0.956309 0.292165 0.111804
H51   H     H_    0.275043 0.819241 0.560761 0.103013
H52   H     H_    0.724955 0.180763 0.439244 0.103021
H53   H     H_    0.796188 0.450885 0.299250 0.101620
H54   H     H_    0.203808 0.549108 0.700755 0.101625
H55   H     H_    0.553255 0.815970 0.278484 0.104826
H56   H     H_    0.563275 0.021452 0.338204 0.141896
H57   H     H_    0.446757 0.184031 0.721518 0.104825
H58   H     H_    0.969339 0.221535 0.347994 0.120753
H59   H     H_    0.030659 0.778467 0.652010 0.120757
H60   H     H_    0.232831 0.404864 0.958130 0.104745
O1    O     O_3   0.250000 0.250000 0.250000 -0.441834
O2    O     O_R   0.865800 0.694910 0.573470 -0.545641
O3    O     O_R   0.305090 0.426530 0.134200 -0.547191
O4    O     O_R   0.694910 0.573470 0.865800 -0.547193
O5    O     O_R   0.426530 0.134200 0.305090 -0.548869
O6    O     O_R   0.573470 0.865800 0.694910 -0.548870
O7    O     O_R   0.134190 0.426530 0.134200 -0.541162
O8    O     O_R   0.865810 0.573470 0.865800 -0.541159
O9    O     O_R   0.426530 0.134200 0.134190 -0.545415
O10   O     O_R   0.573470 0.865800 0.865810 -0.545413
O11   O     O_R   0.134200 0.134190 0.426530 -0.546262
O12   O     O_3   0.750000 0.750000 0.750000 -0.441835
O13   O     O_R   0.865800 0.865810 0.573470 -0.546248
O14   O     O_R   0.426530 0.305080 0.134210 -0.529458
O15   O     O_R   0.573470 0.694920 0.865790 -0.529460
O16   O     O_R   0.305080 0.134210 0.426530 -0.533147
O17   O     O_R   0.694920 0.865790 0.573470 -0.533146
O18   O     O_R   0.134210 0.426530 0.305080 -0.530669
O19   O     O_R   0.865790 0.573470 0.694920 -0.530669
O20   O     O_R   0.305080 0.134200 0.134200 -0.541424
O21   O     O_R   0.694920 0.865800 0.865800 -0.541429
O22   O     O_R   0.134200 0.134200 0.305080 -0.541769
O23   O     O_R   0.865800 0.865800 0.694920 -0.541774
O24   O     O_R   0.134200 0.305080 0.134200 -0.544965
O25   O     O_R   0.865800 0.694920 0.865800 -0.544968
O26   O     O_R   0.134200 0.305090 0.426530 -0.545636
Zn1   Zn    Zn3+2 0.206620 0.206630 0.380140 0.925980
Zn2   Zn    Zn3+2 0.793380 0.793370 0.619860 0.925986
Zn3   Zn    Zn3+2 0.206630 0.380140 0.206620 0.929594
Zn4   Zn    Zn3+2 0.793370 0.619860 0.793380 0.929592
Zn5   Zn    Zn3+2 0.380140 0.206620 0.206630 0.926613
Zn6   Zn    Zn3+2 0.619860 0.793380 0.793370 0.926612
Zn7   Zn    Zn3+2 0.206620 0.206620 0.206620 0.921335
Zn8   Zn    Zn3+2 0.793380 0.793380 0.793380 0.921331

loop_
_geom_bond_atom_site_label_1
_geom_bond_atom_site_label_2
_ccdc_geom_bond_type
C25   C31   A    
C48   C55   A    
O2    Zn2   S    
C101  C107  A    
C49   C63   A    
O5    Zn5   S    
C41   H19   S    
C36   C42   A    
C1    C11   S    
C35   H46   S    
C58   C72   S    
C29   H40   S    
O1    Zn1   S    
O11   Zn1   S    
C9    C108  A    
C92   H55   S    
O4    Zn4   S    
C49   H23   S    
C29   C36   A    
C33   C39   A    
C82   C89   A    
C54   O24   A    
C79   H4    S    
C34   C40   A    
C23   C29   A    
O1    Zn3   S    
C86   C93   A    
C82   H7    S    
C97   H16   S    
O12   Zn8   S    
C42   C98   A    
C59   C66   A    
C22   C60   S    
C13   C46   A    
C77   C83   A    
C4    C104  A    
O20   Zn7   S    
C69   O3    A    
C88   H51   S    
C20   C61   S    
C19   C26   A    
C53   C68   S    
C70   O4    A    
O7    Zn3   S    
C38   C45   A    
C80   C86   A    
C74   C107  A    
C25   C66   S    
C68   O2    A    
C85   C92   A    
C15   C22   A    
C75   C82   A    
C94   C101  A    
C2    C44   A    
C84   H9    S    
C81   H6    S    
C11   C105  A    
O9    Zn5   S    
C6    C107  A    
O18   Zn3   S    
C57   C63   A    
C78   H3    S    
O23   Zn8   S    
C72   O6    A    
C5    C79   A    
C67   O26   A    
O12   Zn2   S    
C95   C102  A    
C42   H20   S    
C69   O14   A    
O1    Zn5   S    
C23   C63   S    
O26   Zn1   S    
C43   O23   A    
C8    C65   S    
C27   C34   A    
C22   C28   A    
C2    C17   A    
C87   H26   S    
C85   H10   S    
C18   C25   A    
C1    O9    A    
C41   C87   A    
C71   O16   A    
C74   H59   S    
C53   C60   A    
C48   C60   A    
C65   O25   A    
C10   C21   S    
C58   C64   A    
C99   C105  A    
C88   C94   A    
C17   C24   A    
C13   C19   A    
C90   H53   S    
C97   C104  A    
C14   C20   A    
C28   C35   A    
C99   H17   S    
C3    C8    A    
C52   C64   A    
C31   H42   S    
C34   H44   S    
C12   C45   A    
C30   H41   S    
C5    C105  A    
C80   H5    S    
O19   Zn4   S    
C44   H21   S    
C47   H1    S    
C98   H27   S    
C43   O13   A    
C2    H28   S    
O25   Zn8   S    
C71   O5    A    
C30   C37   A    
C51   C66   A    
C14   C76   A    
C54   O7    A    
C89   C95   A    
C4    C78   A    
O12   Zn6   S    
C52   C59   A    
C26   C33   A    
C21   O21   A    
O24   Zn7   S    
C40   H18   S    
C7    C106  A    
C32   O22   A    
C32   O11   A    
C51   C58   A    
C19   H37   S    
C91   C97   A    
C4    C11   A    
C102  C108  A    
C93   C100  A    
C75   H60   S    
C52   H56   S    
C39   C46   A    
C95   H14   S    
C21   O10   A    
C84   C91   A    
C37   H48   S    
C16   C23   A    
C56   C70   S    
C6    C43   S    
C39   H50   S    
C33   H43   S    
C50   C62   A    
C56   C62   A    
C96   C103  A    
C74   C81   A    
C3    C77   A    
C89   H54   S    
C79   C85   A    
C48   H12   S    
C15   C87   A    
C15   H32   S    
C75   C108  A    
C1    O20   A    
C3    C103  A    
C83   C90   A    
O10   Zn6   S    
C51   H45   S    
C28   H39   S    
C24   C62   S    
C7    C32   S    
C96   H15   S    
C50   C57   A    
C100  C106  A    
C83   H8    S    
C91   H57   S    
O14   Zn5   S    
C38   H49   S    
O8    Zn4   S    
C73   H58   S    
C47   C61   A    
C55   C67   S    
C76   H25   S    
C67   O18   A    
O22   Zn7   S    
C90   C96   A    
C20   C27   A    
C26   C64   S    
O21   Zn8   S    
O13   Zn2   S    
O16   Zn1   S    
C93   H11   S    
O6    Zn6   S    
O15   Zn6   S    
C31   C38   A    
C47   C53   A    
C17   H35   S    
C13   H30   S    
C37   C44   A    
C18   H36   S    
C16   H33   S    
C5    C10   A    
C65   O8    A    
C49   C56   A    
C46   H24   S    
C16   C98   A    
C73   C106  A    
C86   H52   S    
C27   H38   S    
C55   C61   A    
C10   C104  A    
C9    C103  A    
C73   C80   A    
C6    C100  A    
C77   H2    S    
C35   C41   A    
C24   C30   A    
C72   O17   A    
C81   C88   A    
O12   Zn4   S    
O1    Zn7   S    
C68   O19   A    
C94   H13   S    
C78   C84   A    
C70   O15   A    
C45   H22   S    
C14   H31   S    
C36   H47   S    
O3    Zn3   S    
C7    C101  A    
C40   C76   A    
C12   C18   A    
C12   H29   S    
C9    C54   S    
O17   Zn2   S    
C57   C69   S    
C8    C102  A    
C50   H34   S    
C92   C99   A    
C59   C71   S    
