data_mof_unit_37922.cif
_audit_creation_date              2012-12-10T18:07:30-0500
_audit_creation_method            fapswitch 2.2
_symmetry_space_group_name_H-M    P1
_symmetry_Int_Tables_number       1
_space_group_crystal_system       triclinic
_cell_length_a                    11.527184
_cell_length_b                    12.717539
_cell_length_c                    12.933127
_cell_angle_alpha                 80.996113
_cell_angle_beta                  92.793736
_cell_angle_gamma                 102.818077
_cell_volume                      1825.74057445

loop_
_atom_site_label
_atom_site_type_symbol
_atom_type_description
_atom_site_fract_x
_atom_site_fract_y
_atom_site_fract_z
_atom_type_partial_charge
C1    C     C_R   0.487566 0.437971 0.692144 0.851551
C2    C     C_R   0.718991 0.583717 0.925429 0.023206
C3    C     C_R   0.663590 0.512929 0.857019 0.130683
C4    C     C_R   0.717740 0.501694 0.499706 0.853335
C5    C     C_R   0.489124 0.536326 0.126855 0.561219
C6    C     C_R   0.660781 0.667538 0.175828 0.461593
C7    C     C_R   0.474818 0.394681 0.803836 -0.158060
C8    C     C_R   0.288352 0.086124 0.385174 -0.100114
C9    C     C_R   0.646217 0.800060 0.627471 0.639563
C10   C     C_R   0.665304 0.897043 0.668338 0.478324
C11   C     C_R   0.597733 0.974284 0.631788 -0.101049
C12   C     C_R   0.549627 0.598327 0.199879 -0.428216
C13   C     C_R   0.514990 0.956184 0.547732 -0.065497
C14   C     C_R   0.491838 0.852270 0.513807 0.029330
C15   C     C_R   0.454735 0.036781 0.495287 0.021552
C16   C     C_R   0.515403 0.561459 0.308253 1.004724
C17   C     C_R   0.349082 0.005191 0.434910 0.003906
C18   C     C_R   0.314728 0.896355 0.418735 0.020993
C19   C     C_R   0.397056 0.829541 0.440043 0.134230
C20   C     C_R   0.499837 0.148878 0.495285 -0.142430
C21   C     C_R   0.337252 0.194045 0.391870 0.758952
C22   C     C_R   0.282279 0.498446 0.499804 0.886913
C23   C     C_R   0.379242 0.306891 0.837161 0.089333
C24   C     C_1   0.839148 0.504151 0.500076 -0.117117
C25   C     C_1   0.941116 0.502386 0.499779 0.031261
C26   C     C_1   0.059030 0.498341 0.499200 0.017290
C27   C     C_1   0.160926 0.496272 0.499081 -0.146484
C28   C     C_R   0.714322 0.667570 0.081370 0.587192
C29   C     C_R   0.355767 0.276049 0.944202 0.024629
C30   C     C_R   0.416963 0.341800 0.016421 0.115095
C31   C     C_R   0.501667 0.438550 0.979538 0.127516
C32   C     C_R   0.546710 0.449768 0.878291 -0.066521
C33   C     C_R   0.549769 0.520792 0.041301 -0.109879
C34   C     C_R   0.660916 0.592292 0.014929 -0.244811
F1    F     F_    0.721090 0.728508 0.246623 -0.600042
F2    F     F_    0.710732 0.725467 0.665596 -0.629261
F3    F     F_    0.746276 0.914126 0.747137 -0.610501
F4    F     F_    0.822036 0.734898 0.058827 -0.598910
F5    F     F_    0.371473 0.491552 0.141395 -0.629348
F6    F     F_    0.280260 0.272351 0.346511 -0.618566
H1    H     H_    0.583167 0.180617 0.532236 0.191552
H2    H     H_    0.418475 0.799921 0.294827 0.183756
H3    H     H_    0.217777 0.254094 0.771671 0.208023
H4    H     H_    0.311192 0.167306 0.777821 0.219031
H5    H     H_    0.435094 0.230473 0.143323 0.156671
H6    H     H_    0.315475 0.286862 0.145876 0.270185
H7    H     H_    0.200003 0.202132 0.016112 0.212950
H8    H     H_    0.305480 0.126214 0.030544 0.188050
H9    H     H_    0.716776 0.531205 0.706781 0.255207
H10   H     H_    0.719136 0.407394 0.777286 0.165528
H11   H     H_    0.808157 0.631315 0.908531 0.221869
H12   H     H_    0.159510 0.783773 0.415631 0.214233
H13   H     H_    0.216724 0.839537 0.295166 0.191856
H14   H     H_    0.194529 0.030420 0.259461 0.209395
H15   H     H_    0.112910 0.013156 0.372161 0.247595
H16   H     H_    0.693336 0.107736 0.687691 0.227074
H17   H     H_    0.581372 0.033345 0.765594 0.233510
H18   H     H_    0.312085 0.705326 0.362862 0.178376
N1    N     N_R   0.440320 0.222190 0.444690 -0.181864
N2    N     N_3   0.736344 0.491290 0.779499 -0.441791
N3    N     N_R   0.559060 0.776980 0.554780 -0.188057
N4    N     N_3   0.202630 0.855764 0.369782 -0.463373
N5    N     N_3   0.180157 0.064199 0.325083 -0.393035
N6    N     N_3   0.604923 0.064283 0.687902 -0.436601
N7    N     N_3   0.396623 0.755125 0.368916 -0.356889
N8    N     N_3   0.305920 0.249315 0.762110 -0.412175
N9    N     N_3   0.405354 0.303284 0.126670 -0.373558
N10   N     N_3   0.266643 0.179921 0.977819 -0.453378
O1    O     O_R   0.471500 0.366730 0.627160 -0.597466
O2    O     O_R   0.509620 0.544830 0.662520 -0.578473
O3    O     O_R   0.646490 0.410960 0.482310 -0.634516
O4    O     O_R   0.684610 0.589050 0.517670 -0.541574
O5    O     O_R   0.490380 0.455170 0.337480 -0.551740
O6    O     O_R   0.528500 0.633270 0.372840 -0.557678
O7    O     O_R   0.315390 0.410950 0.482330 -0.533031
O8    O     O_R   0.353510 0.589040 0.517690 -0.623271
Zn1   Zn    Zn3+2 0.474550 0.381080 0.476390 1.021674
Zn2   Zn    Zn3+2 0.525450 0.618920 0.523610 1.036358

loop_
_geom_bond_atom_site_label_1
_geom_bond_atom_site_label_2
_ccdc_geom_bond_type
O2    Zn2   S    
O1    Zn1   S    
C22   O8    A    
N1    Zn1   S    
C20   H1    S    
C26   C27   T    
H9    N2    S    
C10   F3    S    
C9    N3    A    
C23   C29   A    
C23   N8    S    
O8    Zn2   S    
C21   N1    A    
C6    C12   A    
C30   C31   A    
C4    C24   S    
H14   N5    S    
C6    F1    S    
C17   C18   A    
C18   C19   A    
O4    Zn2   S    
H4    N8    S    
C6    C28   A    
C12   C16   S    
C5    C33   A    
H5    N9    S    
C9    F2    S    
H16   N6    S    
C9    C10   A    
C30   N9    S    
C3    N2    S    
C2    C34   A    
C28   C34   A    
C13   C14   A    
C22   O7    A    
C33   C34   A    
C15   C20   A    
C16   O5    A    
C24   C25   T    
C5    C12   A    
C11   N6    S    
C2    H11   S    
C18   N4    S    
C25   C26   S    
C14   N3    A    
C1    O1    A    
H15   N5    S    
C29   C30   A    
H2    N7    S    
C29   N10   S    
H13   N4    S    
H18   N7    S    
C31   C32   A    
C28   F4    S    
N3    Zn2   S    
C4    O4    A    
C31   C33   A    
C8    C21   A    
H8    N10   S    
C20   N1    A    
O7    Zn1   S    
C22   C27   S    
C5    F5    S    
C16   O6    A    
H7    N10   S    
O3    Zn1   S    
H17   N6    S    
C15   C17   A    
C7    C32   A    
C1    C7    S    
C14   C19   A    
C1    O2    A    
C8    C17   A    
H10   N2    S    
C13   C15   A    
C2    C3    A    
H6    N9    S    
H12   N4    S    
C11   C13   A    
C21   F6    S    
H3    N8    S    
C7    C23   A    
C19   N7    S    
C3    C32   A    
C10   C11   A    
C8    N5    S    
O6    Zn2   S    
O5    Zn1   S    
C4    O3    A    
