data_mof_unit_58016.cif
_audit_creation_date              2012-12-10T19:01:52-0500
_audit_creation_method            fapswitch 2.2
_symmetry_space_group_name_H-M    P1
_symmetry_Int_Tables_number       1
_space_group_crystal_system       triclinic
_cell_length_a                    11.683732
_cell_length_b                    10.826165
_cell_length_c                    9.558457
_cell_angle_alpha                 91.746202
_cell_angle_beta                  89.571187
_cell_angle_gamma                 90.196012
_cell_volume                      1208.44784718

loop_
_atom_site_label
_atom_site_type_symbol
_atom_type_description
_atom_site_fract_x
_atom_site_fract_y
_atom_site_fract_z
_atom_type_partial_charge
C1    C     C_R   0.495160 0.261882 0.497455 0.842732
C2    C     C_R   0.474287 0.128516 0.492580 -0.172508
C3    C     C_R   0.447692 0.058140 0.368318 0.031047
C4    C     C_R   0.433299 0.928299 0.377551 0.458952
C5    C     C_R   0.459625 0.869575 0.503904 -0.275815
C6    C     C_R   0.454209 0.943356 0.626861 -0.053102
C7    C     C_3   0.511871 0.944497 0.767693 0.304255
C8    C     C_3   0.532526 0.082201 0.750687 -0.396388
C9    C     C_R   0.594607 0.537825 0.074134 0.256983
C10   C     C_R   0.413819 0.446290 0.074323 -0.214201
C11   C     C_R   0.411916 0.447233 0.924512 0.517503
C12   C     C_R   0.284054 0.498262 0.500403 0.802950
C13   C     C_R   0.594770 0.536458 0.926883 0.131056
C14   C     C_3   0.652270 0.658487 0.922278 -0.496480
C15   C     C_3   0.651013 0.662336 0.081425 -0.066439
C16   C     C_R   0.488020 0.737298 0.501975 0.820068
C17   C     C_R   0.715966 0.499921 0.499612 0.816776
C18   C     C_1   0.162376 0.497475 0.501087 -0.213837
C19   C     C_1   0.059890 0.497749 0.500632 -0.008835
C20   C     C_1   0.940161 0.498608 0.499552 -0.008921
C21   C     C_1   0.837656 0.499317 0.499031 -0.200218
C22   C     C_R   0.466893 0.068656 0.618860 0.030255
Cu1   Cu    Cu3+1 0.499990 0.499980 0.640670 0.957333
Cu2   Cu    Cu3+1 0.500010 0.500020 0.359330 0.945154
H1    H     H_    0.594948 0.727098 0.878729 0.189974
H2    H     H_    0.594777 0.736114 0.127072 0.217052
H3    H     H_    0.593294 0.892925 0.770275 0.079483
H4    H     H_    0.488085 0.142946 0.829708 0.233696
H5    H     H_    0.623965 0.105709 0.731637 0.137873
H6    H     H_    0.345620 0.402516 0.131445 0.159683
H7    H     H_    0.738557 0.652142 0.872650 0.207903
N1    N     N_R   0.500710 0.500930 0.147930 -0.215085
N2    N     N_R   0.500710 0.500890 0.852020 -0.230009
O1    O     O_R   0.500000 0.319640 0.618810 -0.547187
O2    O     O_R   0.500010 0.319680 0.381230 -0.581381
O3    O     O_R   0.337190 0.499990 0.618790 -0.543509
O4    O     O_R   0.337200 0.500030 0.381210 -0.590890
O5    O     O_R   0.499990 0.680320 0.618770 -0.619049
O6    O     O_R   0.500000 0.680360 0.381190 -0.531473
O7    O     O_R   0.662800 0.499970 0.618790 -0.570997
O8    O     O_R   0.662810 0.500010 0.381210 -0.571032
C23   C     C_3   0.438240 0.116474 0.226838 -0.771850
H8    H     H_    0.520784 0.160352 0.198204 0.243757
H9    H     H_    0.419575 0.048665 0.140990 0.272168
H10   H     H_    0.368270 0.185606 0.229326 0.214344
C24   C     C_3   0.771341 0.662061 0.143902 -0.810896
H11   H     H_    0.765895 0.670961 0.259504 0.247312
H12   H     H_    0.818520 0.576248 0.113418 0.237027
H13   H     H_    0.820425 0.742848 0.106618 0.231945
O9    O     O_3   0.392720 0.858941 0.264313 -0.601661
C25   C     C_3   0.272393 0.874904 0.254241 0.023940
H14   H     H_    0.253637 0.915427 0.151882 0.164507
H15   H     H_    0.233888 0.938424 0.336216 0.127710
C26   C     C_3   0.213061 0.749589 0.261920 -0.297057
H16   H     H_    0.250045 0.684419 0.181758 0.221447
H17   H     H_    0.228121 0.713092 0.367131 0.217841
C27   C     C_3   0.084236 0.759865 0.239641 -0.956725
H18   H     H_    0.044798 0.817997 0.324645 0.260771
H19   H     H_    0.044824 0.666413 0.240788 0.266882
H20   H     H_    0.066117 0.801273 0.137327 0.258918
O10   O     O_3   0.438347 0.931072 0.885882 -0.606142
C28   C     C_3   0.366068 0.826214 0.877129 0.067590
H21   H     H_    0.361991 0.785972 0.982353 0.173363
H22   H     H_    0.398624 0.751737 0.807595 0.171899
C29   C     C_3   0.244963 0.863306 0.834486 -0.343730
H23   H     H_    0.210258 0.932708 0.911385 0.212896
H24   H     H_    0.246755 0.906045 0.730483 0.224751
C30   C     C_3   0.165148 0.751574 0.826908 -0.954980
H25   H     H_    0.196237 0.683421 0.746375 0.266216
H26   H     H_    0.077839 0.781432 0.798131 0.260010
H27   H     H_    0.160565 0.707021 0.929745 0.253082
O11   O     O_3   0.327250 0.384245 0.850117 -0.577385
C31   C     C_3   0.215658 0.415632 0.898478 0.043799
H28   H     H_    0.165772 0.446257 0.807480 0.181390
H29   H     H_    0.212568 0.493993 0.976978 0.107853
C32   C     C_3   0.156576 0.301473 0.956541 -0.354265
H30   H     H_    0.149025 0.229237 0.871891 0.226214
H31   H     H_    0.208520 0.263144 0.041713 0.207294
C33   C     C_3   0.037455 0.332845 0.013600 -0.916041
H32   H     H_    0.043415 0.402568 0.101037 0.258813
H33   H     H_    0.996284 0.248152 0.053468 0.255729
H34   H     H_    0.983233 0.369821 0.929644 0.257891

loop_
_geom_bond_atom_site_label_1
_geom_bond_atom_site_label_2
_ccdc_geom_bond_type
C3    C23   S    
C31   H28   S    
C19   C20   S    
C32   C33   S    
C14   H7    S    
C7    C8    S    
C24   H13   S    
C8    H5    S    
C32   H31   S    
C1    C2    S    
C5    C6    A    
C27   H19   S    
Cu1   O7    S    
C6    C22   A    
Cu2   O6    S    
C7    H3    S    
C18   C19   T    
C12   O4    A    
C9    C13   A    
C7    O10   S    
C5    C16   S    
C28   H22   S    
C9    N1    A    
C24   H11   S    
C30   H25   S    
Cu1   N2    S    
C2    C22   A    
C8    C22   S    
Cu1   Cu2   S    
C12   O3    A    
Cu1   O1    S    
C13   C14   S    
Cu2   O8    S    
C31   H29   S    
C23   H9    S    
C1    O1    A    
O9    C25   S    
C24   H12   S    
C26   H17   S    
Cu2   O2    S    
C25   H14   S    
C11   N2    A    
C32   H30   S    
C33   H33   S    
C11   O11   S    
C4    C5    A    
C15   H2    S    
C29   H24   S    
C17   C21   S    
C4    O9    S    
C25   H15   S    
C17   O7    A    
Cu2   N1    S    
C13   N2    A    
C28   H21   S    
C10   H6    S    
C29   C30   S    
Cu2   O4    S    
C29   H23   S    
C8    H4    S    
C31   C32   S    
C23   H8    S    
C3    C4    A    
C1    O2    A    
C26   H16   S    
C28   C29   S    
O11   C31   S    
C27   H20   S    
C33   H34   S    
C6    C7    S    
Cu1   O5    S    
C25   C26   S    
C2    C3    A    
C9    C15   S    
C27   H18   S    
C30   H27   S    
C14   H1    S    
O10   C28   S    
C17   O8    A    
C10   C11   A    
C16   O6    A    
C33   H32   S    
C10   N1    A    
C20   C21   T    
C30   H26   S    
Cu1   O3    S    
C12   C18   S    
C14   C15   S    
C15   C24   S    
C23   H10   S    
C16   O5    A    
C26   C27   S    
