data_mof_unit_25130.cif
_audit_creation_date              2013-03-05T15:50:43-0500
_audit_creation_method            fapswitch 2.2
_symmetry_space_group_name_H-M    P1
_symmetry_Int_Tables_number       1
_space_group_crystal_system       triclinic
_cell_length_a                    10.693828
_cell_length_b                    12.095626
_cell_length_c                    12.927718
_cell_angle_alpha                 91.593997
_cell_angle_beta                  92.174605
_cell_angle_gamma                 87.247194
_cell_volume                      1668.4828862

loop_
_atom_site_label
_atom_site_type_symbol
_atom_site_description
_atom_site_fract_x
_atom_site_fract_y
_atom_site_fract_z
_atom_type_partial_charge
O1    O     O_R   0.506240 0.421700 0.658830 -0.599538
O2    O     O_R   0.491240 0.609310 0.646410 -0.597782
C1    C     C_R   0.492610 0.520588 0.699577 0.948287
O3    O     O_R   0.692710 0.406190 0.506230 -0.592452
O4    O     O_R   0.677700 0.593810 0.493810 -0.564670
C2    C     C_R   0.742241 0.500450 0.498894 0.927292
Zn1   Zn    Zn3+2 0.510020 0.374730 0.508290 1.041154
Zn2   Zn    Zn3+2 0.489980 0.625270 0.491710 1.070185
O5    O     O_R   0.508760 0.390690 0.353590 -0.640360
O6    O     O_R   0.493760 0.578300 0.341170 -0.570109
O7    O     O_R   0.322300 0.406190 0.506190 -0.600743
O8    O     O_R   0.307290 0.593810 0.493770 -0.641141
C3    C     C_R   0.496087 0.479850 0.299556 0.902701
C4    C     C_R   0.258147 0.498637 0.498344 0.854596
C5    C     C_3   0.934743 0.378767 0.505112 -0.419920
H1    H     H_    0.902936 0.329454 0.435770 0.219198
H2    H     H_    0.901155 0.335969 0.572288 0.270856
C6    C     C_3   0.076982 0.377365 0.514494 0.159771
H3    H     H_    0.105650 0.355269 0.595495 0.166952
H4    H     H_    0.891827 0.484877 0.329944 0.145512
H5    H     H_    0.102544 0.494205 0.326263 0.209065
C7    C     C_3   0.922344 0.544054 0.392568 0.083994
C8    C     C_3   0.931014 0.570946 0.591556 0.164323
C9    C     C_3   0.879210 0.500135 0.497956 -0.183864
H6    H     H_    0.892833 0.657080 0.583927 0.221227
C10   C     C_3   0.122226 0.496592 0.497107 -0.073757
C11   C     C_3   0.066957 0.543468 0.393575 -0.391909
C12   C     C_3   0.074723 0.573161 0.587411 -0.494099
H7    H     H_    0.121105 0.547568 0.662103 0.204014
H8    H     H_    0.100775 0.659943 0.575980 0.224946
H9    H     H_    0.099616 0.628352 0.383671 0.235343
C13   C     C_R   0.481516 0.470084 0.187805 -0.180575
C14   C     C_R   0.473801 0.532932 0.808828 -0.075372
C15   C     C_R   0.444458 0.649372 0.960192 -0.073917
C16   C     C_R   0.456825 0.638456 0.854626 -0.125973
C17   C     C_R   0.470376 0.438650 0.867597 -0.161414
C18   C     C_R   0.467799 0.448568 0.973837 0.105020
C19   C     C_R   0.454409 0.554868 0.021094 0.050432
C20   C     C_R   0.454718 0.565038 0.128140 0.277518
C21   C     C_R   0.492764 0.364862 0.139759 -0.185130
C22   C     C_R   0.482933 0.353951 0.033111 -0.110263
H10   H     H_    0.509947 0.290851 0.184431 0.200772
H11   H     H_    0.432817 0.732121 0.993555 0.222859
H12   H     H_    0.492840 0.272202 0.996954 0.202475
H13   H     H_    0.453735 0.712598 0.809385 0.215571
H14   H     H_    0.472555 0.357569 0.831156 0.212686
N1    N     N_R   0.523380 0.207800 0.519350 -0.183709
N2    N     N_R   0.476620 0.792180 0.480650 -0.186277
C23   C     C_R   0.394966 0.953669 0.389222 0.271109
C24   C     C_R   0.399123 0.838623 0.406340 -0.036992
C25   C     C_R   0.550226 0.857759 0.542922 0.419266
C26   C     C_R   0.535771 0.975531 0.539483 -0.205374
C27   C     C_R   0.462940 0.024402 0.458001 -0.103309
C28   C     C_R   0.463170 0.141639 0.447478 0.024581
C29   C     C_R   0.584374 0.161111 0.604064 0.322161
C30   C     C_R   0.593158 0.045394 0.614729 0.193266
H15   H     H_    0.413741 0.181144 0.383044 0.203697
H16   H     H_    0.342452 0.785272 0.357824 0.215879
N3    N     N_R   0.866536 0.653870 0.367278 0.236620
O9    O     O_R   0.784446 0.663282 0.290748 -0.308393
O10   O     O_R   0.906778 0.743254 0.412967 -0.318150
N4    N     N_R   0.423800 0.671033 0.174906 0.192799
O11   O     O_R   0.306767 0.705390 0.176950 -0.366797
O12   O     O_R   0.511126 0.741197 0.192547 -0.307347
N5    N     N_R   0.634264 0.228989 0.686847 0.235691
O13   O     O_R   0.609159 0.208740 0.781945 -0.360312
O14   O     O_R   0.728300 0.289243 0.671174 -0.323736
N6    N     N_R   0.322763 0.995359 0.301628 0.209060
O15   O     O_R   0.328460 0.943048 0.212504 -0.272479
O16   O     O_R   0.237247 0.074153 0.313669 -0.275520
N7    N     N_R   0.651151 0.001140 0.707519 0.271450
O17   O     O_R   0.769145 0.015727 0.729227 -0.236889
O18   O     O_R   0.581275 0.965641 0.778657 -0.303268
N8    N     N_R   0.655538 0.807788 0.598221 0.229719
O19   O     O_R   0.640970 0.763336 0.686923 -0.309366
O20   O     O_R   0.767277 0.833293 0.574086 -0.321186
N9    N     N_R   0.130627 0.290897 0.445277 0.239037
O21   O     O_R   0.112263 0.294534 0.345332 -0.352240
O22   O     O_R   0.184144 0.202431 0.485437 -0.336844
N10   N     N_R   0.892777 0.531539 0.691843 0.223942
O23   O     O_R   0.813583 0.591527 0.745956 -0.288750
O24   O     O_R   0.945345 0.442819 0.732447 -0.345101

loop_
_geom_bond_atom_site_label_1
_geom_bond_atom_site_label_2
_geom_bond_distance
_ccdc_geom_bond_type
C5    C6    1.520631 S    
C29   C30   1.408559 A    
C23   N6    1.435540 S    
C3    C13   1.449315 S    
C6    C10   1.567693 S    
C25   N8    1.429082 S    
N9    O21   1.301159 A    
Zn1   O7    2.024460 S    
C10   C11   1.553133 S    
N4    O11   1.300642 A    
N8    O20   1.299779 A    
C12   H7    1.113444 S    
C15   C16   1.378180 A    
O4    C2    1.296803 A    
O7    C4    1.287894 A    
C1    C14   1.436822 S    
C5    H1    1.114297 S    
C14   C17   1.390468 A    
C5    H2    1.103498 S    
C6    H3    1.115926 S    
C13   C20   1.413188 A    
O5    C3    1.300022 A    
N4    O12   1.301363 A    
N2    C25   1.368648 A    
N6    O15   1.301016 A    
N5    O14   1.295196 A    
C8    C9    1.562596 S    
C17   H14   1.075743 S    
C8    N10   1.472618 S    
C21   H10   1.083320 S    
H5    C11   1.109780 S    
N3    O9    1.301216 A    
O1    Zn1   2.013482 S    
O3    Zn1   2.009527 S    
C29   N5    1.433141 S    
N9    O22   1.300618 A    
N3    O10   1.301095 A    
N8    O19   1.297772 A    
C11   H9    1.112509 S    
C25   C26   1.427230 A    
C24   H16   1.078548 S    
O3    C2    1.287365 A    
C7    N3    1.469904 S    
N7    O18   1.301327 A    
C27   C28   1.428454 A    
O1    C1    1.297476 A    
Zn1   N1    2.025960 S    
Zn2   N2    2.025719 S    
C18   C19   1.411456 A    
Zn2   O8    2.009528 S    
C30   N7    1.434384 S    
C2    C9    1.465057 S    
C5    C9    1.560749 S    
C8    C12   1.541307 S    
C4    C10   1.454391 S    
N1    C28   1.371505 A    
N10   O24   1.301598 A    
C21   C22   1.381855 A    
O8    C4    1.291949 A    
C23   C24   1.413442 A    
C7    C11   1.545713 S    
C22   H12   1.084179 S    
C7    C9    1.569292 S    
C16   H13   1.082706 S    
C26   C27   1.412012 A    
N1    C29   1.374247 A    
Zn1   O5    2.014027 S    
C20   N4    1.431735 S    
C17   C18   1.376550 A    
C15   C19   1.403519 A    
O2    Zn2   2.014028 S    
C15   H11   1.082318 S    
H4    C7    1.115541 S    
N10   O23   1.300300 A    
O6    C3    1.292521 A    
O4    Zn2   2.024459 S    
C10   C12   1.555093 S    
C12   H8    1.114061 S    
O2    C1    1.289587 A    
N7    O17   1.301463 A    
C19   C20   1.385793 A    
C6    N9    1.467285 S    
C23   C27   1.421038 A    
N2    C24   1.360197 A    
C14   C16   1.398754 A    
C13   C21   1.402532 A    
C18   C22   1.394533 A    
C8    H6    1.106191 S    
Zn2   O6    2.013482 S    
N5    O13   1.300620 A    
N6    O16   1.299109 A    
C26   C30   1.412701 A    
C28   H15   1.079837 S    
