data_mof_unit_46304.cif
_audit_creation_date              2012-12-10T17:49:39-0500
_audit_creation_method            fapswitch 2.2
_symmetry_space_group_name_H-M    P1
_symmetry_Int_Tables_number       1
_space_group_crystal_system       triclinic
_cell_length_a                    10.509501
_cell_length_b                    10.695997
_cell_length_c                    9.892893
_cell_angle_alpha                 88.713462
_cell_angle_beta                  89.620272
_cell_angle_gamma                 92.03066
_cell_volume                      1111.04687088

loop_
_atom_site_label
_atom_site_type_symbol
_atom_type_description
_atom_site_fract_x
_atom_site_fract_y
_atom_site_fract_z
_atom_type_partial_charge
C1    C     C_R   0.511038 0.260343 0.502996 0.879762
C2    C     C_3   0.961255 0.509000 0.371056 -0.129273
C3    C     C_3   0.039026 0.400786 0.429158 -0.177711
C4    C     C_3   0.122223 0.497782 0.501628 0.041918
C5    C     C_R   0.517312 0.099940 0.769165 0.492698
C6    C     C_R   0.457468 0.034770 0.877973 -0.238392
C7    C     C_R   0.386024 0.925621 0.856572 -0.243879
C8    C     C_R   0.384442 0.874226 0.728854 -0.159610
C9    C     C_R   0.452670 0.933709 0.620066 0.037759
C10   C     C_R   0.499991 0.056551 0.634193 -0.025427
C11   C     C_R   0.525080 0.126882 0.511699 -0.108669
C12   C     C_R   0.257313 0.498604 0.500541 0.833029
C13   C     C_R   0.539245 0.066795 0.388729 -0.230893
C14   C     C_R   0.521614 0.939701 0.383445 -0.223259
C15   C     C_R   0.479422 0.872701 0.498559 -0.100095
C16   C     C_R   0.332059 0.335362 0.144823 -0.159005
C17   C     C_R   0.251202 0.253081 0.076569 -0.216805
C18   C     C_R   0.252294 0.252839 0.936708 -0.214276
C19   C     C_R   0.333023 0.335697 0.864218 -0.119884
C20   C     C_R   0.417263 0.419234 0.929972 0.197638
C21   C     C_R   0.417194 0.419089 0.074688 0.158049
C22   C     C_R   0.579294 0.577327 0.069109 -0.141042
C23   C     C_R   0.489555 0.739385 0.498983 0.870486
C24   C     C_R   0.579259 0.577292 0.925854 -0.126102
C25   C     C_R   0.742698 0.500082 0.499491 0.862046
C26   C     C_3   0.038789 0.487676 0.628936 -0.145990
C27   C     C_3   0.952823 0.390813 0.556228 -0.189501
C28   C     C_3   0.877815 0.499112 0.498369 0.030297
C29   C     C_3   0.961149 0.595995 0.570808 -0.183593
C30   C     C_3   0.047161 0.605932 0.443633 -0.181039
H1    H     H_    0.909461 0.302964 0.600484 0.132124
H2    H     H_    0.336444 0.877896 0.940129 0.163069
H3    H     H_    0.330234 0.787404 0.715931 0.164509
H4    H     H_    0.541504 0.894110 0.289257 0.165574
H5    H     H_    0.643993 0.640471 0.121054 0.142664
H6    H     H_    0.325217 0.329813 0.252100 0.205146
H7    H     H_    0.187748 0.188701 0.132682 0.150060
H8    H     H_    0.191615 0.186788 0.883760 0.159644
H9    H     H_    0.328551 0.329802 0.757106 0.197369
H10   H     H_    0.643946 0.640410 0.869888 0.146941
H11   H     H_    0.074274 0.478559 0.734064 0.148891
H12   H     H_    0.924730 0.675414 0.628248 0.128726
H13   H     H_    0.090415 0.693387 0.398082 0.128347
H14   H     H_    0.925748 0.517629 0.265904 0.140204
H15   H     H_    0.075593 0.321423 0.371708 0.123819
H16   H     H_    0.563534 0.118133 0.295839 0.171687
H17   H     H_    0.466026 0.070025 0.979425 0.166334
N1    N     N_R   0.498800 0.498800 0.142780 -0.119841
N2    N     N_R   0.498760 0.498720 0.857170 -0.111707
O1    O     O_R   0.500000 0.316780 0.614690 -0.580723
O2    O     O_R   0.499990 0.316750 0.385360 -0.649475
O3    O     O_R   0.313960 0.499980 0.614650 -0.658296
O4    O     O_R   0.313940 0.499960 0.385310 -0.635744
O5    O     O_R   0.500010 0.683250 0.614640 -0.621481
O6    O     O_R   0.500000 0.683220 0.385310 -0.620201
O7    O     O_R   0.686060 0.500040 0.614690 -0.619636
O8    O     O_R   0.686040 0.500020 0.385350 -0.625428
Zn1   Zn    Zn3+2 0.500010 0.500020 0.653130 0.944892
Zn2   Zn    Zn3+2 0.499990 0.499980 0.346870 0.923585
O9    O     O_3   0.593000 0.203794 0.798471 -0.622743
C31   C     C_3   0.716010 0.166894 0.833266 0.054585
H18   H     H_    0.713191 0.089591 0.910986 0.126925
H19   H     H_    0.766720 0.136131 0.741251 0.133303
C32   C     C_3   0.787878 0.279635 0.892046 -0.292855
H20   H     H_    0.788076 0.359360 0.818105 0.245349
H21   H     H_    0.738652 0.308449 0.985588 0.221867
C33   C     C_3   0.924857 0.249737 0.925347 -1.017828
H22   H     H_    0.927407 0.172557 0.002191 0.266399
H23   H     H_    0.974512 0.333943 0.966257 0.275817
H24   H     H_    0.975360 0.222031 0.832413 0.258888

loop_
_geom_bond_atom_site_label_1
_geom_bond_atom_site_label_2
_ccdc_geom_bond_type
C14   H4    S    
C31   C32   S    
C22   N1    A    
C16   C21   A    
C23   O6    A    
C6    C7    A    
C7    H2    S    
O6    Zn2   S    
C29   H12   S    
C4    C12   S    
C29   C30   S    
C11   C13   A    
C1    O1    A    
C4    C26   S    
C19   C20   A    
C1    C11   S    
C25   O7    A    
C2    C30   S    
C33   H24   S    
C32   H20   S    
C21   N1    A    
C3    C27   S    
C17   C18   A    
C18   H8    S    
C7    C8    A    
C17   H7    S    
C13   C14   A    
C16   H6    S    
C25   C28   S    
C22   H5    S    
C1    O2    A    
C26   C27   S    
C20   N2    A    
C12   O4    A    
O3    Zn1   S    
C26   C29   S    
C5    C6    A    
C19   H9    S    
C15   C23   S    
C28   C29   S    
C12   O3    A    
C24   N2    A    
O7    Zn1   S    
C2    C3    S    
C8    H3    S    
O4    Zn2   S    
C31   H18   S    
O5    Zn1   S    
C16   C17   A    
C22   C24   A    
C30   H13   S    
O8    Zn2   S    
O2    Zn2   S    
C10   C11   A    
C27   H1    S    
C33   H22   S    
O1    Zn1   S    
C32   C33   S    
C6    H17   S    
C25   O8    A    
C5    C10   A    
C20   C21   A    
N1    Zn2   S    
C23   O5    A    
C9    C10   A    
C27   C28   S    
C31   H19   S    
C13   H16   S    
C18   C19   A    
C2    C28   S    
C14   C15   A    
C5    O9    S    
C24   H10   S    
C9    C15   A    
C3    H15   S    
O9    C31   S    
C4    C30   S    
N2    Zn1   S    
C3    C4    S    
C26   H11   S    
C2    H14   S    
C8    C9    A    
C33   H23   S    
C32   H21   S    
