data_mof_unit_58146.cif
_audit_creation_date              2013-03-05T15:57:24-0500
_audit_creation_method            fapswitch 2.2
_symmetry_space_group_name_H-M    P1
_symmetry_Int_Tables_number       1
_space_group_crystal_system       triclinic
_cell_length_a                    13.250113
_cell_length_b                    13.238523
_cell_length_c                    15.595952
_cell_angle_alpha                 117.288188
_cell_angle_beta                  62.68135
_cell_angle_gamma                 98.055998
_cell_volume                      2151.52862118

loop_
_atom_site_label
_atom_site_type_symbol
_atom_site_description
_atom_site_fract_x
_atom_site_fract_y
_atom_site_fract_z
_atom_type_partial_charge
C1    C     C_R   0.004727 0.832462 0.050868 -0.068668
H1    H     H_    0.034033 0.894652 0.107427 0.109319
N1    N     N_R   0.037320 0.720000 0.995830 -0.038520
C2    C     C_R   0.679788 0.473314 0.220703 -0.115794
H2    H     H_    0.610304 0.435415 0.202295 0.094965
N2    N     N_R   0.790770 0.446140 0.151990 -0.041273
C3    C     C_R   0.745866 0.544878 0.918207 -0.077447
H3    H     H_    0.758354 0.586190 0.869204 0.164712
N3    N     N_R   0.824900 0.517970 0.936430 -0.062334
C4    C     C_R   0.020694 0.703089 0.299434 -0.137081
H4    H     H_    0.004087 0.668802 0.354526 0.150182
N4    N     N_R   0.003190 0.648180 0.211390 -0.049115
C5    C     C_R   0.667742 0.444416 0.012656 -0.135979
H5    H     H_    0.613072 0.389051 0.044785 0.097696
N5    N     N_R   0.774330 0.457010 0.995830 -0.045630
C6    C     C_R   0.096359 0.799647 0.203307 -0.094202
H6    H     H_    0.149492 0.851769 0.166526 0.139889
N6    N     N_R   0.053760 0.709130 0.151980 -0.048013
C7    C     C_R   0.781647 0.571324 0.310066 -0.119167
H7    H     H_    0.806236 0.633038 0.370186 0.121311
N7    N     N_R   0.853840 0.498830 0.211390 -0.050426
C8    C     C_R   0.905003 0.748241 0.956266 -0.053462
H8    H     H_    0.845823 0.734880 0.923462 0.119287
N8    N     N_R   0.974250 0.667320 0.936430 -0.055873
C9    C     C_R   0.920130 0.851896 0.028993 -0.019256
C10   C     C_R   0.671914 0.550748 0.320916 0.074643
C11   C     C_R   0.647159 0.503614 0.969336 0.133824
C12   C     C_R   0.079327 0.798726 0.296206 0.078830
C13   C     C_R   0.322865 0.575148 0.007172 0.424127
N9    N     N_R   0.225670 0.542990 0.004170 -0.082452
C14   C     C_R   0.920013 0.193156 0.785860 -0.208619
H9    H     H_    0.863017 0.138790 0.817154 0.133092
N10   N     N_R   0.946240 0.290870 0.848020 -0.055345
C15   C     C_R   0.203060 0.506331 0.695897 -0.010957
H10   H     H_    0.175167 0.473077 0.635674 0.141728
N11   N     N_R   0.146160 0.501170 0.788610 -0.045976
C16   C     C_R   0.096020 0.251189 0.041819 -0.049243
H11   H     H_    0.156493 0.265323 0.073732 0.119135
N12   N     N_R   0.025750 0.332680 0.063570 -0.050834
C17   C     C_R   0.996048 0.168125 0.948834 -0.125227
H12   H     H_    0.963369 0.106011 0.895924 0.119644
N13   N     N_R   0.962680 0.280000 0.004170 -0.046534
C18   C     C_R   0.297576 0.595291 0.792110 -0.059196
H13   H     H_    0.350454 0.654831 0.823698 0.192816
N14   N     N_R   0.209230 0.553860 0.848010 -0.049515
C19   C     C_R   0.246464 0.472025 0.098589 -0.225475
H14   H     H_    0.228326 0.435999 0.153431 0.129658
N15   N     N_R   0.175100 0.482030 0.063570 -0.063031
C20   C     C_R   0.026297 0.280846 0.684675 0.445736
N16   N     N_R   0.996810 0.351820 0.788610 -0.079658
Ni1   Ni    Ni4+2 0.130310 0.630310 0.000000 0.279269
Ni2   Ni    Ni4+2 0.869690 0.369690 0.000000 0.230278
Ni3   Ni    Ni4+2 0.985660 0.509480 0.863750 0.249671
Ni4   Ni    Ni4+2 0.014340 0.490520 0.136250 0.222663
C21   C     C_R   0.340198 0.527430 0.061355 0.051596
C22   C     C_R   0.970880 0.182538 0.681561 0.005612
C23   C     C_R   0.295821 0.566473 0.696221 0.033640
C24   C     C_R   0.080953 0.146315 0.968926 0.109845
H15   H     H_    0.426889 0.092670 0.067204 0.145540
C25   C     C_R   0.388687 0.992283 0.153022 0.059319
H16   H     H_    0.472987 0.947568 0.105559 0.199049
C26   C     C_R   0.305959 0.968069 0.235875 -0.090230
H17   H     H_    0.328116 0.904956 0.251856 0.151226
C27   C     C_R   0.195617 0.025096 0.297658 0.062119
C28   C     C_R   0.170813 0.107369 0.275191 -0.118771
H18   H     H_    0.086916 0.151998 0.321406 0.192943
C29   C     C_R   0.253892 0.131688 0.192525 -0.116017
H19   H     H_    0.233992 0.195301 0.175881 0.145684
C30   C     C_R   0.362693 0.073989 0.131325 -0.089912
C31   C     C_R   0.040307 0.089571 0.485209 -0.088068
H20   H     H_    0.035834 0.172495 0.489290 0.184488
C32   C     C_R   0.993913 0.077903 0.580856 0.060019
C33   C     C_R   0.001932 0.969909 0.574684 0.054307
C34   C     C_R   0.067107 0.880346 0.475138 -0.156680
H21   H     H_    0.079112 0.798210 0.468093 0.200146
C35   C     C_R   0.103295 0.890947 0.381244 -0.001963
C36   C     C_R   0.108575 0.000378 0.387108 0.039419
C37   C     C_R   0.967423 0.921658 0.721873 -0.058715
H22   H     H_    0.056207 0.930383 0.704459 0.182242
C38   C     C_R   0.894218 0.891864 0.803799 -0.152093
H23   H     H_    0.926990 0.877408 0.849411 0.164924
C39   C     C_R   0.779427 0.880189 0.826375 -0.123734
H24   H     H_    0.725099 0.853755 0.888020 0.200657
C40   C     C_R   0.735391 0.902004 0.769342 0.370731
C41   C     C_R   0.809297 0.933864 0.688113 -0.244587
H25   H     H_    0.777669 0.949794 0.642143 0.176171
C42   C     C_R   0.925375 0.942470 0.663698 0.093103
H26   H     H_    0.006254 0.443174 0.386202 0.170339
C43   C     C_R   0.847540 0.377995 0.387510 0.445376
C44   C     C_R   0.733810 0.408180 0.421157 -0.243930
H27   H     H_    0.682017 0.344855 0.390560 0.175050
C45   C     C_R   0.689946 0.522591 0.489186 -0.023273
C46   C     C_R   0.753010 0.602567 0.534220 -0.167433
H28   H     H_    0.717410 0.690093 0.589744 0.181935
C47   C     C_R   0.866798 0.573443 0.495688 0.491741
C48   C     C_R   0.916286 0.463331 0.418255 -0.311136
C49   C     C_R   0.491643 0.581096 0.598839 -0.145939
H29   H     H_    0.505409 0.571287 0.658204 0.154390
C50   C     C_R   0.383300 0.588899 0.609344 0.095052
C51   C     C_R   0.367000 0.596310 0.528308 0.138061
C52   C     C_R   0.463321 0.591936 0.436233 -0.225644
H30   H     H_    0.453365 0.594571 0.372028 0.135468
C53   C     C_R   0.572182 0.573678 0.423088 0.054692
C54   C     C_R   0.583996 0.563241 0.503985 0.067725
C55   C     C_R   0.236458 0.484298 0.454800 -0.245482
H31   H     H_    0.308658 0.428414 0.382791 0.162141
C56   C     C_R   0.128737 0.443595 0.480147 -0.204118
H32   H     H_    0.119657 0.359903 0.424667 0.175834
C57   C     C_R   0.035435 0.506878 0.579519 0.392292
C58   C     C_R   0.050123 0.616302 0.649085 -0.264601
H33   H     H_    0.978853 0.666401 0.725253 0.182755
C59   C     C_R   0.157923 0.658367 0.623321 0.447875
C60   C     C_R   0.253472 0.587154 0.530169 -0.023185
C61   C     C_2   0.445943 0.522087 0.062170 -0.169550
H34   H     H_    0.447369 0.513007 0.127448 0.128260
C62   C     C_2   0.540085 0.517396 0.975836 -0.106053
H35   H     H_    0.539306 0.522893 0.908771 0.182737
C63   C     C_2   0.848680 0.958922 0.082182 0.351937
C64   C     C_2   0.887206 0.059287 0.121534 0.030441
H36   H     H_    0.972815 0.064583 0.114306 0.119142
Cl1   Cl    Cl    0.168412 0.264320 0.585108 -0.709612
N17   N     N_R   0.617104 0.890372 0.792641 0.224297
O1    O     O_R   0.576215 0.910657 0.739914 -0.391507
O2    O     O_R   0.549447 0.857926 0.865834 -0.373498
N18   N     N_R   0.892719 0.261581 0.324288 0.229198
O3    O     O_R   0.000671 0.236120 0.257765 -0.517452
O4    O     O_R   0.830870 0.183318 0.346326 -0.379330
Cl2   Cl    Cl    0.945442 0.677074 0.544876 -0.780492
N19   N     N_R   0.926527 0.460919 0.609565 0.228370
O5    O     O_R   0.918020 0.352526 0.559195 -0.429887
O6    O     O_R   0.833726 0.528563 0.680391 -0.418500
Cl3   Cl    Cl    0.175069 0.788041 0.720027 -0.698038
Cl4   Cl    Cl    0.708365 0.956571 0.098303 -0.684388
Cl5   Cl    Cl    0.384333 0.696419 0.992446 -0.702249

loop_
_geom_bond_atom_site_label_1
_geom_bond_atom_site_label_2
_geom_bond_distance
_ccdc_geom_bond_type
C37   C42   1.394893 A    
C6    C12   1.365849 A    
N9    Ni1   1.868367 S    
H26   C48   1.077972 S    
C46   H28   1.083147 S    
C61   C62   1.332746 D    
C27   C36   1.489768 S    
C47   C48   1.392917 A    
C9    C63   1.472857 S    
C61   H34   1.087096 S    
C3    H3    1.073491 S    
C43   N18   1.424479 S    
C41   H25   1.083192 S    
N10   Ni2   1.886237 S    
N15   Ni4   1.889138 S    
C55   C56   1.394892 A    
C52   H30   1.084360 S    
C34   C35   1.385303 A    
N9    N15   1.386602 A    
C7    N7    1.325242 A    
C15   H10   1.051883 S    
N7    Ni4   1.888882 S    
C37   C38   1.395092 A    
N12   Ni4   1.852956 S    
N14   Ni1   1.886369 S    
C40   N17   1.439852 S    
C23   C50   1.448578 S    
C3    C11   1.373584 A    
C62   H35   1.085973 S    
C25   C26   1.398306 A    
C1    H1    1.079627 S    
C33   C34   1.389392 A    
C7    C10   1.386477 A    
C58   H33   1.079926 S    
C33   C42   1.467898 S    
C26   C27   1.408986 A    
N11   Ni3   1.888881 S    
C63   C64   1.323789 D    
C47   Cl2   1.710132 S    
C7    H7    1.075247 S    
C6    H6    1.075607 S    
C22   C32   1.470496 S    
C8    C9    1.383527 A    
C19   C21   1.375120 A    
C55   C60   1.405768 A    
C15   C23   1.368332 A    
C56   H32   1.081614 S    
C14   N10   1.329397 A    
C31   H20   1.078613 S    
C14   C22   1.389457 A    
C13   N9    1.313539 A    
C16   C24   1.393994 A    
C11   C62   1.407110 S    
C17   N13   1.339825 A    
C13   Cl5   1.758833 S    
C52   C53   1.400675 A    
C5    H5    1.080648 S    
C31   C36   1.387754 A    
C1    C9    1.396917 A    
C56   C57   1.404714 A    
N1    N8    1.413436 A    
C59   C60   1.411622 A    
C49   C50   1.381487 A    
N6    Ni1   1.886235 S    
C49   H29   1.085915 S    
N12   N13   1.413434 A    
C41   C42   1.405937 A    
C19   N15   1.336196 A    
N16   Ni3   1.853708 S    
C17   C24   1.394536 A    
C34   H21   1.068934 S    
C29   H19   1.082422 S    
C35   C36   1.402852 A    
C2    N2    1.337386 A    
C43   C44   1.398784 A    
N1    Ni1   1.867246 S    
C37   H22   1.080941 S    
C32   C33   1.404118 A    
C13   C21   1.368999 A    
C28   C29   1.398642 A    
N8    Ni3   1.852956 S    
N2    N7    1.413449 A    
C39   H24   1.080564 S    
C59   Cl3   1.761956 S    
C25   H16   1.081956 S    
C1    N1    1.344642 A    
C18   H13   1.077432 S    
C16   H11   1.078633 S    
C10   C53   1.453851 S    
C44   C45   1.401715 A    
C50   C51   1.422566 A    
C20   Cl1   1.767784 S    
C26   H17   1.083171 S    
C18   C23   1.374359 A    
N11   N14   1.413450 A    
C6    N6    1.319441 A    
N5    Ni2   1.868367 S    
C40   C41   1.406134 A    
C18   N14   1.323998 A    
C63   Cl4   1.755746 S    
C4    N4    1.340714 A    
H15   C30   1.082495 S    
C38   C39   1.397753 A    
C17   H12   1.072661 S    
C28   H18   1.078193 S    
C39   C40   1.405063 A    
C5    N5    1.313465 A    
C57   N19   1.437641 S    
N18   O3    1.299353 A    
C8    N8    1.340248 A    
N3    Ni3   1.889139 S    
N17   O2    1.301377 A    
C12   C35   1.464099 S    
N19   O5    1.300482 A    
C4    C12   1.398541 A    
C3    N3    1.332245 A    
C19   H14   1.081680 S    
C31   C32   1.403538 A    
C14   H9    1.076088 S    
C51   C60   1.479997 S    
C38   H23   1.078368 S    
C2    C10   1.384066 A    
C64   H36   1.082549 S    
C21   C61   1.418896 S    
C20   C22   1.393637 A    
C55   H31   1.083586 S    
N2    Ni2   1.886368 S    
C27   C28   1.404651 A    
C43   C48   1.397028 A    
N10   N16   1.386606 A    
C16   N12   1.342341 A    
C57   C58   1.409665 A    
C44   H27   1.083496 S    
C25   C30   1.396467 A    
C45   C46   1.386131 A    
C15   N11   1.318851 A    
N3    N5    1.386603 A    
C58   C59   1.402577 A    
C49   C54   1.356686 A    
C4    H4    1.071817 S    
C45   C54   1.454013 S    
C2    H2    1.078351 S    
C46   C47   1.379060 A    
C20   N16   1.337188 A    
N4    N6    1.386605 A    
C53   C54   1.408034 A    
N18   O4    1.301233 A    
C8    H8    1.074386 S    
C5    C11   1.363656 A    
C51   C52   1.398769 A    
C29   C30   1.396390 A    
N17   O1    1.301564 A    
N4    Ni4   1.853707 S    
N13   Ni2   1.867246 S    
N19   O6    1.299599 A    
