data_mof_unit_19147.cif
_audit_creation_date              2012-12-11T14:08:23-0500
_audit_creation_method            fapswitch 2.2
_symmetry_space_group_name_H-M    P1
_symmetry_Int_Tables_number       1
_space_group_crystal_system       triclinic
_cell_length_a                    11.000385
_cell_length_b                    11.006254
_cell_length_c                    18.713795
_cell_angle_alpha                 90.489472
_cell_angle_beta                  89.772633
_cell_angle_gamma                 60.058327
_cell_volume                      1963.17683399

loop_
_atom_site_label
_atom_site_type_symbol
_atom_type_description
_atom_site_fract_x
_atom_site_fract_y
_atom_site_fract_z
_atom_type_partial_charge
C1    C     C_R   0.295013 0.620784 0.614664 0.586219
C2    C     C_3   0.696444 0.532144 0.801155 0.123148
C3    C     C_3   0.699123 0.672334 0.813800 -0.007462
C4    C     C_3   0.661525 0.641684 0.679115 -0.047577
C5    C     C_3   0.794400 0.653905 0.687582 0.195763
C6    C     C_3   0.686437 0.508571 0.720631 0.105582
C7    C     C_2   0.664121 0.177309 0.675183 -0.052099
C8    C     C_2   0.682474 0.178583 0.831764 -0.035864
C9    C     C_2   0.791476 0.142842 0.787325 -0.108617
C10   C     C_2   0.772644 0.172452 0.710217 -0.113244
C11   C     C_2   0.257492 0.633861 0.690405 -0.048562
C12   C     C_R   0.648006 0.616162 0.604058 0.677971
C13   C     C_2   0.220244 0.649715 0.847997 0.358985
C14   C     C_2   0.235090 0.542332 0.806793 -0.110659
C15   C     C_2   0.285047 0.523284 0.731582 -0.072927
C16   C     C_2   0.651682 0.647014 0.318012 -0.056207
C17   C     C_2   0.632049 0.665519 0.158855 0.383881
C18   C     C_2   0.708042 0.548655 0.196097 -0.121538
C19   C     C_2   0.684843 0.540053 0.271977 -0.096983
C20   C     C_2   0.625492 0.206703 0.316542 -0.097505
C21   C     C_2   0.634656 0.204372 0.162773 -0.097682
C22   C     C_2   0.519949 0.231563 0.199129 -0.079619
C23   C     C_R   0.625809 0.232195 0.603057 0.588731
C24   C     C_2   0.508537 0.261921 0.275338 0.271027
C25   C     C_2   0.121069 0.681111 0.346180 -0.084606
C26   C     C_2   0.116802 0.690809 0.189770 0.390524
C27   C     C_2   0.037105 0.798287 0.235231 0.334730
C28   C     C_2   0.077455 0.796743 0.308734 -0.086197
C29   C     C_R   0.701933 0.104502 0.898734 0.550064
C30   C     C_R   0.723883 0.687651 0.888937 0.671260
C31   C     C_R   0.123369 0.703604 0.909287 0.581712
C32   C     C_R   0.672612 0.114793 0.100730 0.580915
C33   C     C_R   0.692278 0.688923 0.094687 0.569797
C34   C     C_R   0.216027 0.651159 0.404704 0.594114
C35   C     C_R   0.086991 0.713313 0.114886 0.622534
C36   C     C_R   0.641854 0.621337 0.393015 0.544571
C37   C     C_R   0.610623 0.239306 0.392024 0.571892
C38   C     C_3   0.554123 0.798214 0.790019 0.162272
C39   C     C_3   0.525031 0.769998 0.712627 0.162281
C40   C     C_3   0.814061 0.681287 0.766984 0.509365
Cr1   Cr    Cr6+3 0.393010 0.398050 0.501480 1.052286
Cr2   Cr    Cr6+3 0.398820 0.707980 0.501630 1.088353
Cr3   Cr    Cr6+3 0.708140 0.393940 0.496850 1.037806
Cr4   Cr    Cr6+3 0.937950 0.938450 0.008940 1.103978
Cr5   Cr    Cr6+3 0.626180 0.937030 0.994750 1.109511
Cr6   Cr    Cr6+3 0.937790 0.625760 0.001410 1.057428
H1    H     H_    0.556277 0.897262 0.795436 0.182259
H2    H     H_    0.781837 0.415771 0.699978 0.154037
H3    H     H_    0.887866 0.553158 0.670638 0.147469
H4    H     H_    0.897948 0.079979 0.806317 0.136410
H5    H     H_    0.852733 0.183060 0.681551 0.131401
H6    H     H_    0.575579 0.243749 0.813485 0.119260
H7    H     H_    0.589180 0.159524 0.703837 0.066258
H8    H     H_    0.197763 0.473747 0.825782 0.144420
H9    H     H_    0.332410 0.418838 0.707988 0.141521
H10   H     H_    0.204376 0.739507 0.712442 0.151787
H11   H     H_    0.799706 0.459064 0.172488 0.102584
H12   H     H_    0.710856 0.437149 0.291522 0.138070
H13   H     H_    0.626398 0.750790 0.300598 0.153091
H14   H     H_    0.439264 0.215990 0.174799 0.157424
H15   H     H_    0.712304 0.227315 0.184957 0.114046
H16   H     H_    0.730412 0.141721 0.294765 0.105322
H17   H     H_    0.449053 0.732166 0.718890 0.255595
H18   H     H_    0.086702 0.884905 0.328453 0.154975
H19   H     H_    0.103538 0.597713 0.326790 0.142562
H20   H     H_    0.593887 0.554032 0.824197 0.254523
O1    O     O_R   0.507110 0.256280 0.580300 -0.544815
O2    O     O_R   0.524640 0.695370 0.425100 -0.482068
O3    O     O_R   0.735890 0.504390 0.415980 -0.521763
O4    O     O_R   0.690560 0.277820 0.422350 -0.513452
O5    O     O_3   0.499990 0.499990 0.499980 -0.286110
O6    O     O_R   0.089190 0.825870 0.932320 -0.462901
O7    O     O_R   0.819070 0.053960 0.931440 -0.499722
O8    O     O_R   0.607070 0.076440 0.916460 -0.519211
O9    O     O_R   0.647110 0.806550 0.917690 -0.466968
O10   O     O_R   0.837080 0.593860 0.915300 -0.456815
O11   O     O_R   0.064770 0.636080 0.932550 -0.517537
O12   O     O_R   0.280830 0.527190 0.577940 -0.504455
O13   O     O_R   0.068250 0.829200 0.092940 -0.471443
O14   O     O_R   0.799650 0.057040 0.080330 -0.455690
O15   O     O_R   0.586130 0.079760 0.077080 -0.515095
O16   O     O_R   0.627700 0.809630 0.066580 -0.449246
O17   O     O_R   0.816140 0.597180 0.075920 -0.561270
O18   O     O_R   0.045360 0.639170 0.081440 -0.516945
O19   O     O_3   0.833980 0.833750 0.001700 -0.288366
O20   O     O_R   0.261360 0.738990 0.584270 -0.508915
O21   O     O_R   0.532590 0.694780 0.574370 -0.446375
O22   O     O_R   0.744470 0.503750 0.577000 -0.538417
O23   O     O_R   0.698520 0.277230 0.571620 -0.486723
O24   O     O_R   0.498530 0.256920 0.419280 -0.471087
O25   O     O_R   0.272880 0.527780 0.428680 -0.466393
O26   O     O_R   0.252780 0.739630 0.423250 -0.513563
F1    F     F_    0.946324 0.580760 0.789079 -0.705260
F2    F     F_    0.281075 0.725096 0.828135 -0.593986
F3    F     F_    0.447025 0.814522 0.835209 -0.580542
F4    F     F_    0.509342 0.772370 0.185597 -0.624227
O27   O     O_3   0.376268 0.350227 0.304605 -0.473970
C41   C     C_3   0.290506 0.288862 0.297902 -0.057437
H21   H     H_    0.348859 0.173492 0.306952 0.112472
H22   H     H_    0.238898 0.312770 0.244950 0.144574
H23   H     H_    0.206281 0.336090 0.339113 0.130366
F5    F     F_    0.926463 0.919575 0.211558 -0.667538
F6    F     F_    0.231549 0.570642 0.210909 -0.655606
O28   O     O_3   0.450811 0.887695 0.667146 -0.543480
C42   C     C_3   0.486642 0.993067 0.673531 -0.081090
H24   H     H_    0.598478 0.951934 0.685074 0.193438
H25   H     H_    0.419885 0.070434 0.715239 0.108360
H26   H     H_    0.464123 0.048942 0.622053 0.169826
O29   O     O_3   0.801256 0.815648 0.775958 -0.573935
C43   C     C_3   0.917046 0.820425 0.745863 -0.007876
H27   H     H_    0.878964 0.902564 0.704963 0.150377
H28   H     H_    0.994365 0.723155 0.717614 0.183312
H29   H     H_    0.970856 0.845516 0.788253 0.120992
F7    F     F_    0.790403 0.753544 0.641352 -0.665892
O30   O     O_3   0.794635 0.410940 0.839665 -0.562271
C44   C     C_3   0.936736 0.345626 0.816865 -0.033067
H30   H     H_    0.955519 0.369878 0.762227 0.113589
H31   H     H_    0.982384 0.230669 0.818791 0.120657
H32   H     H_    0.998488 0.369594 0.855257 0.204671
F8    F     F_    0.577611 0.481749 0.708864 -0.683478

loop_
_geom_bond_atom_site_label_1
_geom_bond_atom_site_label_2
_ccdc_geom_bond_type
C7    C10   D    
C30   O9    A    
C5    F7    S    
Cr5   O16   S    
C1    C11   S    
C40   F1    S    
Cr6   O10   S    
O27   C41   S    
C39   O28   S    
Cr1   O1    S    
C25   C28   D    
C32   O15   A    
C42   H25   S    
C26   C27   D    
Cr3   O23   S    
C6    H2    S    
C37   O24   A    
Cr3   O22   S    
C22   H14   S    
C38   C39   S    
C29   O7    A    
O30   C44   S    
C44   H30   S    
C18   C19   S    
C23   O1    A    
C34   O25   A    
C43   H27   S    
C11   C15   D    
C20   C24   D    
C3    C38   S    
C8    C9    D    
C38   F3    S    
C23   O23   A    
Cr2   O20   S    
C13   C14   D    
C4    C12   S    
C33   O16   A    
C8    H6    S    
C21   H15   S    
C25   C34   S    
Cr1   O5    S    
Cr6   O19   S    
Cr1   O24   S    
Cr3   O3    S    
C21   C22   D    
Cr2   O2    S    
C1    O12   A    
C5    H3    S    
C2    C6    S    
C17   C33   S    
C10   H5    S    
C6    F8    S    
O28   C42   S    
C42   H26   S    
C31   O11   A    
C43   H28   S    
C19   H12   S    
C21   C32   S    
C12   O22   A    
C24   O27   S    
Cr4   O14   S    
C25   H19   S    
C4    C6    S    
Cr1   O12   S    
C29   O8    A    
Cr5   O8    S    
C16   H13   S    
C15   H9    S    
C3    C30   S    
Cr5   O19   S    
C26   F6    S    
C32   O14   A    
C30   O10   A    
C2    O30   S    
C18   H11   S    
C4    C39   S    
C17   C18   D    
C17   F4    S    
C33   O17   A    
C43   H29   S    
C38   H1    S    
Cr6   O18   S    
C28   H18   S    
C31   O6    A    
C14   H8    S    
C3    C40   S    
Cr3   O4    S    
C41   H22   S    
C22   C24   S    
C8    C29   S    
Cr4   O19   S    
C36   O3    A    
C9    C10   S    
C1    O20   A    
Cr3   O5    S    
C12   O21   A    
Cr1   O25   S    
C13   C31   S    
Cr4   O13   S    
Cr5   O15   S    
C9    H4    S    
C4    C5    S    
C2    H20   S    
Cr6   O11   S    
C35   O18   A    
C36   O2    A    
C40   O29   S    
C41   H23   S    
C39   H17   S    
C42   H24   S    
C27   F5    S    
C44   H32   S    
C13   F2    S    
Cr5   O9    S    
C2    C3    S    
O29   C43   S    
C16   C36   S    
C20   C37   S    
C16   C19   D    
C7    C23   S    
C35   O13   A    
Cr2   O5    S    
C44   H31   S    
Cr4   O6    S    
Cr2   O26   S    
C20   H16   S    
Cr4   O7    S    
C34   O26   A    
Cr6   O17   S    
C26   C35   S    
C41   H21   S    
C5    C40   S    
C27   C28   S    
C7    H7    S    
C14   C15   S    
Cr2   O21   S    
C37   O4    A    
C11   H10   S    
