data_mof_unit_28354.cif
_audit_creation_date              2012-12-10T21:29:01-0500
_audit_creation_method            fapswitch 2.2
_symmetry_space_group_name_H-M    P1
_symmetry_Int_Tables_number       1
_space_group_crystal_system       triclinic
_cell_length_a                    10.662935
_cell_length_b                    16.135706
_cell_length_c                    16.733993
_cell_angle_alpha                 88.119917
_cell_angle_beta                  91.350099
_cell_angle_gamma                 90.260637
_cell_volume                      2876.78087244

loop_
_atom_site_label
_atom_site_type_symbol
_atom_type_description
_atom_site_fract_x
_atom_site_fract_y
_atom_site_fract_z
_atom_type_partial_charge
C1    C     C_R   0.496377 0.489306 0.654002 0.963505
C2    C     C_R   0.615276 0.494640 0.896799 0.122325
C3    C     C_R   0.610980 0.418167 0.859356 0.437522
C4    C     C_R   0.739653 0.498366 0.498474 0.886986
C5    C     C_R   0.552914 0.411938 0.783483 -0.184467
C6    C     C_R   0.574528 0.451839 0.138017 -0.239971
C7    C     C_R   0.555829 0.445661 0.219658 -0.181883
C8    C     C_R   0.567454 0.529492 0.098139 0.227389
C9    C     C_R   0.530146 0.517036 0.261823 -0.078190
C10   C     C_R   0.529324 0.595008 0.222389 -0.356821
C11   C     C_R   0.547677 0.601413 0.140430 0.537707
C12   C     C_R   0.931913 0.458927 0.430383 0.033604
C13   C     C_R   0.456730 0.761496 0.449424 -0.295123
C14   C     C_R   0.446327 0.848470 0.451385 0.410156
C15   C     C_R   0.498329 0.890942 0.517542 0.042443
C16   C     C_R   0.508274 0.510584 0.347210 0.959297
C17   C     C_R   0.556796 0.842559 0.580204 0.243102
C18   C     C_R   0.568117 0.755712 0.573366 0.544719
C19   C     C_R   0.581826 0.146845 0.497526 -0.264107
C20   C     C_R   0.586546 0.233719 0.509243 -0.039494
C21   C     C_R   0.466543 0.109863 0.474008 0.174458
C22   C     C_R   0.376048 0.248439 0.462365 -0.137494
C23   C     C_R   0.871763 0.495241 0.494689 -0.132293
C24   C     C_R   0.364248 0.161518 0.452902 0.431906
C25   C     C_R   0.260072 0.502069 0.496573 1.046821
C26   C     C_R   0.865926 0.416477 0.369844 -0.157832
C27   C     C_R   0.928858 0.383543 0.306347 -0.258333
C28   C     C_R   0.057075 0.398638 0.297003 -0.104224
C29   C     C_R   0.121403 0.447169 0.353563 0.482247
C30   C     C_R   0.061993 0.469144 0.425026 -0.112545
C31   C     C_2   0.527596 0.328068 0.752276 1.072466
C32   C     C_2   0.588802 0.649312 0.893103 1.057012
C33   C     C_3   0.648869 0.721404 0.109548 -0.255120
C34   C     C_R   0.937158 0.538263 0.552953 -0.291085
C35   C     C_2   0.419513 0.628406 0.753541 1.043500
C36   C     C_2   0.702910 0.271155 0.540708 1.052332
C37   C     C_2   0.698022 0.095778 0.504064 0.963184
C38   C     C_3   0.687691 0.934013 0.645608 -0.155568
C39   C     C_3   0.755239 0.716347 0.629466 -0.232694
C40   C     C_3   0.256880 0.884795 0.397139 -0.225154
C41   C     C_3   0.189228 0.170234 0.367241 -0.242625
C42   C     C_2   0.121829 0.366861 0.226470 0.920408
C43   C     C_3   0.205318 0.562433 0.296236 -0.283208
C44   C     C_3   0.118843 0.675359 0.589232 -0.199807
C45   C     C_R   0.064733 0.547018 0.549049 0.492550
C46   C     C_3   0.778832 0.341535 0.902322 -0.165027
C47   C     C_R   0.127250 0.507473 0.488660 -0.236509
C48   C     C_R   0.509250 0.484948 0.742483 -0.246417
C49   C     C_R   0.504425 0.560488 0.783419 -0.131713
C50   C     C_R   0.570274 0.567435 0.856370 -0.173425
H1    H     H_    0.888830 0.564923 0.602031 0.161972
H2    H     H_    0.510366 0.750420 0.938731 0.364836
H3    H     H_    0.729328 0.686674 0.085947 0.180193
H4    H     H_    0.667228 0.736506 0.173187 0.153541
H5    H     H_    0.641205 0.780859 0.074620 0.207779
H6    H     H_    0.390596 0.750677 0.731944 0.344560
H7    H     H_    0.886858 0.294689 0.525276 0.350386
H8    H     H_    0.802855 0.006695 0.456729 0.331819
H9    H     H_    0.744577 0.927060 0.591137 0.122234
H10   H     H_    0.752303 0.925761 0.698163 0.185384
H11   H     H_    0.649199 0.997601 0.647384 0.209595
H12   H     H_    0.510581 0.650788 0.254333 0.179934
H13   H     H_    0.788666 0.702458 0.568834 0.129124
H14   H     H_    0.799056 0.671477 0.673132 0.189728
H15   H     H_    0.787700 0.778830 0.646403 0.164970
H16   H     H_    0.210043 0.922612 0.348681 0.205454
H17   H     H_    0.228037 0.909900 0.455124 0.169725
H18   H     H_    0.223465 0.819734 0.391770 0.120442
H19   H     H_    0.254402 0.196567 0.321826 0.164434
H20   H     H_    0.132031 0.219797 0.392845 0.171455
H21   H     H_    0.123427 0.128309 0.335687 0.202689
H22   H     H_    0.285410 0.346150 0.172140 0.345494
H23   H     H_    0.297788 0.288648 0.447781 0.171416
H24   H     H_    0.293491 0.595438 0.282486 0.190818
H25   H     H_    0.152673 0.602663 0.336500 0.134884
H26   H     H_    0.152253 0.555352 0.238778 0.176036
H27   H     H_    0.178718 0.709777 0.631971 0.207206
H28   H     H_    0.020947 0.696834 0.595829 0.114377
H29   H     H_    0.151939 0.691620 0.528006 0.130315
H30   H     H_    0.814917 0.341857 0.840380 0.178211
H31   H     H_    0.807088 0.281965 0.932305 0.203397
H32   H     H_    0.823440 0.392287 0.936425 0.159397
H33   H     H_    0.765626 0.407493 0.370521 0.170652
H34   H     H_    0.415390 0.729160 0.399624 0.193615
H35   H     H_    0.875652 0.348878 0.262667 0.202861
H36   H     H_    0.559048 0.385006 0.249338 0.182607
H37   H     H_    0.587761 0.395875 0.105252 0.196931
H38   H     H_    0.404581 0.251429 0.698120 0.343158
N1    N     N_2   0.637444 0.492388 0.980588 -0.148071
N2    N     N_2   0.559313 0.535159 0.014631 -0.128551
N3    N     N_R   0.515300 0.716920 0.509720 -0.178894
N4    N     N_2   0.496348 0.979826 0.524408 -0.129450
N5    N     N_2   0.453949 0.021777 0.465564 -0.018167
N6    N     N_R   0.484690 0.283070 0.490290 -0.150267
O1    O     O_R   0.494530 0.422540 0.612660 -0.573460
O2    O     O_R   0.410706 0.310430 0.716961 -0.775696
O3    O     O_2   0.695146 0.673821 0.908129 -0.621413
O4    O     O_R   0.485221 0.696121 0.913984 -0.740730
O5    O     O_3   0.535480 0.677154 0.100160 -0.588966
O6    O     O_2   0.314525 0.610862 0.728513 -0.589293
O7    O     O_R   0.457650 0.711378 0.754196 -0.724317
O8    O     O_2   0.703449 0.304065 0.605391 -0.592497
O9    O     O_R   0.812914 0.267599 0.497097 -0.796911
O10   O     O_2   0.773498 0.104736 0.559306 -0.627592
O11   O     O_R   0.721178 0.037511 0.446176 -0.778014
O12   O     O_R   0.504350 0.561840 0.618900 -0.567738
O13   O     O_3   0.588858 0.876047 0.653253 -0.559249
O14   O     O_3   0.624052 0.708434 0.634285 -0.530388
O15   O     O_3   0.387785 0.890772 0.387882 -0.555316
O16   O     O_3   0.252566 0.123792 0.428656 -0.592891
O17   O     O_2   0.060964 0.336862 0.171603 -0.632220
O18   O     O_R   0.252740 0.369804 0.222999 -0.761571
O19   O     O_3   0.233523 0.484311 0.333006 -0.592824
O20   O     O_3   0.129576 0.589553 0.607457 -0.551147
O21   O     O_3   0.646796 0.346927 0.902177 -0.586983
O22   O     O_R   0.678320 0.430330 0.496880 -0.630504
O23   O     O_R   0.688140 0.569640 0.503120 -0.618318
O24   O     O_R   0.495650 0.438160 0.381100 -0.600584
O25   O     O_R   0.505470 0.577460 0.387340 -0.647156
O26   O     O_R   0.311860 0.430360 0.496880 -0.616489
O27   O     O_R   0.321680 0.569670 0.503120 -0.603825
O28   O     O_2   0.606518 0.273482 0.760227 -0.565006
Zn1   Zn    Zn3+2 0.493440 0.406980 0.495830 1.011434
Zn2   Zn    Zn3+2 0.506560 0.593020 0.504170 0.986932

loop_
_geom_bond_atom_site_label_1
_geom_bond_atom_site_label_2
_ccdc_geom_bond_type
C33   H5    S    
C14   O15   S    
H22   O18   S    
C26   H33   S    
O22   Zn1   S    
C22   N6    A    
C19   C20   A    
H38   O2    S    
O25   Zn2   S    
C39   H14   S    
C13   H34   S    
C34   H1    S    
C46   O21   S    
C36   O9    S    
C18   N3    A    
C36   O8    D    
C28   C29   A    
C19   C21   A    
C9    C16   S    
H6    O7    S    
C17   O13   S    
C7    H36   S    
C31   O2    S    
C43   H26   S    
C32   O3    D    
C11   O5    S    
C28   C42   S    
C38   O13   S    
C27   H35   S    
C42   O18   S    
O27   Zn2   S    
C29   O19   S    
C19   C37   S    
C15   N4    S    
C46   H32   S    
C45   O20   S    
C40   H17   S    
C35   C49   S    
C2    C50   A    
C9    C10   A    
C25   C47   S    
O26   Zn1   S    
C1    O12   A    
C41   H21   S    
C38   H11   S    
N6    Zn1   S    
C43   H24   S    
C44   O20   S    
C40   H16   S    
C13   C14   A    
C13   N3    A    
C33   H3    S    
C39   H15   S    
C10   H12   S    
C4    O22   A    
C45   C47   A    
C43   H25   S    
C39   O14   S    
H7    O9    S    
C5    C48   A    
C30   C47   A    
C24   O16   S    
C16   O25   A    
C4    C23   S    
C6    C8    A    
C3    C5    A    
C6    H37   S    
C12   C26   A    
C33   O5    S    
C2    N1    S    
C42   O17   D    
C37   O11   S    
C29   C30   A    
C16   O24   A    
C46   H31   S    
C12   C23   A    
C1    O1    A    
C23   C34   A    
C17   C18   A    
C26   C27   A    
C34   C45   A    
C32   C50   S    
C40   O15   S    
C38   H10   S    
C48   C49   A    
C41   O16   S    
C22   C24   A    
C4    O23   A    
C8    N2    S    
C35   O6    D    
C25   O26   A    
C41   H19   S    
O1    Zn1   S    
C33   H4    S    
C15   C17   A    
C20   N6    A    
C44   H27   S    
C12   C30   A    
O23   Zn2   S    
C44   H29   S    
C31   O28   D    
C35   O7    S    
C37   O10   D    
C1    C48   S    
C6    C7    A    
C39   H13   S    
N3    Zn2   S    
H8    O11   S    
C44   H28   S    
C2    C3    A    
C3    O21   S    
C43   O19   S    
C46   H30   S    
C21   N5    S    
C8    C11   A    
H2    O4    S    
N4    N5    D    
C32   O4    S    
O24   Zn1   S    
C18   O14   S    
C10   C11   A    
C38   H9    S    
C20   C36   S    
C7    C9    A    
C49   C50   A    
C40   H18   S    
C21   C24   A    
O12   Zn2   S    
C27   C28   A    
C14   C15   A    
C22   H23   S    
N1    N2    D    
C25   O27   A    
C41   H20   S    
C5    C31   S    
