data_mof_unit_24744.cif
_audit_creation_date              2013-03-05T15:48:19-0500
_audit_creation_method            fapswitch 2.2
_symmetry_space_group_name_H-M    P1
_symmetry_Int_Tables_number       1
_space_group_crystal_system       triclinic
_cell_length_a                    10.239489
_cell_length_b                    10.911668
_cell_length_c                    16.851046
_cell_angle_alpha                 92.535327
_cell_angle_beta                  75.348289
_cell_angle_gamma                 92.416607
_cell_volume                      1818.82278466

loop_
_atom_site_label
_atom_site_type_symbol
_atom_site_description
_atom_site_fract_x
_atom_site_fract_y
_atom_site_fract_z
_atom_type_partial_charge
O1    O     O_R   0.430310 0.692580 0.506610 -0.527651
O2    O     O_R   0.569690 0.307420 0.493390 -0.561349
O3    O     O_R   0.652740 0.659410 0.485540 -0.612475
O4    O     O_R   0.347260 0.340590 0.514460 -0.632842
C1    C     C_R   0.551959 0.731803 0.490684 0.998594
C2    C     C_R   0.447008 0.268167 0.503520 0.947001
O5    O     O_R   0.375640 0.518570 0.627580 -0.571017
O6    O     O_R   0.624360 0.481430 0.372420 -0.567487
O7    O     O_R   0.598070 0.485390 0.606510 -0.617692
O8    O     O_R   0.401930 0.514610 0.393490 -0.605977
C3    C     C_R   0.480038 0.503176 0.654619 0.927880
C4    C     C_R   0.520646 0.499935 0.344429 0.927455
Zn1   Zn    Zn3+2 0.351480 0.522150 0.514070 1.145346
Zn2   Zn    Zn3+2 0.648520 0.477850 0.485930 1.132665
C5    C     C_R   0.457364 0.482371 0.740775 -0.127770
C6    C     C_R   0.535192 0.490020 0.255434 -0.180891
C7    C     C_R   0.486244 0.573076 0.796704 0.307230
C8    C     C_R   0.452967 0.555698 0.217937 0.308544
C9    C     C_R   0.459104 0.543747 0.879226 -0.160719
C10   C     C_R   0.449088 0.523915 0.137513 -0.144411
C11   C     C_R   0.407784 0.426642 0.904718 0.056075
C12   C     C_R   0.529290 0.430015 0.093660 0.041770
C13   C     C_R   0.372809 0.340565 0.849652 -0.001539
C14   C     C_R   0.620674 0.374279 0.128043 -0.026055
C15   C     C_R   0.397477 0.368612 0.767723 -0.194867
C16   C     C_R   0.624867 0.405574 0.207846 -0.104812
C17   C     C_2   0.408575 0.390547 0.986975 0.135090
C18   C     C_2   0.527708 0.399591 0.008413 0.149740
H1    H     H_    0.695917 0.360118 0.232283 0.255431
H2    H     H_    0.372934 0.300267 0.724595 0.153765
H3    H     H_    0.333029 0.250235 0.869293 0.179351
H4    H     H_    0.687605 0.305553 0.093464 0.200623
H5    H     H_    0.387369 0.575357 0.108031 0.181941
H6    H     H_    0.484553 0.609594 0.923461 0.184870
C19   C     C_2   0.570016 0.861063 0.474050 -0.474831
C20   C     C_2   0.421463 0.137968 0.505014 -0.375619
C21   C     C_2   0.469351 0.930436 0.461916 0.365536
C22   C     C_2   0.499401 0.059185 0.451855 0.333071
H7    H     H_    0.337150 0.105044 0.553242 0.174869
H8    H     H_    0.669481 0.902566 0.471149 0.179375
H9    H     H_    0.126648 0.425039 0.447807 0.181777
H10   H     H_    0.867579 0.547244 0.567952 0.190807
N1    N     N_2   0.846390 0.448330 0.467170 0.034762
N2    N     N_2   0.153610 0.551670 0.532830 0.051072
C23   C     C_2   0.920905 0.497104 0.513531 0.042566
C24   C     C_2   0.075127 0.487777 0.495642 0.068571
N3    N     N_R   0.542308 0.693162 0.771802 0.218317
O9    O     O_R   0.532052 0.783623 0.825811 -0.319537
O10   O     O_R   0.611186 0.711926 0.696868 -0.358378
N4    N     N_R   0.387488 0.663691 0.256706 0.234313
O11   O     O_R   0.267914 0.687512 0.249032 -0.274566
O12   O     O_R   0.460265 0.751322 0.280753 -0.324526
N5    N     N_R   0.654950 0.399421 0.946805 0.210187
O13   O     O_R   0.758725 0.463214 0.959175 -0.308883
O14   O     O_R   0.670499 0.328067 0.881331 -0.327387
N6    N     N_R   0.282008 0.362367 0.045092 0.216113
O15   O     O_R   0.168742 0.391230 0.030133 -0.303591
O16   O     O_R   0.278309 0.295240 0.107641 -0.318579
S1    S     S_3+6 0.625688 0.100555 0.364412 0.103800
O17   O     O_2   0.584229 0.212241 0.329768 -0.279210
O18   O     O_2   0.755605 0.126230 0.388821 -0.238968
O19   O     O_3   0.646996 0.985954 0.292558 -0.451150
H11   H     H_    0.711629 0.930801 0.306564 0.368425
S2    S     S_3+6 0.297162 0.887488 0.463548 0.122816
O20   O     O_2   0.278730 0.763981 0.424384 -0.192848
O21   O     O_2   0.216921 0.889963 0.551403 -0.251113
O22   O     O_3   0.236144 0.992912 0.413627 -0.496767
H12   H     H_    0.137276 0.976235 0.427292 0.404742
S3    S     S_3+6 0.081036 0.634149 0.622153 0.180838
O23   O     O_2   0.992298 0.730401 0.604519 -0.230926
O24   O     O_2   0.997479 0.548366 0.683980 -0.272649
O25   O     O_3   0.201732 0.703006 0.661520 -0.460259
H13   H     H_    0.152473 0.743651 0.713570 0.389242
S4    S     S_3+6 0.930525 0.383035 0.373395 0.166974
O26   O     O_2   0.833896 0.345159 0.323158 -0.193403
O27   O     O_2   0.031883 0.474521 0.326609 -0.264548
O28   O     O_3   0.010538 0.258041 0.388905 -0.525090
H14   H     H_    0.064470 0.231814 0.333732 0.408836

loop_
_geom_bond_atom_site_label_1
_geom_bond_atom_site_label_2
_geom_bond_distance
_ccdc_geom_bond_type
S3    O25   1.680559 S    
N4    O12   1.300863 A    
H9    C24   1.078517 S    
C14   H4    1.083628 S    
C5    C7    1.410338 A    
C21   C22   1.433622 S    
N6    O16   1.301794 A    
C10   C12   1.402601 A    
N1    C23   1.306237 D    
N3    O9    1.301754 A    
C22   S1    1.758647 S    
O6    C4    1.292661 A    
O7    Zn2   1.964697 S    
S2    O20   1.500090 D    
S4    O28   1.683410 S    
N1    S4    1.735035 S    
C20   C22   1.344022 D    
N4    O11   1.301263 A    
C11   C17   1.459724 S    
O3    C1    1.309141 A    
S1    O17   1.496050 D    
N3    O10   1.301527 A    
C12   C18   1.463937 S    
N5    O13   1.301519 A    
C18   N5    1.446052 S    
O5    C3    1.283306 A    
O7    C3    1.290645 A    
S2    O21   1.500168 D    
O19   H11   0.990477 S    
O3    Zn2   1.980036 S    
O8    C4    1.297344 A    
O28   H14   0.990613 S    
O1    C1    1.266048 A    
C10   H5    1.083828 S    
C1    C19   1.445284 S    
O4    C2    1.289029 A    
C9    C11   1.403994 A    
C2    C20   1.433843 S    
C19   H8    1.087493 S    
C8    C10   1.393904 A    
N5    O14   1.301705 A    
C11   C13   1.390720 A    
C6    C16   1.403126 A    
S3    O23   1.503889 D    
O2    Zn2   1.992109 S    
C12   C14   1.390889 A    
C5    C15   1.402806 A    
O1    Zn1   1.992109 S    
S4    O26   1.491545 D    
S4    O27   1.504506 D    
O22   H12   0.990579 S    
S2    O22   1.683280 S    
C4    C6    1.468617 S    
O5    Zn1   1.992031 S    
C21   S2    1.798863 S    
N6    O15   1.301365 A    
C8    N4    1.428940 S    
C16   H1    1.070003 S    
C6    C8    1.407761 A    
C13   C15   1.384885 A    
S1    O18   1.500839 D    
C19   C21   1.365075 D    
C15   H2    1.084490 S    
S3    O24   1.503805 D    
C20   H7    1.086102 S    
N2    S3    1.731615 S    
C17   N6    1.443669 S    
Zn2   N1    2.007669 S    
S1    O19   1.683089 S    
O6    Zn2   1.992031 S    
N2    C24   1.301318 D    
C9    H6    1.083917 S    
C7    C9    1.396344 A    
C7    N3    1.444284 S    
C23   C24   1.537852 S    
C3    C5    1.437846 S    
O8    Zn1   1.964697 S    
Zn1   N2    2.007669 S    
O2    C2    1.281896 A    
O4    Zn1   1.980036 S    
C14   C16   1.383546 A    
O25   H13   0.990476 S    
C17   C18   1.355701 D    
H10   C23   1.079783 S    
C13   H3    1.083406 S    
