data_mof_unit_19520.cif
_audit_creation_date              2012-12-10T19:49:22-0500
_audit_creation_method            fapswitch 2.2
_symmetry_space_group_name_H-M    P1
_symmetry_Int_Tables_number       1
_space_group_crystal_system       triclinic
_cell_length_a                    14.990658
_cell_length_b                    14.240382
_cell_length_c                    14.931306
_cell_angle_alpha                 90.706815
_cell_angle_beta                  89.571597
_cell_angle_gamma                 89.549784
_cell_volume                      3186.9937913

loop_
_atom_site_label
_atom_site_type_symbol
_atom_type_description
_atom_site_fract_x
_atom_site_fract_y
_atom_site_fract_z
_atom_type_partial_charge
C1    C     C_R   0.327572 0.500349 0.501015 0.953487
C2    C     C_R   0.671883 0.499839 0.500999 0.934265
C3    C     C_R   0.344043 0.445086 0.045466 0.516784
C4    C     C_R   0.645139 0.580143 0.953735 0.542904
C5    C     C_R   0.091868 0.585923 0.502223 0.658697
C6    C     C_R   0.908764 0.438981 0.456920 0.669318
C7    C     C_R   0.900527 0.562102 0.571700 0.648281
C8    C     C_R   0.094321 0.418451 0.533033 0.655088
C9    C     C_R   0.183952 0.585502 0.497576 -0.337615
C10   C     C_R   0.816900 0.437623 0.453122 -0.341281
C11   C     C_R   0.808591 0.563164 0.564731 -0.292017
C12   C     C_R   0.186038 0.417703 0.524495 -0.295836
C13   C     C_R   0.231252 0.501134 0.506953 -0.207823
C14   C     C_R   0.767158 0.500065 0.506277 -0.213696
C15   C     C_R   0.046976 0.502177 0.519740 -0.099413
C16   C     C_R   0.950722 0.500504 0.517052 -0.100802
C17   C     C_R   0.540493 0.103586 0.428224 0.325247
C18   C     C_R   0.543876 0.896370 0.566899 0.302109
C19   C     C_R   0.462402 0.105153 0.571227 0.341524
C20   C     C_R   0.457759 0.894742 0.430405 0.319002
C21   C     C_R   0.538745 0.203551 0.429999 0.396625
C22   C     C_R   0.537379 0.796731 0.569564 0.370092
C23   C     C_R   0.462068 0.205099 0.569741 0.405231
C24   C     C_R   0.460263 0.794844 0.431307 0.430304
C25   C     C_R   0.501971 0.053029 0.499627 -0.111163
C26   C     C_R   0.500793 0.946706 0.498840 -0.129184
C27   C     C_R   0.498928 0.499574 0.327087 0.992978
C28   C     C_R   0.499909 0.500586 0.672711 0.998875
C29   C     C_R   0.575769 0.530572 0.812863 0.401905
C30   C     C_R   0.427549 0.458726 0.186094 0.376408
C31   C     C_R   0.498863 0.502666 0.767901 -0.310610
C32   C     C_R   0.499255 0.499168 0.231513 -0.290779
C33   C     C_R   0.420056 0.480455 0.812761 0.451773
C34   C     C_R   0.569394 0.543231 0.186720 0.453523
C35   C     C_R   0.420002 0.478699 0.905933 -0.033753
C36   C     C_R   0.568947 0.545357 0.093571 -0.027334
C37   C     C_R   0.496030 0.509810 0.952925 -0.091361
C38   C     C_R   0.495636 0.508067 0.046567 -0.077207
C39   C     C_R   0.572868 0.541217 0.906219 -0.099491
C40   C     C_R   0.421715 0.469773 0.093112 -0.094573
C41   C     C_R   0.344695 0.447864 0.952521 -0.260683
C42   C     C_R   0.640375 0.585133 0.047103 -0.284692
H1    H     H_    0.285516 0.425411 0.917239 0.206494
H2    H     H_    0.693584 0.619239 0.083300 0.200263
H3    H     H_    0.217765 0.650714 0.485135 0.183629
H4    H     H_    0.784945 0.390126 0.406851 0.164123
H5    H     H_    0.769617 0.611255 0.606397 0.231362
H6    H     H_    0.221287 0.351929 0.531609 0.181573
N1    N     N_R   0.500000 0.252470 0.500000 -0.218019
N2    N     N_R   0.500000 0.747530 0.500000 -0.214797
O1    O     O_R   0.369060 0.579480 0.500010 -0.643525
O2    O     O_R   0.630940 0.420520 0.499990 -0.631565
O3    O     O_R   0.630940 0.579480 0.499990 -0.574591
O4    O     O_R   0.369060 0.420520 0.500010 -0.608401
O5    O     O_R   0.499980 0.579490 0.367850 -0.534618
O6    O     O_R   0.500020 0.420510 0.632150 -0.558941
O7    O     O_R   0.500020 0.579490 0.632150 -0.595814
O8    O     O_R   0.499980 0.420510 0.367850 -0.583087
Zn1   Zn    Zn3+2 0.500000 0.606140 0.500000 1.035726
Zn2   Zn    Zn3+2 0.500000 0.393860 0.500000 1.017323
O9    O     O_3   0.652946 0.548503 0.764618 -0.545544
C43   C     C_3   0.702077 0.463830 0.755661 -0.240058
H7    H     H_    0.670531 0.415994 0.706028 0.158343
H8    H     H_    0.710210 0.427373 0.820736 0.146271
H9    H     H_    0.769976 0.480219 0.730879 0.194973
O10   O     O_3   0.360585 0.415515 0.234624 -0.582655
C44   C     C_3   0.374808 0.317360 0.230627 -0.132287
H10   H     H_    0.327647 0.283599 0.277666 0.175769
H11   H     H_    0.443433 0.297445 0.250940 0.190897
H12   H     H_    0.361936 0.288640 0.162467 0.176166
O11   O     O_3   0.345167 0.454419 0.765000 -0.612494
C45   C     C_3   0.293063 0.535426 0.749366 -0.357850
H13   H     H_    0.271564 0.570212 0.813204 0.168769
H14   H     H_    0.231984 0.514144 0.713154 0.208288
H15   H     H_    0.329243 0.586138 0.706528 0.165174
O12   O     O_3   0.635942 0.588476 0.234311 -0.579014
C46   C     C_3   0.703565 0.522840 0.254313 -0.318472
H16   H     H_    0.759895 0.560772 0.285631 0.212061
H17   H     H_    0.729757 0.486355 0.193069 0.152084
H18   H     H_    0.679266 0.470944 0.303301 0.145364
O13   O     O_3   0.267171 0.416533 0.088599 -0.580237
C47   C     C_3   0.211224 0.495640 0.101792 -0.212189
H19   H     H_    0.189438 0.525204 0.036769 0.130425
H20   H     H_    0.244351 0.550679 0.143136 0.164612
H21   H     H_    0.150569 0.473455 0.138628 0.202981
O14   O     O_3   0.715018 0.622092 0.907943 -0.545894
C48   C     C_3   0.798008 0.585743 0.936178 -0.251845
H22   H     H_    0.796327 0.508566 0.947634 0.127420
H23   H     H_    0.820976 0.623367 0.997251 0.155658
H24   H     H_    0.848097 0.598056 0.882618 0.217407
F1    F     F_    0.046643 0.667006 0.486507 -0.632592
F2    F     F_    0.956699 0.382100 0.400572 -0.634784
F3    F     F_    0.940394 0.620261 0.631738 -0.629353
F4    F     F_    0.051598 0.337411 0.552694 -0.636277
O15   O     O_3   0.572557 0.057493 0.352080 -0.524002
C49   C     C_3   0.654828 0.012756 0.370399 -0.230970
H25   H     H_    0.692502 0.004456 0.306541 0.189397
H26   H     H_    0.644170 0.941155 0.396465 0.165751
H27   H     H_    0.697576 0.054063 0.416971 0.112051
O16   O     O_3   0.587771 0.945277 0.633837 -0.551257
C50   C     C_3   0.680566 0.936435 0.619821 -0.203045
H28   H     H_    0.700782 0.964596 0.553757 0.123461
H29   H     H_    0.703749 0.862496 0.626149 0.203225
H30   H     H_    0.714947 0.978475 0.671987 0.192441
O17   O     O_3   0.429513 0.060699 0.646616 -0.523374
C51   C     C_3   0.348054 0.015654 0.627003 -0.293219
H31   H     H_    0.307207 0.014113 0.689197 0.190947
H32   H     H_    0.307606 0.052269 0.575569 0.120362
H33   H     H_    0.360028 0.941601 0.606212 0.150467
O18   O     O_3   0.420223 0.939221 0.357589 -0.514409
C52   C     C_3   0.338791 0.982833 0.383227 -0.266826
H34   H     H_    0.350350 0.055153 0.408674 0.151749
H35   H     H_    0.300177 0.942143 0.433440 0.115262
H36   H     H_    0.296487 0.988984 0.322929 0.191143
O19   O     O_3   0.569257 0.252868 0.357004 -0.570957
C53   C     C_3   0.663032 0.247353 0.351132 -0.202843
H37   H     H_    0.696200 0.246727 0.417741 0.138928
H38   H     H_    0.686823 0.309431 0.314499 0.150481
H39   H     H_    0.684031 0.185812 0.309960 0.188842
O20   O     O_3   0.573020 0.748240 0.640604 -0.544762
C54   C     C_3   0.518508 0.763939 0.717122 -0.139119
H40   H     H_    0.542528 0.718371 0.771607 0.193875
H41   H     H_    0.447640 0.745562 0.704023 0.107087
H42   H     H_    0.522766 0.837324 0.742463 0.196571
O21   O     O_3   0.427520 0.256237 0.641416 -0.534412
C55   C     C_3   0.334037 0.245707 0.646813 -0.111916
H43   H     H_    0.303771 0.314295 0.665808 0.211217
H44   H     H_    0.317194 0.195922 0.700781 0.183571
H45   H     H_    0.302472 0.222767 0.582859 0.078152
O22   O     O_3   0.427380 0.743974 0.359580 -0.531538
C56   C     C_3   0.333333 0.749166 0.358048 -0.169399
H46   H     H_    0.307435 0.679367 0.337701 0.171282
H47   H     H_    0.302043 0.768322 0.423806 0.096042
H48   H     H_    0.311884 0.800068 0.306696 0.186386

loop_
_geom_bond_atom_site_label_1
_geom_bond_atom_site_label_2
_ccdc_geom_bond_type
C38   C40   A    
C48   H22   S    
C9    H3    S    
C55   H43   S    
O5    Zn1   S    
C11   H5    S    
O15   C49   S    
C18   C26   A    
C21   O19   S    
C56   H48   S    
C21   N1    A    
O13   C47   S    
C28   O6    A    
O4    Zn2   S    
C28   O7    A    
C22   O20   S    
C50   H28   S    
N1    Zn2   S    
C4    C42   A    
N2    Zn1   S    
C35   C37   A    
C37   C38   A    
C11   C14   A    
C27   O5    A    
C23   N1    A    
C4    O14   S    
C51   H31   S    
O8    Zn2   S    
C15   C16   S    
C49   H27   S    
C53   H37   S    
C9    C13   A    
O18   C52   S    
C54   H42   S    
C43   H8    S    
O2    Zn2   S    
C36   C42   A    
C20   C24   A    
C20   C26   A    
C49   H26   S    
C3    O13   S    
C31   C33   A    
C17   O15   S    
O3    Zn1   S    
C12   H6    S    
C23   O21   S    
O10   C44   S    
C50   H29   S    
C41   H1    S    
C42   H2    S    
C45   H15   S    
C2    C14   S    
C46   H17   S    
C24   N2    A    
C7    F3    S    
C29   O9    S    
C5    C15   A    
C44   H10   S    
C8    F4    S    
O12   C46   S    
C45   H14   S    
C10   C14   A    
O14   C48   S    
C55   H45   S    
C25   C26   S    
C46   H16   S    
C18   O16   S    
C17   C21   A    
O6    Zn2   S    
C44   H11   S    
C32   C34   A    
C7    C11   A    
C1    O4    A    
C5    C9    A    
C43   H7    S    
C4    C39   A    
C8    C12   A    
C49   H25   S    
C29   C39   A    
C30   C40   A    
C52   H35   S    
C30   O10   S    
C1    O1    A    
C54   H40   S    
C5    F1    S    
C35   C41   A    
C2    O2    A    
C20   O18   S    
C19   O17   S    
C7    C16   A    
C3    C40   A    
C50   H30   S    
C47   H20   S    
C48   H23   S    
O21   C55   S    
C1    C13   S    
C56   H46   S    
C10   H4    S    
O20   C54   S    
C19   C23   A    
C46   H18   S    
C43   H9    S    
C3    C41   A    
C55   H44   S    
C52   H34   S    
C27   C32   S    
C18   C22   A    
C28   C31   S    
C45   H13   S    
C56   H47   S    
C2    O3    A    
C6    C10   A    
C8    C15   A    
C47   H21   S    
O17   C51   S    
C53   H39   S    
C22   N2    A    
C44   H12   S    
C17   C25   A    
C36   C38   A    
O22   C56   S    
O11   C45   S    
C29   C31   A    
C30   C32   A    
C51   H32   S    
C27   O8    A    
C6    F2    S    
O16   C50   S    
C33   C35   A    
C53   H38   S    
C52   H36   S    
C34   C36   A    
O9    C43   S    
C19   C25   A    
C54   H41   S    
O7    Zn1   S    
C33   O11   S    
C6    C16   A    
C24   O22   S    
O1    Zn1   S    
C12   C13   A    
C37   C39   A    
C47   H19   S    
C48   H24   S    
O19   C53   S    
C34   O12   S    
C51   H33   S    
