data_mof_unit_62638.cif
_audit_creation_date              2012-12-10T18:27:47-0500
_audit_creation_method            fapswitch 2.2
_symmetry_space_group_name_H-M    P1
_symmetry_Int_Tables_number       1
_space_group_crystal_system       triclinic
_cell_length_a                    19.115241
_cell_length_b                    19.067326
_cell_length_c                    19.721265
_cell_angle_alpha                 111.516876
_cell_angle_beta                  111.598594
_cell_angle_gamma                 103.257803
_cell_volume                      5639.02189457

loop_
_atom_site_label
_atom_site_type_symbol
_atom_type_description
_atom_site_fract_x
_atom_site_fract_y
_atom_site_fract_z
_atom_type_partial_charge
C1    C     C_R   0.891917 0.392127 0.000128 0.802475
C2    C     C_R   0.956889 0.800928 0.071816 0.115510
C3    C     C_R   0.743741 0.575217 0.761490 0.140426
C4    C     C_R   0.681584 0.498395 0.690159 -0.120046
C5    C     C_R   0.674105 0.423395 0.693648 0.025778
C6    C     C_R   0.738391 0.425933 0.760353 -0.037308
C7    C     C_R   0.807906 0.501129 0.822181 -0.134860
C8    C     C_R   0.804235 0.576565 0.829821 -0.012975
C9    C     C_R   0.528118 0.321512 0.634715 0.145436
C10   C     C_R   0.457382 0.247649 0.570739 -0.150200
C11   C     C_R   0.462618 0.186900 0.508260 0.088911
C12   C     C_R   0.880211 0.500915 0.883276 0.792437
C13   C     C_R   0.539877 0.199664 0.512154 0.168225
C14   C     C_R   0.608318 0.277813 0.570738 0.059871
C15   C     C_R   0.600744 0.341520 0.628888 -0.050220
C16   C     C_1   0.830474 0.331558 0.999910 -0.115798
C17   C     C_1   0.778897 0.280475 0.999394 0.054969
C18   C     C_1   0.718716 0.220345 0.998939 0.065248
C19   C     C_1   0.667966 0.169084 0.999106 -0.096413
C20   C     C_R   0.012753 0.542169 0.300495 0.094127
C21   C     C_R   0.082256 0.550388 0.289742 -0.051841
C22   C     C_R   0.094260 0.479459 0.250018 -0.048188
C23   C     C_R   0.108104 0.607844 0.999847 0.814697
C24   C     C_R   0.035916 0.399851 0.221068 0.143832
C25   C     C_R   0.968204 0.391948 0.235532 0.104126
C26   C     C_R   0.956696 0.463218 0.274846 -0.112575
C27   C     C_R   0.239554 0.493702 0.314542 0.134843
C28   C     C_R   0.314049 0.500056 0.313058 -0.158761
C29   C     C_R   0.322837 0.504812 0.246232 -0.043379
C30   C     C_R   0.255440 0.497657 0.178851 0.122975
C31   C     C_R   0.181844 0.492126 0.181177 -0.135262
C32   C     C_R   0.173257 0.489100 0.248320 -0.021367
C33   C     C_R   0.448205 0.615066 0.275493 -0.030807
C34   C     C_R   0.116810 0.496775 0.117272 0.822493
C35   C     C_R   0.519416 0.638869 0.268630 0.108276
C36   C     C_R   0.544055 0.578190 0.231696 -0.064026
C37   C     C_R   0.500027 0.494656 0.205799 0.168149
C38   C     C_R   0.432159 0.472010 0.217673 -0.136889
C39   C     C_R   0.404814 0.531443 0.250978 0.035602
C40   C     C_1   0.169579 0.668046 0.999683 -0.115695
C41   C     C_1   0.221186 0.718154 0.999236 0.060644
C42   C     C_1   0.281492 0.777162 0.998708 0.046014
C43   C     C_1   0.332331 0.828448 0.998647 -0.136445
C44   C     C_R   0.505018 0.380940 0.384825 0.802839
C45   C     C_R   0.887578 0.739155 0.056790 -0.115085
C46   C     C_R   0.618584 0.498269 0.618758 0.831342
C47   C     C_R   0.497164 0.619562 0.616113 0.842786
C48   C     C_R   0.381043 0.500322 0.380695 0.833968
C49   C     C_R   0.500205 0.882033 0.880641 0.787639
C50   C     C_R   0.607770 0.108016 0.999673 0.809695
C51   C     C_R   0.501450 0.119962 0.118655 0.809265
C52   C     C_R   0.392336 0.890776 0.999181 0.812007
C53   C     C_R   0.787887 0.505850 0.498494 0.087393
C54   C     C_R   0.708326 0.459806 0.426639 -0.109536
C55   C     C_R   0.667995 0.372253 0.389260 -0.086290
C56   C     C_R   0.835549 0.668139 0.976613 0.151931
C57   C     C_R   0.717535 0.331201 0.415116 0.120585
C58   C     C_R   0.802167 0.377606 0.478349 0.141251
C59   C     C_R   0.835243 0.464784 0.524219 0.117702
C60   C     C_R   0.573856 0.262932 0.239082 -0.048265
C61   C     C_R   0.500253 0.190959 0.180366 -0.115914
C62   C     C_R   0.425455 0.187600 0.179331 0.008570
C63   C     C_R   0.427679 0.251625 0.245704 0.133677
C64   C     C_R   0.505475 0.316028 0.315535 -0.137106
C65   C     C_R   0.580950 0.320474 0.313385 0.017807
C66   C     C_R   0.296250 0.120263 0.037112 0.161431
C67   C     C_R   0.856535 0.655373 0.912592 0.042153
C68   C     C_R   0.228640 0.047890 0.964867 -0.080893
C69   C     C_R   0.209498 0.971887 0.964165 -0.041663
C70   C     C_R   0.255100 0.969154 0.036235 -0.170837
C71   C     C_R   0.322648 0.039990 0.107665 0.137330
C72   C     C_R   0.345302 0.116065 0.108473 0.024679
C73   C     C_R   0.588456 0.841164 0.566779 0.099252
C74   C     C_R   0.580533 0.811117 0.619993 -0.046674
C75   C     C_R   0.501979 0.775987 0.611647 -0.017828
C76   C     C_R   0.432618 0.777799 0.553567 -0.071511
C77   C     C_R   0.443317 0.817947 0.508280 -0.094204
C78   C     C_R   0.927423 0.716539 0.928544 -0.100198
C79   C     C_R   0.520360 0.846438 0.512461 -0.088379
C80   C     C_R   0.498107 0.824195 0.744848 -0.059565
C81   C     C_R   0.505501 0.818116 0.815831 -0.142603
C82   C     C_R   0.521116 0.752788 0.825763 -0.046638
C83   C     C_R   0.513973 0.686086 0.758285 0.133943
C84   C     C_R   0.499683 0.688194 0.683900 -0.119701
C85   C     C_R   0.497658 0.760525 0.679527 -0.049269
C86   C     C_R   0.644248 0.806753 0.966103 -0.010812
C87   C     C_R   0.679982 0.816988 0.047307 -0.103397
C88   C     C_R   0.630396 0.777181 0.071736 -0.076419
C89   C     C_R   0.975124 0.790739 0.006900 -0.076700
C90   C     C_R   0.544257 0.730314 0.016452 0.134155
C91   C     C_R   0.507813 0.722941 0.936291 -0.049761
C92   C     C_R   0.557880 0.760028 0.910431 0.026545
Cu1   Cu    Cu3+1 0.999510 0.561800 0.061330 1.021535
Cu2   Cu    Cu3+1 0.000490 0.438200 0.938670 1.094752
Cu3   Cu    Cu3+1 0.555790 0.555750 0.499960 1.031946
Cu4   Cu    Cu3+1 0.444210 0.444200 0.499990 1.081263
Cu5   Cu    Cu3+1 0.438200 0.001560 0.939770 1.037277
Cu6   Cu    Cu3+1 0.561800 0.998350 0.060150 1.055765
H1    H     H_    0.398278 0.407604 0.197266 0.181382
H2    H     H_    0.238630 0.911208 0.036654 0.161110
O1    O     O_R   0.918180 0.470790 0.051800 -0.577863
O2    O     O_R   0.453580 0.362680 0.410500 -0.556838
O3    O     O_R   0.637300 0.547080 0.590140 -0.557553
O4    O     O_R   0.543070 0.452880 0.590170 -0.576995
O5    O     O_R   0.546420 0.637270 0.589450 -0.583193
O6    O     O_R   0.452190 0.543070 0.589480 -0.545369
O7    O     O_R   0.456930 0.547080 0.409790 -0.593544
O8    O     O_R   0.362710 0.452870 0.409810 -0.537473
O9    O     O_R   0.446190 0.911170 0.857320 -0.565608
O10   O     O_R   0.550560 0.908460 0.958980 -0.598346
O11   O     O_R   0.529210 0.082710 0.949130 -0.564763
O12   O     O_R   0.919010 0.366410 0.948200 -0.558342
O13   O     O_R   0.633590 0.080000 0.050790 -0.559295
O14   O     O_R   0.449440 0.091450 0.040930 -0.586705
O15   O     O_R   0.553810 0.088740 0.142590 -0.542674
O16   O     O_R   0.366410 0.919910 0.949130 -0.582180
O17   O     O_R   0.470790 0.917200 0.050790 -0.557920
O18   O     O_R   0.909400 0.552190 0.961620 -0.588045
O19   O     O_R   0.910240 0.447810 0.858030 -0.558516
O20   O     O_R   0.080990 0.633590 0.051800 -0.575965
O21   O     O_R   0.081820 0.529210 0.948200 -0.549102
O22   O     O_R   0.089760 0.552190 0.141970 -0.590516
O23   O     O_R   0.090600 0.447810 0.038380 -0.549275
O24   O     O_R   0.547810 0.456880 0.410470 -0.596767
I1    I     I_    0.035394 0.909769 0.193629 -0.169329
I2    I     I_    0.354711 0.072903 0.414002 -0.158019
I3    I     I_    0.555313 0.097151 0.438375 -0.120166
I4    I     I_    0.727709 0.295938 0.583271 -0.255120
C93   C     C_1   0.888684 0.456311 0.291550 0.389338
N1    N     N_1   0.834689 0.451772 0.305688 -0.226766
I5    I     I_    0.994084 0.650137 0.358835 -0.199326
C94   C     C_1   0.142288 0.632138 0.321029 0.364074
N2    N     N_1   0.190116 0.697547 0.345563 -0.227808
I6    I     I_    0.053316 0.292598 0.158517 -0.196981
I7    I     I_    0.886120 0.273609 0.204117 -0.218010
I8    I     I_    0.227744 0.501281 0.421504 -0.243391
I9    I     I_    0.269792 0.503849 0.077184 -0.227115
C95   C     C_1   0.870573 0.747933 0.124303 0.338569
N3    N     N_1   0.857009 0.754761 0.178406 -0.194536
C96   C     C_1   0.413182 0.673780 0.297108 0.296682
N4    N     N_1   0.383210 0.719385 0.312047 -0.261886
I10   I     I_    0.587998 0.766255 0.311760 -0.210672
C97   C     C_1   0.614670 0.601373 0.220440 0.394354
N5    N     N_1   0.671279 0.619591 0.211363 -0.186377
I11   I     I_    0.536200 0.401957 0.149444 -0.284343
I12   I     I_    0.958447 0.534925 0.630238 -0.159258
I13   I     I_    0.837517 0.639091 0.564928 -0.159105
C98   C     C_1   0.675311 0.504031 0.387660 0.410565
N6    N     N_1   0.651192 0.542370 0.359026 -0.268996
I14   I     I_    0.668483 0.197741 0.356457 -0.173587
I15   I     I_    0.882866 0.316857 0.501502 -0.102405
I16   I     I_    0.727070 0.578704 0.954681 -0.251804
C99   C     C_1   0.643740 0.275134 0.224453 0.309809
N7    N     N_1   0.698887 0.284000 0.212079 -0.227073
I17   I     I_    0.310598 0.247709 0.236039 -0.217047
I18   I     I_    0.323745 0.233989 0.035270 -0.253804
C100  C     C_1   0.179754 0.051274 0.890969 0.324443
N8    N     N_1   0.140584 0.053846 0.831819 -0.188051
C101  C     C_1   0.144074 0.895664 0.889468 0.285302
N9    N     N_1   0.091881 0.834781 0.829292 -0.194150
I19   I     I_    0.390137 0.026365 0.210634 -0.229118
C102  C     C_1   0.530791 0.884834 0.463800 0.355483
N10   N     N_1   0.538808 0.915082 0.424391 -0.157898
I20   I     I_    0.706444 0.887341 0.575270 -0.194918
C103  C     C_1   0.655285 0.827677 0.690467 0.340483
N11   N     N_1   0.715940 0.843081 0.747433 -0.184906
C104  C     C_1   0.951004 0.702516 0.864514 0.272735
N12   N     N_1   0.969435 0.690669 0.813039 -0.191778
C105  C     C_1   0.352562 0.746448 0.547320 0.278547
N13   N     N_1   0.288763 0.721771 0.542631 -0.210547
C106  C     C_1   0.378443 0.838014 0.464408 0.325772
N14   N     N_1   0.327896 0.855679 0.430158 -0.178234
C107  C     C_1   0.499527 0.900041 0.742755 0.281082
N15   N     N_1   0.500794 0.960332 0.741031 -0.243473
I21   I     I_    0.537062 0.588539 0.776119 -0.231918
C108  C     C_1   0.695952 0.846877 0.940855 0.287775
N16   N     N_1   0.737394 0.879254 0.921146 -0.212217
C109  C     C_1   0.767234 0.871191 0.106788 0.265173
N17   N     N_1   0.836649 0.914984 0.154332 -0.195213
C110  C     C_1   0.668737 0.785020 0.153989 0.347112
N18   N     N_1   0.700876 0.792022 0.220025 -0.174972
I22   I     I_    0.468702 0.671360 0.054351 -0.246879
C111  C     C_1   0.419037 0.677819 0.880643 0.306299
N19   N     N_1   0.347992 0.641830 0.836027 -0.209686
C112  C     C_1   0.041068 0.858470 0.020606 0.328529
N20   N     N_1   0.093326 0.913888 0.032359 -0.247366
I23   I     I_    0.741815 0.690605 0.773204 -0.258778
C113  C     C_1   0.730132 0.352521 0.769351 0.321565
N21   N     N_1   0.723436 0.294150 0.776565 -0.234899
I24   I     I_    0.530831 0.388972 0.749279 -0.200801
C114  C     C_1   0.380410 0.232238 0.572078 0.378521
N22   N     N_1   0.318749 0.219949 0.573142 -0.186371

loop_
_geom_bond_atom_site_label_1
_geom_bond_atom_site_label_2
_ccdc_geom_bond_type
Cu3   O24   S    
C66   C68   A    
C87   C88   A    
C103  N11   T    
Cu6   O10   S    
C91   C111  S    
C41   C42   S    
Cu3   Cu4   S    
C51   C61   S    
C106  N14   T    
Cu5   Cu6   S    
C53   C59   A    
C82   C92   S    
C7    C8    A    
C23   O21   A    
C4    C46   S    
C107  N15   T    
C44   C64   S    
C78   C104  S    
C80   C85   A    
C22   C32   S    
C83   C84   A    
C27   I8    S    
C49   O9    A    
C28   C29   A    
C36   C97   S    
C80   C107  S    
C93   N1    T    
C73   I20   S    
C83   I21   S    
C1    O12   A    
C5    C6    A    
Cu5   O11   S    
C43   C52   S    
C48   O7    A    
Cu4   O2    S    
C33   C96   S    
C97   N5    T    
C6    C113  S    
C53   I13   S    
C14   I4    S    
C18   C19   T    
C105  N13   T    
C49   C81   S    
C60   C99   S    
C50   O11   A    
Cu3   O5    S    
C33   C35   A    
C9    I24   S    
C84   C85   A    
C75   C85   S    
C100  N8    T    
C66   C72   A    
C90   I22   S    
C45   C56   A    
Cu3   O3    S    
C68   C69   A    
C47   O5    A    
C108  N16   T    
C70   C71   A    
Cu1   O20   S    
C56   I16   S    
C9    C10   A    
C61   C62   A    
C91   C92   A    
C52   O17   A    
C77   C79   A    
Cu4   O8    S    
C34   O22   A    
C30   I9    S    
C21   C22   A    
C76   C105  S    
C67   C78   A    
C55   C65   S    
C70   H2    S    
C88   C110  S    
C57   C58   A    
C76   C77   A    
C52   O16   A    
C78   C89   A    
C7    C12   S    
C51   O14   A    
C74   C75   A    
C114  N22   T    
C109  N17   T    
C11   I2    S    
C24   C25   A    
C3    C8    A    
C95   N3    T    
Cu1   O1    S    
C23   O20   A    
C1    C16   S    
C44   O2    A    
C86   C87   A    
C16   C17   T    
Cu6   O13   S    
C25   C26   A    
C53   C54   A    
C46   O4    A    
C44   O24   A    
C81   C82   A    
C60   C61   A    
C35   C36   A    
C37   C38   A    
C2    C89   A    
C75   C76   A    
Cu2   O21   S    
C111  N19   T    
C21   C94   S    
C29   C30   A    
C12   O19   A    
Cu5   O9    S    
Cu2   O19   S    
C101  N9    T    
C30   C31   A    
C77   C106  S    
C47   O6    A    
C57   I14   S    
C29   C39   S    
C62   C63   A    
C17   C18   S    
C73   C79   A    
C31   C34   S    
C62   C72   S    
Cu1   Cu2   S    
C33   C39   A    
C47   C84   S    
C96   N4    T    
Cu5   O16   S    
C48   O8    A    
C26   C93   S    
Cu3   O7    S    
C12   O18   A    
C2    I1    S    
C40   C41   T    
C88   C90   A    
C60   C65   A    
C2    C45   A    
C22   C24   A    
C80   C81   A    
C42   C43   T    
C20   I5    S    
C90   C91   A    
C3    C4    A    
C73   C74   A    
C1    O1    A    
C104  N12   T    
C58   I15   S    
Cu6   O17   S    
C54   C98   S    
C102  N10   T    
C24   I6    S    
C68   C100  S    
Cu4   O4    S    
Cu4   O6    S    
C54   C55   A    
C28   C48   S    
C71   I19   S    
C27   C32   A    
C89   C112  S    
C31   C32   A    
C38   H1    S    
C3    I23   S    
C6    C7    A    
C56   C67   A    
C46   O3    A    
C112  N20   T    
C10   C114  S    
C50   O13   A    
C64   C65   A    
C55   C57   A    
C58   C59   A    
C63   I17   S    
C71   C72   A    
C86   C92   A    
Cu2   O23   S    
C87   C109  S    
C66   I18   S    
C11   C13   A    
C19   C50   S    
Cu6   O15   S    
C38   C39   A    
C20   C26   A    
Cu2   O12   S    
C45   C95   S    
C69   C101  S    
C94   N2    T    
C86   C108  S    
C98   N6    T    
C9    C15   A    
C69   C70   A    
C25   I7    S    
C51   O15   A    
C5    C15   S    
C10   C11   A    
C35   I10   S    
C63   C64   A    
C13   I3    S    
C59   I12   S    
C4    C5    A    
C20   C21   A    
C8    C67   S    
C36   C37   A    
C82   C83   A    
Cu1   O18   S    
C27   C28   A    
C34   O23   A    
C14   C15   A    
C113  N21   T    
C79   C102  S    
C37   I11   S    
Cu5   O14   S    
C13   C14   A    
Cu1   O22   S    
C74   C103  S    
C110  N18   T    
C23   C40   S    
C49   O10   A    
C99   N7    T    
