data_mof_unit_39269.cif
_audit_creation_date              2012-12-10T19:17:26-0500
_audit_creation_method            fapswitch 2.2
_symmetry_space_group_name_H-M    P1
_symmetry_Int_Tables_number       1
_space_group_crystal_system       triclinic
_cell_length_a                    15.985743
_cell_length_b                    14.750314
_cell_length_c                    15.905002
_cell_angle_alpha                 90.288631
_cell_angle_beta                  89.653082
_cell_angle_gamma                 89.826685
_cell_volume                      3750.18179595

loop_
_atom_site_label
_atom_site_type_symbol
_atom_type_description
_atom_site_fract_x
_atom_site_fract_y
_atom_site_fract_z
_atom_type_partial_charge
C1    C     C_R   0.340928 0.500159 0.499466 0.826600
C2    C     C_3   0.614572 0.497043 0.943664 0.720981
C3    C     C_3   0.621642 0.494788 0.049367 -0.099480
C4    C     C_1   0.510907 0.499773 0.824000 -0.046279
C5    C     C_1   0.512420 0.497820 0.175507 -0.099258
C6    C     C_1   0.504794 0.498984 0.250940 -0.277884
C7    C     C_R   0.954972 0.582556 0.501967 0.337772
C8    C     C_R   0.956134 0.417871 0.515855 0.335779
C9    C     C_R   0.912369 0.499826 0.507463 -0.097773
C10   C     C_R   0.044195 0.417516 0.513460 -0.112745
C11   C     C_R   0.042923 0.583406 0.499595 -0.113808
C12   C     C_R   0.087343 0.500740 0.506052 -0.069461
C13   C     C_1   0.822846 0.499250 0.504277 0.070629
C14   C     C_R   0.499517 0.499767 0.339959 0.834071
C15   C     C_1   0.177134 0.500931 0.501851 -0.002146
C16   C     C_1   0.252062 0.500635 0.500062 -0.177546
C17   C     C_1   0.747956 0.499427 0.502007 -0.180710
C18   C     C_R   0.567337 0.952372 0.530135 -0.259342
C19   C     C_R   0.567027 0.047992 0.529760 -0.236157
C20   C     C_R   0.499401 0.902803 0.498484 -0.102389
C21   C     C_R   0.498734 0.097097 0.497880 -0.109936
C22   C     C_R   0.430926 0.951191 0.465108 0.399379
C23   C     C_R   0.430285 0.047733 0.464684 0.359382
C24   C     C_1   0.500049 0.802698 0.499659 0.185589
C25   C     C_1   0.499526 0.197279 0.499530 0.165445
C26   C     C_R   0.659081 0.499847 0.500101 0.808330
C27   C     C_R   0.499957 0.500215 0.660044 0.829742
C28   C     C_3   0.475894 0.595530 0.053571 -0.038483
C29   C     C_3   0.471944 0.402722 0.049328 -0.019055
C30   C     C_3   0.477766 0.406224 0.949362 -0.262648
C31   C     C_3   0.473556 0.587553 0.952717 -0.253335
C32   C     C_1   0.504797 0.500535 0.748909 -0.223885
C33   C     C_3   0.519866 0.497684 0.083807 0.041523
C34   C     C_3   0.516995 0.497437 0.916261 0.023481
Cu1   Cu    Cu3+1 0.500000 0.589220 0.500020 0.959363
Cu2   Cu    Cu3+1 0.500000 0.410780 0.500020 0.967316
H1    H     H_    0.526130 0.360339 0.932384 0.151655
H2    H     H_    0.523290 0.631342 0.939603 0.182728
H3    H     H_    0.620368 0.083836 0.555084 0.162497
H4    H     H_    0.620894 0.916966 0.555610 0.163151
N1    N     N_1   0.499980 0.276710 0.500030 -0.160895
N2    N     N_1   0.499980 0.723290 0.500030 -0.168071
O1    O     O_R   0.380310 0.575320 0.500040 -0.565142
O2    O     O_R   0.380310 0.424680 0.500040 -0.562354
O3    O     O_R   0.500000 0.575380 0.379460 -0.582159
O4    O     O_R   0.500000 0.424620 0.379460 -0.579441
O5    O     O_R   0.619690 0.575360 0.500000 -0.572260
O6    O     O_R   0.619690 0.424640 0.500000 -0.570850
O7    O     O_R   0.500000 0.575310 0.620580 -0.570749
O8    O     O_R   0.500000 0.424690 0.620580 -0.569559
C35   C     C_R   0.411762 0.641342 0.893447 0.096187
C36   C     C_R   0.322844 0.640941 0.898198 -0.156778
C37   C     C_R   0.273826 0.686652 0.839402 -0.158852
C38   C     C_R   0.310993 0.734841 0.774347 -0.114396
C39   C     C_R   0.397609 0.738648 0.768276 -0.104996
C40   C     C_R   0.447121 0.693461 0.826753 -0.146777
H5    H     H_    0.287877 0.610205 0.947828 0.131923
H6    H     H_    0.206300 0.685297 0.844940 0.121018
H7    H     H_    0.272585 0.770009 0.729160 0.113740
H8    H     H_    0.426730 0.776425 0.717838 0.132922
H9    H     H_    0.514313 0.697678 0.818368 0.130525
C41   C     C_R   0.406841 0.359162 0.898533 0.136398
C42   C     C_R   0.397317 0.264189 0.904595 -0.147105
C43   C     C_R   0.332671 0.219208 0.863103 -0.120173
C44   C     C_R   0.276169 0.267778 0.814339 -0.111145
C45   C     C_R   0.284638 0.361325 0.806466 -0.145020
C46   C     C_R   0.349079 0.406588 0.848029 -0.114004
H10   H     H_    0.439144 0.224394 0.942556 0.119224
H11   H     H_    0.326114 0.146531 0.869292 0.120890
H12   H     H_    0.225574 0.232962 0.783053 0.112459
H13   H     H_    0.240681 0.399160 0.768728 0.116104
H14   H     H_    0.351893 0.478787 0.841508 0.148163
O9    O     O_3   0.362743 0.903850 0.434996 -0.579508
C47   C     C_3   0.371921 0.889341 0.347318 0.056513
H15   H     H_    0.435520 0.904888 0.321674 0.102600
H16   H     H_    0.326258 0.932929 0.314017 0.167715
C48   C     C_3   0.352552 0.790934 0.326381 -0.781182
H17   H     H_    0.287331 0.774303 0.344719 0.258667
H18   H     H_    0.360329 0.779902 0.257820 0.218778
H19   H     H_    0.396140 0.745040 0.359683 0.259512
O10   O     O_3   0.359460 0.092180 0.436689 -0.576291
C49   C     C_3   0.374698 0.126952 0.355440 0.076093
H20   H     H_    0.411232 0.079067 0.314820 0.104118
H21   H     H_    0.408683 0.192246 0.359835 0.154966
C50   C     C_3   0.291742 0.145271 0.312675 -0.807252
H22   H     H_    0.258260 0.201523 0.345222 0.259899
H23   H     H_    0.303659 0.164720 0.246524 0.190832
H24   H     H_    0.252136 0.083567 0.313568 0.237234
C51   C     C_R   0.386573 0.624488 0.088970 0.095995
C52   C     C_R   0.354878 0.711272 0.065945 -0.134802
C53   C     C_R   0.279698 0.745623 0.098161 -0.165820
C54   C     C_R   0.235210 0.697172 0.158191 -0.135860
C55   C     C_R   0.267190 0.615680 0.187658 -0.137055
C56   C     C_R   0.342343 0.580930 0.155386 -0.147630
H25   H     H_    0.389185 0.753612 0.022448 0.145570
H26   H     H_    0.256748 0.810837 0.077412 0.130212
H27   H     H_    0.177191 0.723973 0.183616 0.124882
H28   H     H_    0.233721 0.579045 0.236081 0.137009
H29   H     H_    0.361184 0.517372 0.181367 0.153335
C57   C     C_R   0.374839 0.389464 0.069852 0.111004
C58   C     C_R   0.316386 0.447640 0.033162 -0.107551
C59   C     C_R   0.229929 0.438734 0.042443 -0.133295
C60   C     C_R   0.197674 0.365496 0.086006 -0.106969
C61   C     C_R   0.252009 0.299553 0.115584 -0.141246
C62   C     C_R   0.338625 0.309350 0.105235 -0.167118
H30   H     H_    0.340169 0.498037 0.993623 0.144508
H31   H     H_    0.188262 0.487542 0.013960 0.120665
H32   H     H_    0.130723 0.357351 0.092896 0.117881
H33   H     H_    0.226614 0.238672 0.143272 0.122547
H34   H     H_    0.374145 0.249685 0.120281 0.137618
C63   C     C_R   0.517691 0.315807 0.088412 0.097733
C64   C     C_R   0.506852 0.296800 0.175764 -0.154778
C65   C     C_R   0.541610 0.220547 0.213966 -0.157057
C66   C     C_R   0.588532 0.159128 0.167091 -0.112870
C67   C     C_R   0.601741 0.174471 0.082066 -0.111775
C68   C     C_R   0.567882 0.250933 0.043100 -0.141999
H35   H     H_    0.465632 0.337276 0.214471 0.151418
H36   H     H_    0.531812 0.208953 0.280332 0.117905
H37   H     H_    0.615281 0.099982 0.196805 0.111460
H38   H     H_    0.639392 0.127036 0.045854 0.116210
H39   H     H_    0.585136 0.255116 0.978007 0.128817
C69   C     C_R   0.528964 0.680321 0.088291 0.102600
C70   C     C_R   0.519093 0.706071 0.174666 -0.125029
C71   C     C_R   0.557038 0.782711 0.209050 -0.159148
C72   C     C_R   0.605946 0.838432 0.159088 -0.114183
C73   C     C_R   0.616857 0.817684 0.074528 -0.114989
C74   C     C_R   0.578998 0.741256 0.039066 -0.132616
H40   H     H_    0.479457 0.668383 0.216679 0.156592
H41   H     H_    0.548151 0.798861 0.274959 0.132032
H42   H     H_    0.635366 0.897837 0.185872 0.112471
H43   H     H_    0.654994 0.861478 0.035673 0.117548
H44   H     H_    0.592856 0.734229 0.973265 0.148620
C75   C     C_R   0.681992 0.572262 0.084238 0.146393
C76   C     C_R   0.680668 0.602043 0.169591 -0.138417
C77   C     C_R   0.738606 0.663811 0.201746 -0.104587
C78   C     C_R   0.804265 0.693962 0.152027 -0.106675
C79   C     C_R   0.814758 0.657930 0.072002 -0.184306
C80   C     C_R   0.757312 0.595301 0.040657 -0.062784
H45   H     H_    0.636859 0.578423 0.214609 0.138649
H46   H     H_    0.733092 0.687091 0.266226 0.137074
H47   H     H_    0.849274 0.741530 0.176995 0.121408
H48   H     H_    0.869396 0.675693 0.035141 0.118454
H49   H     H_    0.775846 0.562095 0.983311 0.147349
C81   C     C_R   0.677903 0.412599 0.083660 0.132099
C82   C     C_R   0.675402 0.385640 0.169639 -0.121747
C83   C     C_R   0.728460 0.319451 0.202741 -0.104201
C84   C     C_R   0.790804 0.280967 0.153276 -0.113747
C85   C     C_R   0.803986 0.313831 0.072911 -0.184182
C86   C     C_R   0.752099 0.381636 0.040935 -0.064720
H50   H     H_    0.635089 0.415679 0.214939 0.139710
H51   H     H_    0.721749 0.299123 0.267757 0.134089
H52   H     H_    0.831896 0.229747 0.178871 0.121509
H53   H     H_    0.857268 0.290096 0.036569 0.123058
H54   H     H_    0.776232 0.412376 0.984724 0.163183
O11   O     O_3   0.650296 0.581565 0.916398 -0.642758
C87   C     C_3   0.695545 0.584211 0.839894 0.054923
H55   H     H_    0.653269 0.576824 0.785615 0.155069
H56   H     H_    0.747270 0.533734 0.838687 0.169466
C88   C     C_3   0.734861 0.677539 0.830715 -0.868621
H57   H     H_    0.779593 0.690513 0.882431 0.247263
H58   H     H_    0.769037 0.681569 0.769832 0.203495
H59   H     H_    0.685469 0.730677 0.832190 0.247527
O12   O     O_3   0.660548 0.419360 0.911810 -0.648064
C89   C     C_3   0.652039 0.382598 0.829241 0.037952
H60   H     H_    0.658170 0.432350 0.778452 0.135869
H61   H     H_    0.592770 0.345307 0.820578 0.161608
C90   C     C_3   0.721742 0.313699 0.815252 -0.857464
H62   H     H_    0.718054 0.259715 0.863581 0.252779
H63   H     H_    0.715615 0.282267 0.751998 0.215940
H64   H     H_    0.783586 0.347516 0.819437 0.233820
C91   C     C_R   0.087022 0.671096 0.488042 0.173815
C92   C     C_R   0.072900 0.722968 0.415574 -0.082975
C93   C     C_R   0.111623 0.807154 0.405905 -0.205167
C94   C     C_R   0.164710 0.840164 0.468344 -0.076382
C95   C     C_R   0.179927 0.788587 0.540137 -0.103516
C96   C     C_R   0.141101 0.704429 0.550249 -0.186304
H65   H     H_    0.031674 0.698305 0.366798 0.137143
H66   H     H_    0.100333 0.846914 0.350079 0.126652
H67   H     H_    0.194093 0.905674 0.460996 0.168479
H68   H     H_    0.221354 0.814224 0.588173 0.129452
H69   H     H_    0.152354 0.665805 0.606830 0.122075
C97   C     C_R   0.089853 0.329431 0.516054 0.170287
C98   C     C_R   0.073825 0.262133 0.455369 -0.087317
C99   C     C_R   0.115622 0.178818 0.458238 -0.188113
C100  C     C_R   0.174319 0.162271 0.521063 -0.060559
C101  C     C_R   0.191091 0.228888 0.581336 -0.126318
C102  C     C_R   0.148576 0.311870 0.579459 -0.177658
H70   H     H_    0.029102 0.274291 0.405770 0.144189
H71   H     H_    0.102896 0.127251 0.411415 0.131136
H72   H     H_    0.206812 0.097841 0.522996 0.165269
H73   H     H_    0.236938 0.216046 0.629593 0.134532
H74   H     H_    0.161265 0.362288 0.627396 0.118849
O13   O     O_3   0.910235 0.662614 0.494420 -0.568097
C103  C     C_3   0.894457 0.697764 0.575761 0.080983
H75   H     H_    0.954031 0.716059 0.607507 0.139254
H76   H     H_    0.859695 0.648170 0.615330 0.124202
C104  C     C_3   0.841172 0.782919 0.568624 -0.787817
H77   H     H_    0.780755 0.766524 0.538005 0.250138
H78   H     H_    0.828320 0.811226 0.632251 0.190814
H79   H     H_    0.874622 0.834558 0.530653 0.249870
O14   O     O_3   0.912456 0.337237 0.521946 -0.568849
C105  C     C_3   0.899812 0.317547 0.607875 0.080694
H80   H     H_    0.860694 0.370858 0.638875 0.129624
H81   H     H_    0.960509 0.311690 0.641544 0.136323
C106  C     C_3   0.854500 0.227448 0.615399 -0.791878
H82   H     H_    0.891746 0.172990 0.584291 0.251853
H83   H     H_    0.845895 0.210105 0.682742 0.193802
H84   H     H_    0.792180 0.231954 0.585141 0.247647

loop_
_geom_bond_atom_site_label_1
_geom_bond_atom_site_label_2
_ccdc_geom_bond_type
C92   H65   S    
C103  H76   S    
C79   H48   S    
C11   C91   S    
C73   C74   A    
C24   N2    T    
O14   C105  S    
C69   C74   A    
Cu1   Cu2   S    
C87   C88   S    
C91   C92   A    
Cu1   O5    S    
C66   C67   A    
C105  H81   S    
C70   C71   A    
C90   H63   S    
C48   H17   S    
C36   C37   A    
C7    C11   A    
O13   C103  S    
C8    O14   S    
C57   C62   A    
C55   C56   A    
C72   C73   A    
C47   H16   S    
C41   C46   A    
C77   C78   A    
C17   C26   S    
C93   H66   S    
C89   H60   S    
C19   C21   A    
C62   H34   S    
C63   C64   A    
C18   C19   A    
C80   H49   S    
C50   H22   S    
C64   H35   S    
C94   C95   A    
C28   C69   S    
C39   C40   A    
C48   H19   S    
C103  C104  S    
C3    C33   S    
C67   C68   A    
C29   C33   S    
C101  H73   S    
C73   H43   S    
C99   C100  A    
C46   H14   S    
O9    C47   S    
C51   C56   A    
C104  H78   S    
Cu1   N2    S    
C18   H4    S    
C97   C98   A    
C61   C62   A    
C9    C13   S    
C59   C60   A    
C53   H26   S    
C74   H44   S    
C72   H42   S    
C1    O1    A    
C84   C85   A    
C8    C9    A    
C47   C48   S    
C5    C33   S    
Cu1   O7    S    
C88   H58   S    
Cu2   O4    S    
C28   C51   S    
C106  H82   S    
C7    O13   S    
Cu1   O1    S    
C82   H50   S    
C53   C54   A    
C27   O8    A    
C26   O6    A    
C2    C34   S    
C48   H18   S    
C45   C46   A    
C75   C80   A    
C42   C43   A    
C39   H8    S    
C61   H33   S    
Cu2   N1    S    
C77   H46   S    
C64   C65   A    
C54   H27   S    
C82   C83   A    
C14   O3    A    
C38   H7    S    
C106  H83   S    
C96   H69   S    
C4    C34   S    
C88   H59   S    
C105  H80   S    
C30   C34   S    
C50   H23   S    
C35   C36   A    
C29   C57   S    
C58   C59   A    
C20   C24   S    
C100  H72   S    
Cu2   O6    S    
C85   C86   A    
C14   O4    A    
C68   H39   S    
C25   N1    T    
C76   H45   S    
C81   C82   A    
C93   C94   A    
C105  C106  S    
O10   C49   S    
C83   H51   S    
C30   H1    S    
C3    C75   S    
C104  H79   S    
C87   H56   S    
C86   H54   S    
C98   C99   A    
C29   C30   S    
C6    C14   S    
C1    O2    A    
C88   H57   S    
C12   C15   S    
C11   C12   A    
C41   C42   A    
C31   C34   S    
C59   H31   S    
C1    C16   S    
C43   H11   S    
C102  H74   S    
C4    C32   T    
C83   C84   A    
C10   C12   A    
C45   H13   S    
C90   H64   S    
C26   O5    A    
C8    C10   A    
C20   C22   A    
C28   C33   S    
C67   H38   S    
C49   H21   S    
C21   C23   A    
C75   C76   A    
C10   C97   S    
Cu2   O2    S    
C85   H53   S    
Cu1   O3    S    
C90   H62   S    
Cu2   O8    S    
C92   C93   A    
C50   H24   S    
C65   C66   A    
C91   C96   A    
C106  H84   S    
C58   H30   S    
C7    C9    A    
C21   C25   S    
C38   C39   A    
C87   H55   S    
C23   O10   S    
C81   C86   A    
C27   C32   S    
C40   H9    S    
C29   C63   S    
C28   C31   S    
C3    C81   S    
C35   C40   A    
C31   C35   S    
C78   C79   A    
C52   H25   S    
C2    O12   S    
C37   H6    S    
C37   C38   A    
C76   C77   A    
C2    O11   S    
C49   C50   S    
C79   C80   A    
C42   H10   S    
C100  C101  A    
C31   H2    S    
C13   C17   T    
C63   C68   A    
C43   C44   A    
C30   C41   S    
C2    C3    S    
C51   C52   A    
C95   C96   A    
C98   H70   S    
C103  H75   S    
C52   C53   A    
C5    C6    T    
C66   H37   S    
C56   H29   S    
C15   C16   T    
C55   H28   S    
C89   H61   S    
C54   C55   A    
C78   H47   S    
C71   H41   S    
C84   H52   S    
C18   C20   A    
C97   C102  A    
C89   C90   S    
C104  H77   S    
O12   C89   S    
C36   H5    S    
C95   H68   S    
C65   H36   S    
C27   O7    A    
C47   H15   S    
C19   H3    S    
C44   C45   A    
C70   H40   S    
C60   C61   A    
C69   C70   A    
C22   C23   A    
C60   H32   S    
C57   C58   A    
C22   O9    S    
C49   H20   S    
C101  C102  A    
O11   C87   S    
C94   H67   S    
C99   H71   S    
C44   H12   S    
C71   C72   A    
