data_mof_unit_11426.cif
_audit_creation_date              2012-12-11T14:07:43-0500
_audit_creation_method            fapswitch 2.2
_symmetry_space_group_name_H-M    P1
_symmetry_Int_Tables_number       1
_space_group_crystal_system       triclinic
_cell_length_a                    19.716905
_cell_length_b                    17.004663
_cell_length_c                    15.35495
_cell_angle_alpha                 89.838827
_cell_angle_beta                  53.378132
_cell_angle_gamma                 90.258053
_cell_volume                      4131.75199038

loop_
_atom_site_label
_atom_site_type_symbol
_atom_type_description
_atom_site_fract_x
_atom_site_fract_y
_atom_site_fract_z
_atom_type_partial_charge
C1    C     C_R   0.374206 0.197280 0.996696 -0.118655
C2    C     C_R   0.709960 0.853048 0.982469 0.147300
C3    C     C_R   0.151697 0.683666 0.072505 0.175591
C4    C     C_R   0.209960 0.353048 0.982469 0.147295
C5    C     C_R   0.607790 0.814927 0.698866 0.039938
C6    C     C_R   0.693711 0.136822 0.679080 0.042849
C7    C     C_R   0.107791 0.314927 0.698866 0.039933
C8    C     C_R   0.193711 0.636823 0.679080 0.042843
C9    C     C_3   0.217177 0.132768 0.525733 -0.401503
C10   C     C_3   0.364233 0.787693 0.482611 -0.339188
C11   C     C_3   0.717173 0.632767 0.525733 -0.401507
C12   C     C_R   0.339501 0.825419 0.051310 -0.117985
C13   C     C_3   0.864231 0.287694 0.482611 -0.339220
C14   C     C_3   0.158227 0.179394 0.629662 -0.407799
C15   C     C_3   0.313747 0.734614 0.583837 -0.387697
C16   C     C_3   0.658224 0.679394 0.629662 -0.407797
C17   C     C_3   0.813746 0.234615 0.583838 -0.387689
C18   C     C_3   0.306846 0.258174 0.428754 0.425567
C19   C     C_3   0.366681 0.673854 0.372889 0.498972
C20   C     C_3   0.806846 0.758172 0.428756 0.425570
C21   C     C_3   0.866680 0.173854 0.372889 0.498957
C22   C     C_3   0.682698 0.721607 0.427622 -0.450659
C23   C     C_R   0.874206 0.697280 0.996696 -0.118632
C24   C     C_3   0.751965 0.276606 0.452992 -0.494990
C25   C     C_3   0.182697 0.221604 0.427625 -0.450753
C26   C     C_3   0.251967 0.776607 0.452991 -0.494986
C27   C     C_3   0.257304 0.187540 0.424444 0.187843
C28   C     C_3   0.346856 0.763276 0.399793 0.151354
C29   C     C_3   0.757303 0.687540 0.424444 0.187796
C30   C     C_3   0.846855 0.263276 0.399794 0.151368
C31   C     C_3   0.657962 0.766914 0.601297 0.314280
C32   C     C_3   0.753189 0.180549 0.577327 0.293861
C33   C     C_3   0.157963 0.266914 0.601298 0.314297
C34   C     C_R   0.839501 0.325419 0.051310 -0.117988
C35   C     C_3   0.253189 0.680549 0.577327 0.293872
C36   C     C_3   0.749070 0.800322 0.536973 -0.510414
C37   C     C_3   0.808717 0.124950 0.478597 -0.496416
C38   C     C_3   0.249071 0.300324 0.536972 -0.510417
C39   C     C_3   0.308715 0.624950 0.478597 -0.496441
C40   C     C_R   0.398680 0.800420 0.209259 -0.108321
C41   C     C_R   0.353884 0.175846 0.220566 -0.086379
C42   C     C_R   0.898679 0.300420 0.209260 -0.108302
C43   C     C_R   0.853883 0.675846 0.220566 -0.086375
C44   C     C_3   0.625649 0.771398 0.530657 -0.393885
C45   C     C_R   0.669086 0.917257 0.051267 -0.137600
C46   C     C_3   0.697453 0.231560 0.559416 -0.369835
C47   C     C_3   0.125648 0.271396 0.530659 -0.393881
C48   C     C_3   0.197454 0.731563 0.559416 -0.369835
C49   C     C_2   0.191381 0.740306 0.099831 -0.108768
C50   C     C_2   0.283226 0.314410 0.962305 -0.184579
C51   C     C_2   0.691381 0.240306 0.099831 -0.108765
C52   C     C_2   0.783226 0.814410 0.962305 -0.184559
C53   C     C_2   0.710615 0.312846 0.055936 -0.158004
C54   C     C_2   0.810139 0.746983 0.906845 -0.180440
C55   C     C_2   0.210615 0.812846 0.055936 -0.157991
C56   C     C_R   0.634088 0.104976 0.104712 -0.107935
C57   C     C_2   0.310139 0.246983 0.906845 -0.180440
C58   C     C_R   0.328809 0.913442 0.953453 -0.136906
C59   C     C_R   0.365372 0.111283 0.896791 -0.138499
C60   C     C_R   0.828809 0.413442 0.953453 -0.136908
C61   C     C_R   0.865372 0.611283 0.896791 -0.138506
C62   C     C_R   0.361449 0.080548 0.315794 0.028437
C63   C     C_R   0.408269 0.892403 0.303480 -0.163966
C64   C     C_R   0.861448 0.580548 0.315794 0.028438
C65   C     C_R   0.908268 0.392404 0.303481 -0.163984
C66   C     C_R   0.346643 0.187336 0.934067 0.164393
C67   C     C_R   0.169085 0.417257 0.051267 -0.137619
C68   C     C_R   0.286582 0.852274 0.027606 0.132986
C69   C     C_R   0.846643 0.687336 0.934066 0.164397
C70   C     C_R   0.786582 0.352274 0.027606 0.132978
C71   C     C_R   0.391330 0.814251 0.303104 0.114458
C72   C     C_R   0.314864 0.144141 0.323747 -0.010075
C73   C     C_R   0.891328 0.314251 0.303105 0.114456
C74   C     C_R   0.814863 0.644140 0.323747 -0.010087
C75   C     C_R   0.623993 0.199999 0.010888 -0.113852
C76   C     C_R   0.659783 0.821932 0.955209 -0.044793
C77   C     C_R   0.123993 0.699999 0.010888 -0.113858
C78   C     C_R   0.134088 0.604976 0.104712 -0.107930
C79   C     C_R   0.159783 0.321932 0.955209 -0.044781
C80   C     C_R   0.599752 0.800864 0.792979 -0.155260
C81   C     C_R   0.651149 0.170678 0.781364 -0.146926
C82   C     C_R   0.099752 0.300864 0.792979 -0.155262
C83   C     C_R   0.151149 0.670679 0.781363 -0.146927
C84   C     C_R   0.643008 0.076662 0.685819 -0.133314
C85   C     C_R   0.590970 0.893137 0.697336 -0.144585
C86   C     C_R   0.143008 0.576662 0.685819 -0.133314
C87   C     C_R   0.090970 0.393137 0.697336 -0.144586
C88   C     C_R   0.651697 0.183666 0.072505 0.175596
H1    H     H_    0.382419 0.252158 0.024663 0.084525
H2    H     H_    0.778861 0.273316 0.655875 0.140150
H3    H     H_    0.093097 0.154359 0.676615 0.168680
H4    H     H_    0.278862 0.773315 0.655875 0.140149
H5    H     H_    0.181601 0.172865 0.679643 0.150424
H6    H     H_    0.357461 0.698378 0.590214 0.199558
H7    H     H_    0.681597 0.672863 0.679643 0.150424
H8    H     H_    0.857461 0.198380 0.590214 0.199556
H9    H     H_    0.772190 0.793980 0.587414 0.196226
H10   H     H_    0.845715 0.085675 0.493686 0.226433
H11   H     H_    0.272192 0.293982 0.587410 0.196225
H12   H     H_    0.329951 0.776637 0.102437 0.088180
H13   H     H_    0.345711 0.585672 0.493686 0.226412
H14   H     H_    0.705973 0.759254 0.355435 0.158254
H15   H     H_    0.736293 0.256793 0.397743 0.174419
H16   H     H_    0.205969 0.259250 0.355437 0.158235
H17   H     H_    0.236295 0.756793 0.397742 0.174423
H18   H     H_    0.645025 0.672995 0.426966 0.198127
H19   H     H_    0.736197 0.340290 0.468887 0.191958
H20   H     H_    0.145024 0.172990 0.426973 0.198118
H21   H     H_    0.236200 0.840291 0.468885 0.191962
H22   H     H_    0.559266 0.749615 0.577663 0.175864
H23   H     H_    0.882420 0.752158 0.024663 0.084521
H24   H     H_    0.660147 0.273998 0.627233 0.171710
H25   H     H_    0.059266 0.249613 0.577666 0.175862
H26   H     H_    0.160149 0.774001 0.627233 0.171710
H27   H     H_    0.626717 0.833086 0.505754 0.152811
H28   H     H_    0.651539 0.194352 0.557880 0.169622
H29   H     H_    0.126716 0.333084 0.505754 0.152808
H30   H     H_    0.151539 0.694356 0.557882 0.169624
H31   H     H_    0.322493 0.300713 0.363737 0.047054
H32   H     H_    0.350934 0.656465 0.317082 -0.002174
H33   H     H_    0.822495 0.800711 0.363738 0.047053
H34   H     H_    0.829951 0.276637 0.102436 0.088179
H35   H     H_    0.850931 0.156465 0.317084 -0.002176
H36   H     H_    0.396400 0.743966 0.178999 0.096076
H37   H     H_    0.337724 0.229113 0.198674 0.083785
H38   H     H_    0.896398 0.243967 0.179000 0.096080
H39   H     H_    0.837724 0.729113 0.198674 0.083792
H40   H     H_    0.750450 0.864416 0.520581 0.157788
H41   H     H_    0.768718 0.086223 0.467922 0.126008
H42   H     H_    0.250449 0.364418 0.520580 0.157785
H43   H     H_    0.268715 0.586226 0.467921 0.126014
H44   H     H_    0.218110 0.716922 0.138881 0.109571
H45   H     H_    0.181181 0.084157 0.521611 0.165853
H46   H     H_    0.303009 0.333431 0.011347 0.123771
H47   H     H_    0.718110 0.216922 0.138881 0.109570
H48   H     H_    0.803009 0.833431 0.011347 0.123772
H49   H     H_    0.681864 0.337271 0.020037 0.126565
H50   H     H_    0.792755 0.729150 0.854836 0.123177
H51   H     H_    0.181864 0.837271 0.020037 0.126563
H52   H     H_    0.292755 0.229150 0.854836 0.123177
H53   H     H_    0.307376 0.947687 0.914807 0.104985
H54   H     H_    0.361701 0.085867 0.835190 0.094711
H55   H     H_    0.807376 0.447687 0.914807 0.104985
H56   H     H_    0.343542 0.849209 0.509587 0.141771
H57   H     H_    0.861701 0.585867 0.835190 0.094714
H58   H     H_    0.352846 0.044045 0.379183 0.090150
H59   H     H_    0.415923 0.922474 0.358992 0.102093
H60   H     H_    0.852845 0.544045 0.379183 0.090156
H61   H     H_    0.915923 0.422474 0.358993 0.102096
H62   H     H_    0.617169 0.256574 0.984968 0.089021
H63   H     H_    0.669943 0.770723 0.907604 0.083440
H64   H     H_    0.117169 0.756574 0.984968 0.089022
H65   H     H_    0.169943 0.270723 0.907604 0.083439
H66   H     H_    0.600988 0.744974 0.825534 0.095108
H67   H     H_    0.681175 0.584158 0.521609 0.165840
H68   H     H_    0.669133 0.221698 0.804914 0.092605
H69   H     H_    0.100988 0.244974 0.825534 0.095110
H70   H     H_    0.169132 0.721699 0.804913 0.092606
H71   H     H_    0.653126 0.041420 0.620852 0.098404
H72   H     H_    0.586203 0.922906 0.638949 0.087944
H73   H     H_    0.153125 0.541421 0.620852 0.098404
H74   H     H_    0.086204 0.422906 0.638948 0.087943
H75   H     H_    0.690189 0.950987 0.090615 0.094743
H76   H     H_    0.638069 0.077783 0.165265 0.104282
H77   H     H_    0.190189 0.450987 0.090615 0.094744
H78   H     H_    0.843539 0.349210 0.509588 0.141782
H79   H     H_    0.138069 0.577784 0.165265 0.104281
H80   H     H_    0.265399 0.105077 0.530742 0.191827
H81   H     H_    0.432753 0.785562 0.445441 0.215270
H82   H     H_    0.765392 0.605073 0.530743 0.191829
H83   H     H_    0.932752 0.285565 0.445441 0.215228
H84   H     H_    0.367747 0.179539 0.553135 0.332345
H85   H     H_    0.561459 0.635483 0.348869 0.371966
H86   H     H_    0.867736 0.679530 0.553143 0.332341
H87   H     H_    0.061527 0.135692 0.348783 0.371930
H88   H     H_    0.593093 0.654360 0.676614 0.168675
N1    N     N_R   0.408680 0.130160 0.995800 -0.049220
N2    N     N_R   0.403730 0.078230 0.935950 -0.044117
N3    N     N_R   0.903730 0.421770 0.935950 -0.044522
N4    N     N_R   0.903730 0.578230 0.935950 -0.044119
N5    N     N_R   0.426630 0.075970 0.212960 -0.035192
N6    N     N_R   0.426630 0.924030 0.212960 -0.049574
N7    N     N_R   0.926630 0.575970 0.212960 -0.035191
N8    N     N_R   0.926630 0.424030 0.212960 -0.049575
N9    N     N_R   0.591320 0.134600 0.004200 -0.050037
N10   N     N_R   0.591320 0.865400 0.004200 -0.046509
N11   N     N_R   0.091320 0.634600 0.004200 -0.050036
N12   N     N_R   0.408680 0.869840 0.995800 -0.046768
N13   N     N_R   0.091320 0.365400 0.004200 -0.046507
N14   N     N_R   0.578320 0.867660 0.846880 -0.039930
N15   N     N_R   0.578320 0.132340 0.846880 -0.041894
N16   N     N_R   0.078320 0.367660 0.846880 -0.039931
N17   N     N_R   0.078320 0.632340 0.846880 -0.041893
N18   N     N_R   0.573370 0.074390 0.787040 -0.041393
N19   N     N_R   0.573370 0.925610 0.787040 -0.034902
N20   N     N_R   0.073370 0.574390 0.787040 -0.041392
N21   N     N_R   0.073370 0.425610 0.787040 -0.034902
N22   N     N_R   0.596270 0.927870 0.064040 -0.043569
N23   N     N_R   0.908680 0.630160 0.995800 -0.049223
N24   N     N_R   0.596270 0.072130 0.064040 -0.049655
N25   N     N_R   0.096270 0.427870 0.064040 -0.043567
N26   N     N_R   0.096270 0.572130 0.064040 -0.049654
N27   N     N_R   0.908680 0.369840 0.995800 -0.046767
N28   N     N_R   0.421680 0.867580 0.153120 -0.045468
N29   N     N_R   0.421680 0.132420 0.153120 -0.034285
N30   N     N_R   0.921680 0.367580 0.153120 -0.045471
N31   N     N_R   0.921680 0.632420 0.153120 -0.034288
N32   N     N_R   0.403730 0.921770 0.935950 -0.044523
Ni1   Ni    Ni4+2 0.500000 0.131190 0.000000 0.223967
Ni2   Ni    Ni4+2 0.500000 0.868810 0.000000 0.227505
Ni3   Ni    Ni4+2 0.000000 0.631190 0.000000 0.223964
Ni4   Ni    Ni4+2 0.000000 0.368810 0.000000 0.227507
Ni5   Ni    Ni4+2 0.488650 0.000000 0.862740 0.207118
Ni6   Ni    Ni4+2 0.988650 0.500000 0.862740 0.207116
Ni7   Ni    Ni4+2 0.511350 1.000000 0.137260 0.251786
Ni8   Ni    Ni4+2 0.011350 0.500000 0.137260 0.251781
O1    O     O_2   0.472432 0.219472 0.285517 -0.275224
O2    O     O_2   0.990615 0.067644 0.259195 -0.272436
O3    O     O_2   0.033149 0.205803 0.213620 -0.314716
O4    O     O_3   0.001040 0.150075 0.392612 -0.572120
O5    O     O_2   0.436419 0.307718 0.431277 -0.272281
O6    O     O_3   0.399940 0.159822 0.477817 -0.553820
O7    O     O_2   0.490616 0.567648 0.259186 -0.272561
O8    O     O_2   0.533155 0.705808 0.213637 -0.314591
O9    O     O_3   0.501031 0.650059 0.392628 -0.572174
O10   O     O_2   0.972432 0.719466 0.285523 -0.275222
O11   O     O_2   0.936417 0.807710 0.431286 -0.272259
O12   O     O_3   0.899933 0.659815 0.477824 -0.553819
S1    S     S_3+6 0.407145 0.236707 0.403586 -0.050054
S2    S     S_3+6 0.476473 0.648999 0.304864 -0.066232
S3    S     S_3+6 0.907143 0.736701 0.403592 -0.050045
S4    S     S_3+6 0.976472 0.149000 0.304858 -0.066224

loop_
_geom_bond_atom_site_label_1
_geom_bond_atom_site_label_2
_ccdc_geom_bond_type
O11   S3    D    
C21   H35   S    
N32   Ni5   S    
C40   C71   A    
C46   H24   S    
C8    C83   A    
N7    N31   A    
H87   O4    S    
C23   C69   A    
C13   H83   S    
C6    C32   S    
O3    S4    D    
N18   Ni5   S    
C55   C68   S    
C3    C49   S    
N8    N30   A    
C75   N9    A    
C16   C31   S    
C12   C68   A    
N11   N26   A    
C78   H79   S    
C81   H68   S    
C65   H61   S    
N6    N28   A    
C38   H42   S    
C22   C29   S    
C10   C15   S    
C59   C66   A    
C47   H25   S    
N17   Ni3   S    
C83   H70   S    
C53   C70   S    
C75   H62   S    
C61   C69   A    
O10   S3    D    
C12   N12   A    
C23   N23   A    
N24   Ni7   S    
C55   H51   S    
C77   H64   S    
N16   N21   A    
N1    Ni1   S    
C46   H28   S    
N21   Ni6   S    
H86   O12   S    
C81   N15   A    
C61   H57   S    
C86   N20   A    
C15   H4    S    
C64   N7    A    
C51   H47   S    
N5    N29   A    
N16   Ni4   S    
C40   N28   A    
C44   H27   S    
C35   C48   S    
C42   C73   A    
C56   C88   A    
C25   H20   S    
C1    H1    S    
C63   H59   S    
C36   H9    S    
C85   H72   S    
C58   N32   A    
C57   C66   S    
C14   H5    S    
C8    C86   A    
O7    S2    D    
C11   H67   S    
N9    Ni1   S    
O1    S1    D    
C67   H77   S    
C43   C74   A    
C34   H34   S    
C63   N6    A    
C64   H60   S    
N26   Ni8   S    
N31   Ni3   S    
C7    C33   S    
N29   Ni1   S    
C36   H40   S    
N12   Ni2   S    
C15   H6    S    
N22   Ni7   S    
C26   H17   S    
C15   C35   S    
C37   H10   S    
C84   H71   S    
C52   C54   D    
C39   H13   S    
C17   H8    S    
C20   C29   S    
C59   N2    A    
C2    C45   A    
C40   H36   S    
C49   H44   S    
C7    C87   A    
C6    C84   A    
C31   C44   S    
O4    S4    S    
C43   N31   A    
C41   N29   A    
C41   H37   S    
C13   C30   S    
H84   O6    S    
C59   H54   S    
C4    C79   A    
C50   H46   S    
C65   C73   A    
C84   N18   A    
C86   H73   S    
C82   H69   S    
C85   N19   A    
C76   N10   A    
C48   H30   S    
C29   C74   S    
C76   H63   S    
N13   N25   A    
C45   N22   A    
C22   H18   S    
C21   S4    S    
C18   S1    S    
C11   H82   S    
C57   H52   S    
C4    C50   S    
C10   H81   S    
C8    C35   S    
C83   N17   A    
C35   C39   S    
C9    C14   S    
N25   Ni8   S    
C14   C33   S    
C67   N25   A    
O8    S2    D    
C79   H65   S    
N20   Ni6   S    
C11   C16   S    
C60   C70   A    
C34   N27   A    
N17   N20   A    
C7    C82   A    
C1    C66   A    
C62   C72   A    
N5    Ni7   S    
C24   H19   S    
C10   H56   S    
C32   C37   S    
C5    C80   A    
C19   C28   S    
C26   H21   S    
O2    S4    D    
C20   H33   S    
C63   C71   A    
C2    C52   S    
N14   N19   A    
N15   Ni1   S    
C41   C72   A    
C58   C68   A    
N11   Ni3   S    
C19   H32   S    
N10   Ni2   S    
C79   N13   A    
N6    Ni7   S    
C77   N11   A    
C53   H49   S    
N27   Ni4   S    
C28   C71   S    
C87   N21   A    
C43   H39   S    
O6    S1    S    
C60   N3    A    
C2    C76   A    
C9    C27   S    
C48   H26   S    
C80   N14   A    
C10   C28   S    
N7    Ni8   S    
C30   C73   S    
C34   C70   A    
C25   C47   S    
N12   N32   A    
C16   H7    S    
C22   C44   S    
N2    Ni5   S    
C82   N16   A    
C45   H75   S    
C50   C57   D    
C32   C46   S    
C9    H80   S    
C9    H45   S    
C17   H2    S    
C78   N26   A    
N3    N27   A    
C38   H11   S    
N13   Ni4   S    
C51   C88   S    
C5    C31   S    
C4    C67   A    
C25   H16   S    
C80   H66   S    
C26   C48   S    
C25   C27   S    
C23   H23   S    
C21   C30   S    
C56   H76   S    
C26   C28   S    
O9    S2    S    
C22   H14   S    
C13   C17   S    
C18   C27   S    
C24   H15   S    
C24   C46   S    
N4    Ni6   S    
C18   C38   S    
N15   N18   A    
C5    C85   A    
C60   H55   S    
N4    N23   A    
C49   C55   D    
C62   N5    A    
C20   S3    S    
C58   H53   S    
C16   H88   S    
C13   H78   S    
C54   H50   S    
C54   C69   S    
C39   H43   S    
C52   H48   S    
N3    Ni6   S    
C33   C47   S    
C37   H41   S    
C42   N30   A    
N23   Ni3   S    
N9    N24   A    
N14   Ni2   S    
C19   S2    S    
C24   C30   S    
C14   H3    S    
C12   H12   S    
N28   Ni2   S    
N8    Ni8   S    
C42   H38   S    
C20   C36   S    
N30   Ni4   S    
C75   C88   A    
C47   H29   S    
C87   H74   S    
C21   C37   S    
C11   C29   S    
C61   N4    A    
C19   C39   S    
N1    N2    A    
C62   H58   S    
O5    S1    D    
C6    C81   A    
C17   C32   S    
C64   C74   A    
C31   C36   S    
N10   N22   A    
C33   C38   S    
H85   O9    S    
C51   C53   D    
C3    C78   A    
C1    N1    A    
C18   H31   S    
O12   S3    S    
C27   C72   S    
N19   Ni5   S    
C44   H22   S    
C56   N24   A    
C65   N8    A    
C3    C77   A    
