data_mof_unit_10816.cif
_audit_creation_date              2012-12-10T18:57:04-0500
_audit_creation_method            fapswitch 2.2
_symmetry_space_group_name_H-M    P1
_symmetry_Int_Tables_number       1
_space_group_crystal_system       triclinic
_cell_length_a                    10.620403
_cell_length_b                    9.870746
_cell_length_c                    10.674961
_cell_angle_alpha                 90.072634
_cell_angle_beta                  90.32241
_cell_angle_gamma                 89.792885
_cell_volume                      1119.0441444

loop_
_atom_site_label
_atom_site_type_symbol
_atom_type_description
_atom_site_fract_x
_atom_site_fract_y
_atom_site_fract_z
_atom_type_partial_charge
C1    C     C_R   0.260486 0.500219 0.496609 0.847655
C2    C     C_R   0.464419 0.621832 0.936003 0.155084
C3    C     C_R   0.475014 0.499706 0.128453 -0.103199
C4    C     C_R   0.474878 0.499825 0.871189 -0.111735
C5    C     C_R   0.460998 0.376623 0.064182 -0.176867
C6    C     C_R   0.460511 0.376699 0.934859 -0.203469
C7    C     C_3   0.542496 0.747340 0.929472 -0.477868
C8    C     C_3   0.542099 0.747528 0.071535 -0.456050
C9    C     C_R   0.065369 0.441096 0.588896 -0.157030
C10   C     C_R   0.936907 0.438695 0.587984 -0.159799
C11   C     C_R   0.872086 0.498726 0.489160 -0.122379
C12   C     C_R   0.739630 0.499693 0.497510 0.851431
C13   C     C_R   0.128122 0.500902 0.489584 -0.106892
C14   C     C_R   0.933165 0.558995 0.386460 -0.038064
C15   C     C_R   0.065213 0.556111 0.384641 -0.035600
C16   C     C_2   0.857856 0.624124 0.284778 0.510495
C17   C     C_2   0.138036 0.599499 0.272519 0.457763
C18   C     C_1   0.658296 0.140370 0.666377 0.219760
C19   C     C_1   0.335677 0.141522 0.339540 0.212242
C20   C     C_R   0.577198 0.071001 0.579484 0.033442
C21   C     C_R   0.421789 0.071471 0.421444 0.032642
C22   C     C_R   0.577034 0.927379 0.579142 -0.097171
C23   C     C_R   0.422415 0.927800 0.421336 -0.101108
C24   C     C_R   0.495833 0.499952 0.259923 0.848079
C25   C     C_R   0.495947 0.500058 0.740016 0.889799
C26   C     C_R   0.464250 0.621797 0.063892 0.136411
H1    H     H_    0.460301 0.280258 0.112477 0.177587
H2    H     H_    0.360391 0.872546 0.358852 0.129829
H3    H     H_    0.767277 0.582470 0.257952 0.016231
H4    H     H_    0.229809 0.645832 0.283008 0.054301
H5    H     H_    0.458807 0.280410 0.886056 0.176167
H6    H     H_    0.637297 0.728811 0.888970 0.212232
H7    H     H_    0.488842 0.834069 0.112183 0.205410
H8    H     H_    0.489664 0.833916 0.887968 0.209420
H9    H     H_    0.636734 0.729615 0.113386 0.229258
H10   H     H_    0.116230 0.397351 0.667534 0.152470
H11   H     H_    0.887755 0.393990 0.666315 0.164557
H12   H     H_    0.638170 0.871798 0.642474 0.137926
N1    N     N_R   0.500000 0.857200 0.500000 -0.085833
N2    N     N_R   0.500000 0.142810 0.500000 -0.121412
N3    N     N_1   0.723565 0.195260 0.737045 -0.216809
N4    N     N_1   0.265728 0.197218 0.273733 -0.190147
O1    O     O_R   0.316770 0.614620 0.499990 -0.629003
O2    O     O_2   0.098699 0.578036 0.166667 -0.533918
O3    O     O_R   0.683230 0.614620 0.500010 -0.617667
O4    O     O_R   0.316800 0.385290 0.500000 -0.606477
O5    O     O_R   0.683200 0.385290 0.500000 -0.603191
O6    O     O_R   0.500000 0.614690 0.316780 -0.631376
O7    O     O_R   0.500000 0.614690 0.683220 -0.615859
O8    O     O_R   0.500020 0.385360 0.316780 -0.620043
O9    O     O_R   0.499980 0.385360 0.683220 -0.622925
O10   O     O_2   0.893636 0.727728 0.233985 -0.541951
Zn1   Zn    Zn3+2 0.500000 0.653120 0.500000 0.952401
Zn2   Zn    Zn3+2 0.500000 0.346880 0.500000 0.971251

loop_
_geom_bond_atom_site_label_1
_geom_bond_atom_site_label_2
_ccdc_geom_bond_type
C9    H10   S    
C2    C4    A    
C11   C12   S    
C25   O9    A    
C15   C17   S    
C8    C26   S    
C9    C10   A    
C8    H9    S    
N2    Zn2   S    
C2    C7    S    
C19   N4    T    
O9    Zn2   S    
O4    Zn2   S    
C13   C15   A    
C4    C25   S    
C17   O2    D    
O3    Zn1   S    
C7    C8    S    
C2    C26   A    
O8    Zn2   S    
C23   H2    S    
C17   H4    S    
C3    C24   S    
N1    Zn1   S    
C21   N2    A    
C10   H11   S    
C23   N1    A    
C22   N1    A    
C19   C21   S    
C20   C22   A    
C6    H5    S    
C18   C20   S    
C8    H7    S    
C12   O5    A    
C21   C23   A    
C24   O8    A    
O6    Zn1   S    
C20   N2    A    
C7    H8    S    
C14   C16   S    
C1    O4    A    
O7    Zn1   S    
C1    C13   S    
C10   C11   A    
C22   H12   S    
C4    C6    A    
C18   N3    T    
C11   C14   A    
C5    C6    A    
C9    C13   A    
C14   C15   A    
C7    H6    S    
O5    Zn2   S    
C16   H3    S    
C5    H1    S    
O1    Zn1   S    
C1    O1    A    
C3    C26   A    
C16   O10   D    
C12   O3    A    
C3    C5    A    
C25   O7    A    
C24   O6    A    
