data_mof_unit_58125.cif
_audit_creation_date              2012-10-26T20:43:34-0400
_audit_creation_method            fapswitch 2.2
_symmetry_space_group_name_H-M    P1
_symmetry_Int_Tables_number       1
_space_group_crystal_system       triclinic
_cell_length_a                    10.880123
_cell_length_b                    9.614187
_cell_length_c                    23.54259
_cell_angle_alpha                 89.891397
_cell_angle_beta                  91.141627
_cell_angle_gamma                 89.458259
_cell_volume                      2462.03394913

loop_
_atom_site_label
_atom_site_type_symbol
_atom_type_description
_atom_site_fract_x
_atom_site_fract_y
_atom_site_fract_z
_atom_type_partial_charge
Br1   Br    Br    0.689286 0.269958 0.340407 -0.449220
Br2   Br    Br    0.318241 0.273738 0.664557 -0.461686
Br3   Br    Br    0.133167 0.215591 0.543284 -0.412164
Br4   Br    Br    0.847625 0.780779 0.439114 -0.395751
Br5   Br    Br    0.868407 0.190585 0.476690 -0.384886
Br6   Br    Br    0.144948 0.774606 0.437565 -0.416591
C1    C     C_R   0.261858 0.500415 0.498828 0.572603
C2    C     C_R   0.572229 0.591299 0.702505 -0.163339
C3    C     C_R   0.437356 0.587610 0.236889 0.302164
C4    C     C_R   0.575018 0.589661 0.762117 0.301073
C5    C     C_R   0.502194 0.479302 0.209447 0.189724
C6    C     C_R   0.512712 0.482923 0.791070 0.190869
C7    C     C_R   0.061705 0.377297 0.505599 0.132551
C8    C     C_R   0.933395 0.618013 0.469359 0.161360
C9    C     C_R   0.936771 0.371722 0.493193 0.136481
C10   C     C_R   0.062273 0.617234 0.470718 0.149884
C11   C     C_R   0.869932 0.496535 0.484949 -0.029223
C12   C     C_R   0.736647 0.499202 0.494057 0.565008
C13   C     C_R   0.127050 0.500143 0.493418 -0.045550
C14   C     C_R   0.450347 0.076015 0.455391 0.352475
C15   C     C_R   0.532508 0.927336 0.547749 0.327000
C16   C     C_R   0.549308 0.074381 0.544814 0.365632
C17   C     C_R   0.466472 0.928618 0.452324 0.351164
C18   C     C_R   0.502045 0.499518 0.391190 0.562618
C19   C     C_R   0.499526 0.499473 0.608912 0.561322
C20   C     C_R   0.620666 0.462172 0.882313 0.422266
C21   C     C_R   0.395772 0.458008 0.118132 0.426082
C22   C     C_R   0.401833 0.485141 0.879160 0.384237
C23   C     C_R   0.570476 0.382995 0.242089 -0.080936
C24   C     C_R   0.614499 0.477230 0.121598 0.384803
C25   C     C_R   0.397039 0.478369 0.938839 0.031718
C26   C     C_R   0.619451 0.473344 0.061842 0.031188
C27   C     C_R   0.508674 0.469498 0.970285 -0.092469
C28   C     C_R   0.507906 0.467778 0.030300 -0.092824
C29   C     C_R   0.621280 0.464554 0.941890 -0.031152
C30   C     C_R   0.395310 0.462735 0.058619 -0.030160
C31   C     C_R   0.284622 0.483391 0.968078 0.262861
C32   C     C_R   0.731818 0.478923 0.032624 0.263478
C33   C     C_R   0.284732 0.467390 0.027101 -0.112994
C34   C     C_R   0.443954 0.386146 0.759867 -0.081995
C35   C     C_R   0.731856 0.466356 0.973449 -0.113434
C36   C     C_3   0.142749 0.645766 0.941181 0.008460
C37   C     C_3   0.037001 0.675746 0.899572 -0.314343
C38   C     C_3   0.871002 0.639532 0.061036 0.006855
C39   C     C_3   0.974946 0.667209 0.103574 -0.309956
C40   C     C_3   0.443468 0.777574 0.177879 -0.007388
C41   C     C_3   0.369457 0.906878 0.161143 -0.364008
C42   C     C_3   0.571460 0.779624 0.821347 -0.005399
C43   C     C_3   0.642070 0.912823 0.832974 -0.367234
C44   C     C_3   0.274174 0.111124 0.401394 0.010672
C45   C     C_R   0.576372 0.392979 0.301012 0.125673
C46   C     C_3   0.207237 0.226863 0.368869 -0.333831
C47   C     C_3   0.438951 0.895071 0.632911 0.020155
C48   C     C_3   0.479066 0.955148 0.689984 -0.379878
C49   C     C_3   0.718406 0.093373 0.605782 0.006725
C50   C     C_3   0.794406 0.210175 0.631639 -0.330992
C51   C     C_3   0.549697 0.897329 0.364556 0.030926
C52   C     C_3   0.502186 0.963581 0.309463 -0.380449
C53   C     C_R   0.433822 0.394924 0.701032 0.126018
C54   C     C_R   0.506438 0.495657 0.328821 -0.034586
C55   C     C_R   0.500401 0.496175 0.671517 -0.035832
C56   C     C_R   0.436223 0.590973 0.296377 -0.160384
Cu1   Cu    Cu3+1 0.500000 0.640660 0.500000 1.097730
Cu2   Cu    Cu3+1 0.500000 0.359340 0.500000 1.152122
H1    H     H_    0.197389 0.464378 0.048129 0.171298
H2    H     H_    0.010891 0.787545 0.901565 0.089540
H3    H     H_    0.064968 0.650562 0.855636 0.212950
H4    H     H_    0.790914 0.705494 0.073431 0.129854
H5    H     H_    0.900688 0.671541 0.018048 0.105761
H6    H     H_    0.057099 0.604280 0.093053 0.172596
H7    H     H_    0.999525 0.779011 0.102467 0.092106
H8    H     H_    0.945865 0.640034 0.147126 0.216578
H9    H     H_    0.477476 0.730248 0.138192 0.146204
H10   H     H_    0.524069 0.809919 0.204408 0.118628
H11   H     H_    0.332108 0.958009 0.199434 0.165453
H12   H     H_    0.819223 0.463754 0.952376 0.171907
H13   H     H_    0.429208 0.981541 0.138885 0.107909
H14   H     H_    0.291884 0.877981 0.132260 0.166319
H15   H     H_    0.548188 0.734457 0.863088 0.148365
H16   H     H_    0.484306 0.806970 0.798092 0.117579
H17   H     H_    0.669373 0.961863 0.792471 0.159328
H18   H     H_    0.583487 0.987237 0.856562 0.108571
H19   H     H_    0.726088 0.889234 0.858943 0.168052
H20   H     H_    0.225597 0.093494 0.441869 0.207218
H21   H     H_    0.268939 0.015428 0.375201 0.199780
H22   H     H_    0.250787 0.243235 0.327130 0.156092
H23   H     H_    0.621993 0.301478 0.221244 0.174073
H24   H     H_    0.109444 0.198506 0.361713 0.172092
H25   H     H_    0.211177 0.325241 0.393376 0.172092
H26   H     H_    0.388863 0.797267 0.641101 0.167106
H27   H     H_    0.370752 0.968238 0.612524 0.172811
H28   H     H_    0.513108 0.062540 0.684942 0.206155
H29   H     H_    0.400165 0.957515 0.719166 0.130752
H30   H     H_    0.554204 0.890836 0.708785 0.155575
H31   H     H_    0.768853 0.048584 0.569352 0.191347
H32   H     H_    0.710217 0.011288 0.638615 0.164871
H33   H     H_    0.748922 0.251237 0.670062 0.153068
H34   H     H_    0.394330 0.305889 0.781909 0.172414
H35   H     H_    0.887438 0.170485 0.643819 0.160602
H36   H     H_    0.803747 0.296083 0.600530 0.189761
H37   H     H_    0.597977 0.799124 0.353578 0.180047
H38   H     H_    0.621068 0.966578 0.383855 0.190513
H39   H     H_    0.469337 0.071279 0.316626 0.207565
H40   H     H_    0.577617 0.967886 0.278479 0.126139
H41   H     H_    0.425128 0.902247 0.291493 0.161997
H42   H     H_    0.379823 0.667925 0.317316 0.185142
H43   H     H_    0.626406 0.667235 0.680329 0.173496
H44   H     H_    0.221364 0.712376 0.928768 0.130908
H45   H     H_    0.113877 0.675317 0.984620 0.105140
H46   H     H_    0.956125 0.612534 0.910314 0.170298
N1    N     N_R   0.512233 0.475813 0.852194 -0.406459
N2    N     N_R   0.503940 0.469559 0.148407 -0.405971
N3    N     N_R   0.500000 0.852070 0.500000 -0.248247
N4    N     N_R   0.500000 0.147930 0.500000 -0.234202
O1    O     O_R   0.319640 0.618740 0.500000 -0.462515
O2    O     O_2   0.288911 0.443594 0.145586 -0.461446
O3    O     O_2   0.297277 0.502051 0.848045 -0.456897
O4    O     O_2   0.718939 0.490297 0.152889 -0.454484
O5    O     O_3   0.173585 0.502600 0.939412 -0.499214
O6    O     O_3   0.842590 0.496246 0.061429 -0.499324
O7    O     O_3   0.366596 0.684385 0.206849 -0.519400
O8    O     O_3   0.646672 0.686748 0.790559 -0.523020
O9    O     O_3   0.398004 0.149549 0.410426 -0.533562
O10   O     O_3   0.543954 0.863531 0.600023 -0.557178
O11   O     O_3   0.600758 0.146578 0.590134 -0.520322
O12   O     O_R   0.680360 0.381260 0.500000 -0.456013
O13   O     O_3   0.449906 0.865023 0.400331 -0.535645
O14   O     O_R   0.680360 0.618740 0.500000 -0.468663
O15   O     O_R   0.319640 0.381260 0.500000 -0.457055
O16   O     O_R   0.499960 0.618810 0.417880 -0.466245
O17   O     O_R   0.500040 0.381190 0.582120 -0.412865
O18   O     O_R   0.500040 0.618810 0.582120 -0.479446
O19   O     O_R   0.499960 0.381190 0.417880 -0.421240
O20   O     O_2   0.727501 0.447637 0.854693 -0.461887

loop_
_geom_bond_atom_site_label_1
_geom_bond_atom_site_label_2
_ccdc_geom_bond_type
C18   O19   A    
C14   N4    A    
C49   C50   S    
C39   H7    S    
C44   H20   S    
C47   C48   S    
C51   H38   S    
C42   H15   S    
C36   H45   S    
C22   O3    S    
C10   C13   A    
C34   H34   S    
C36   O5    S    
C38   O6    S    
C43   H17   S    
C54   C56   A    
Cu1   O16   S    
C1    O1    A    
C48   H29   S    
C44   H21   S    
C12   O14   A    
Cu2   O19   S    
C49   O11   S    
C14   O9    S    
C47   H27   S    
C44   C46   S    
C14   C17   A    
C40   O7    S    
C37   H46   S    
C26   C32   A    
Cu1   O14   S    
Br3   C7    S    
C2    C55   A    
C32   O6    S    
C21   O2    S    
C39   H6    S    
C34   C53   A    
C15   C16   A    
C39   H8    S    
C33   H1    S    
C8    C11   A    
C46   H25   S    
C50   H33   S    
C11   C12   S    
C30   C33   A    
C22   N1    A    
C42   O8    S    
C53   C55   A    
C23   H23   S    
C7    C13   A    
C3    C56   A    
C46   H24   S    
Cu2   N4    S    
C32   C35   A    
C49   H31   S    
Br2   C53   S    
C16   O11   S    
C24   O4    S    
Br6   C10   S    
C25   C31   A    
C24   N2    A    
C26   C28   A    
C43   H18   S    
C6    C34   A    
C45   C54   A    
C37   H3    S    
C48   H28   S    
C20   O20   S    
C48   H30   S    
C17   N3    A    
Br1   C45   S    
C3    O7    S    
C31   O5    S    
Cu2   O17   S    
C18   C54   S    
Br5   C9    S    
C25   C27   A    
C27   C28   A    
C38   H5    S    
C19   C55   S    
Cu1   O18   S    
C3    C5    A    
C4    C6    A    
C15   N3    A    
C42   C43   S    
C21   N2    A    
Cu2   O12   S    
C7    C9    A    
C8    C10   A    
C38   H4    S    
C52   H40   S    
C36   C37   S    
C50   H36   S    
C19   O17   A    
C2    H43   S    
C40   H10   S    
C38   C39   S    
C17   O13   S    
C23   C45   A    
C9    C11   A    
C40   C41   S    
C5    N2    S    
C22   C25   A    
C44   O9    S    
C49   H32   S    
C4    O8    S    
C47   O10   S    
C51   O13   S    
C56   H42   S    
C21   C30   A    
C51   H37   S    
C1    C13   S    
C41   H14   S    
C52   H41   S    
C42   H16   S    
C15   O10   S    
C46   H22   S    
Cu1   O1    S    
C31   C33   A    
C12   O12   A    
C35   H12   S    
C24   C26   A    
C43   H19   S    
C51   C52   S    
C37   H2    S    
C27   C29   A    
C28   C30   A    
C40   H9    S    
Br4   C8    S    
C29   C35   A    
C1    O15   A    
C41   H11   S    
Cu1   Cu2   S    
Cu1   N3    S    
C18   O16   A    
C20   C29   A    
C16   N4    A    
Cu2   O15   S    
C5    C23   A    
C2    C4    A    
C47   H26   S    
C41   H13   S    
C52   H39   S    
C50   H35   S    
C19   O18   A    
C36   H44   S    
C20   N1    A    
C6    N1    S    
