data_mof_unit_18726.cif
_audit_creation_date              2012-12-10T17:31:51-0500
_audit_creation_method            fapswitch 2.2
_symmetry_space_group_name_H-M    P1
_symmetry_Int_Tables_number       1
_space_group_crystal_system       triclinic
_cell_length_a                    12.248705
_cell_length_b                    11.530144
_cell_length_c                    13.077168
_cell_angle_alpha                 94.562507
_cell_angle_beta                  91.81294
_cell_angle_gamma                 86.653668
_cell_volume                      1837.21188689

loop_
_atom_site_label
_atom_site_type_symbol
_atom_type_description
_atom_site_fract_x
_atom_site_fract_y
_atom_site_fract_z
_atom_type_partial_charge
C1    C     C_R   0.479971 0.506799 0.300747 0.884615
C2    C     C_R   0.975592 0.540439 0.537608 -0.097587
C3    C     C_R   0.499814 0.282418 0.499540 0.887606
C4    C     C_R   0.500186 0.717582 0.500460 0.887609
C5    C     C_1   0.499617 0.161778 0.499675 -0.194908
C6    C     C_1   0.500383 0.838222 0.500325 -0.194907
C7    C     C_1   0.499809 0.059441 0.499868 -0.008511
C8    C     C_1   0.500191 0.940559 0.500132 -0.008511
C9    C     C_R   0.529138 0.480776 0.809421 -0.122468
C10   C     C_R   0.470861 0.519220 0.190578 -0.122470
C11   C     C_R   0.362994 0.561895 0.039640 -0.216973
C12   C     C_R   0.520028 0.493200 0.699253 0.884612
C13   C     C_R   0.637003 0.438095 0.960359 -0.216964
C14   C     C_R   0.372558 0.564649 0.145424 0.143147
C15   C     C_R   0.627440 0.435345 0.854575 0.143146
C16   C     C_R   0.562498 0.485981 0.129050 0.118672
C17   C     C_R   0.437499 0.514010 0.870949 0.118674
C18   C     C_R   0.550350 0.481363 0.022456 0.039319
C19   C     C_R   0.449647 0.518627 0.977543 0.039311
C20   C     C_3   0.261448 0.442268 0.816030 -0.721511
C21   C     C_3   0.738555 0.557715 0.183964 -0.721522
C22   C     C_3   0.721535 0.377851 0.793386 -0.850102
C23   C     C_R   0.046633 0.610823 0.602373 0.153671
C24   C     C_3   0.278464 0.622146 0.206613 -0.850100
C25   C     C_3   0.802506 0.639269 0.618791 -0.768182
C26   C     C_3   0.197494 0.360731 0.381208 -0.768186
C27   C     C_3   0.771900 0.297004 0.366668 -0.817835
C28   C     C_3   0.228101 0.702995 0.633333 -0.817837
C29   C     C_3   0.018368 0.649765 0.785943 -0.834046
C30   C     C_3   0.981630 0.350239 0.214056 -0.834054
C31   C     C_R   0.953367 0.389177 0.397627 0.153672
C32   C     C_R   0.160553 0.605863 0.585712 0.242355
C33   C     C_R   0.839447 0.394137 0.414289 0.242347
C34   C     C_R   0.142692 0.449415 0.456872 0.239039
C35   C     C_R   0.857308 0.550586 0.543128 0.239039
C36   C     C_R   0.024408 0.459561 0.462392 -0.097587
H1    H     H_    0.286250 0.594345 0.006913 0.152942
H2    H     H_    0.694292 0.637782 0.217987 0.248727
H3    H     H_    0.781346 0.329383 0.842111 0.214635
H4    H     H_    0.690579 0.313598 0.733175 0.248984
H5    H     H_    0.766850 0.444297 0.758361 0.255010
H6    H     H_    0.218654 0.670613 0.157886 0.214635
H7    H     H_    0.233149 0.555702 0.241640 0.255011
H8    H     H_    0.309421 0.686400 0.266822 0.248983
H9    H     H_    0.714796 0.639856 0.618505 0.277070
H10   H     H_    0.824515 0.619177 0.698240 0.230569
H11   H     H_    0.822341 0.728737 0.602980 0.217770
H12   H     H_    0.713745 0.405641 0.993086 0.152939
H13   H     H_    0.285204 0.360144 0.381495 0.277070
H14   H     H_    0.177658 0.271263 0.397019 0.217769
H15   H     H_    0.175484 0.380824 0.301760 0.230571
H16   H     H_    0.692436 0.329580 0.336964 0.282564
H17   H     H_    0.808447 0.246028 0.300123 0.197237
H18   H     H_    0.761035 0.234102 0.424917 0.234607
H19   H     H_    0.191553 0.753971 0.699878 0.197237
H20   H     H_    0.307564 0.670419 0.663037 0.282564
H21   H     H_    0.238966 0.765898 0.575084 0.234606
H22   H     H_    0.014915 0.776086 0.677679 0.228222
H23   H     H_    0.295044 0.619083 0.846349 0.202659
H24   H     H_    0.964859 0.705514 0.838952 0.242075
H25   H     H_    0.104029 0.656327 0.814263 0.242593
H26   H     H_    0.994919 0.558177 0.786970 0.247656
H27   H     H_    0.985087 0.223915 0.322318 0.228222
H28   H     H_    0.035142 0.294497 0.161047 0.242076
H29   H     H_    0.005071 0.441830 0.213031 0.247660
H30   H     H_    0.895971 0.343671 0.185734 0.242599
H31   H     H_    0.231350 0.425654 0.892422 0.218166
H32   H     H_    0.305708 0.362214 0.781975 0.248735
H33   H     H_    0.190446 0.462610 0.764600 0.239375
H34   H     H_    0.704948 0.380902 0.153653 0.202660
H35   H     H_    0.768681 0.574298 0.107576 0.218162
H36   H     H_    0.809538 0.537385 0.235419 0.239390
N1    N     N_R   0.792200 0.479100 0.480660 -0.119000
N2    N     N_R   0.207800 0.520900 0.519340 -0.118999
N3    N     N_2   0.332452 0.538895 0.824980 -0.287667
N4    N     N_2   0.667544 0.461093 0.175019 -0.287670
N5    N     N_2   0.004350 0.688816 0.683458 -0.305549
N6    N     N_2   0.995649 0.311186 0.316541 -0.305549
O1    O     O_R   0.578300 0.494420 0.341180 -0.592453
O2    O     O_R   0.421700 0.505580 0.658820 -0.592457
O3    O     O_R   0.390690 0.507830 0.353590 -0.633610
O4    O     O_R   0.609310 0.492170 0.646410 -0.633610
O5    O     O_R   0.593810 0.327740 0.493800 -0.620640
O6    O     O_R   0.406190 0.672260 0.506200 -0.620640
O7    O     O_R   0.406190 0.341150 0.506220 -0.623538
O8    O     O_R   0.593810 0.658850 0.493780 -0.623536
Zn1   Zn    Zn3+2 0.625270 0.491050 0.491710 0.925299
Zn2   Zn    Zn3+2 0.374730 0.508950 0.508290 0.925297

loop_
_geom_bond_atom_site_label_1
_geom_bond_atom_site_label_2
_ccdc_geom_bond_type
C2    C35   A    
O5    Zn1   S    
C30   H28   S    
C3    O7    A    
C24   H6    S    
C20   H31   S    
O1    Zn1   S    
C28   H20   S    
C27   H18   S    
C7    C8    S    
C28   H21   S    
C27   C33   S    
C21   N4    S    
C11   C19   A    
C13   C18   A    
C21   H35   S    
C26   H14   S    
C32   N2    A    
C11   C14   A    
C22   H5    S    
C4    O8    A    
C1    O3    A    
O4    Zn1   S    
C2    C36   A    
C18   C19   A    
C14   C24   S    
C11   H1    S    
N1    Zn1   S    
H22   N5    S    
C26   C34   S    
C15   C22   S    
C21   H2    S    
C31   C33   A    
C25   H11   S    
H23   N3    S    
C28   H19   S    
C29   H25   S    
C21   H36   S    
C30   H29   S    
C28   C32   S    
C4    C6    S    
C10   C14   A    
C26   H13   S    
C5    C7    T    
O8    Zn1   S    
C6    C8    T    
C20   N3    S    
C4    O6    A    
C29   H24   S    
C22   H4    S    
C12   O4    A    
C23   N5    S    
C30   H30   S    
C34   N2    A    
C9    C17   A    
C25   C35   S    
C13   C15   A    
H34   N4    S    
C1    O1    A    
C20   H33   S    
C25   H9    S    
C27   H16   S    
C31   N6    S    
O7    Zn2   S    
C33   N1    A    
C29   H26   S    
C35   N1    A    
C16   N4    S    
C20   H32   S    
C1    C10   S    
O6    Zn2   S    
C3    C5    S    
C13   H12   S    
C27   H17   S    
C23   C32   A    
C9    C15   A    
O2    Zn2   S    
C10   C16   A    
C26   H15   S    
C3    O5    A    
C24   H8    S    
C22   H3    S    
C12   O2    A    
C17   C19   A    
C34   C36   A    
C9    C12   S    
O3    Zn2   S    
C30   N6    S    
C29   N5    S    
C16   C18   A    
C2    C23   A    
C17   N3    S    
C24   H7    S    
C31   C36   A    
N2    Zn2   S    
C25   H10   S    
H27   N6    S    
