data_mof_unit_41408.cif
_audit_creation_date              2012-12-10T20:50:11-0500
_audit_creation_method            fapswitch 2.2
_symmetry_space_group_name_H-M    P1
_symmetry_Int_Tables_number       1
_space_group_crystal_system       triclinic
_cell_length_a                    18.711951
_cell_length_b                    8.93363
_cell_length_c                    8.069191
_cell_angle_alpha                 89.999877
_cell_angle_beta                  90.079254
_cell_angle_gamma                 90.000023
_cell_volume                      1348.8902423

loop_
_atom_site_label
_atom_site_type_symbol
_atom_type_description
_atom_site_fract_x
_atom_site_fract_y
_atom_site_fract_z
_atom_type_partial_charge
C1    C     C_R   0.500000 0.217828 0.500000 0.908205
C2    C     C_R   0.249113 0.437176 0.350828 0.421006
C3    C     C_R   0.186536 0.337122 0.646314 -0.266390
C4    C     C_R   0.813465 0.337124 0.353687 -0.266391
C5    C     C_R   0.818580 0.371954 0.650429 -0.276463
C6    C     C_R   0.181420 0.371954 0.349572 -0.276462
C7    C     C_R   0.148666 0.327192 0.497254 -0.042377
C8    C     C_R   0.851334 0.327193 0.502747 -0.042376
C9    C     C_R   0.288083 0.445608 0.501111 -0.280228
C10   C     C_R   0.711917 0.445608 0.498889 -0.280227
C11   C     C_R   0.927721 0.290169 0.501512 0.339308
C12   C     C_R   0.500000 0.782184 0.500000 0.933542
C13   C     C_R   0.072278 0.290169 0.498489 0.339308
C14   C     C_3   0.330724 0.261875 0.825501 0.198905
C15   C     C_3   0.291296 0.158005 0.945404 -0.391293
C16   C     C_3   0.340034 0.032208 0.006017 -0.953182
C17   C     C_3   0.669276 0.261881 0.174495 0.198912
C18   C     C_3   0.708707 0.158007 0.054600 -0.391300
C19   C     C_3   0.659968 0.032217 0.993974 -0.953182
C20   C     C_3   0.738718 0.630523 0.834201 0.153457
C21   C     C_3   0.809372 0.640150 0.930759 -0.362696
C22   C     C_3   0.819473 0.793446 0.010616 -0.948527
C23   C     C_R   0.363851 0.491829 0.500171 0.890046
C24   C     C_3   0.261283 0.630524 0.165799 0.153457
C25   C     C_3   0.190628 0.640152 0.069241 -0.362697
C26   C     C_3   0.180528 0.793449 0.989386 -0.948528
C27   C     C_R   0.636149 0.491829 0.499829 0.890047
C28   C     C_1   0.500000 0.065182 0.500000 -0.214272
C29   C     C_1   0.500000 0.934880 0.500000 -0.210052
C30   C     C_R   0.256384 0.390776 0.649159 0.418365
C31   C     C_R   0.743616 0.390778 0.350841 0.418365
C32   C     C_R   0.750887 0.437175 0.649172 0.421009
H1    H     H_    0.382602 0.293799 0.882460 0.189315
H2    H     H_    0.727641 0.222659 0.945842 0.275380
H3    H     H_    0.755988 0.108754 0.117565 0.208185
H4    H     H_    0.643366 0.960378 0.099507 0.267836
H5    H     H_    0.688836 0.962505 0.902117 0.260167
H6    H     H_    0.611702 0.079058 0.932617 0.276187
H7    H     H_    0.695189 0.675881 0.913106 0.187344
H8    H     H_    0.740700 0.702824 0.721402 0.089972
H9    H     H_    0.810405 0.553291 0.029262 0.264509
H10   H     H_    0.854832 0.619823 0.845399 0.209175
H11   H     H_    0.818658 0.882594 0.914668 0.266349
H12   H     H_    0.343956 0.200261 0.708912 0.089331
H13   H     H_    0.871799 0.797099 0.075552 0.272797
H14   H     H_    0.776620 0.814495 0.102814 0.274784
H15   H     H_    0.304811 0.675881 0.086894 0.187344
H16   H     H_    0.259301 0.702824 0.278599 0.089973
H17   H     H_    0.189595 0.553294 0.970737 0.264508
H18   H     H_    0.145169 0.619824 0.154601 0.209176
H19   H     H_    0.181343 0.882597 0.085334 0.266350
H20   H     H_    0.128201 0.797104 0.924451 0.272797
H21   H     H_    0.223381 0.814498 0.897186 0.274784
H22   H     H_    0.161971 0.303936 0.762104 0.168837
H23   H     H_    0.272369 0.222658 0.054168 0.275382
H24   H     H_    0.838029 0.303940 0.237897 0.168836
H25   H     H_    0.846485 0.361667 0.767500 0.169357
H26   H     H_    0.153515 0.361668 0.232501 0.169359
H27   H     H_    0.244010 0.108757 0.882451 0.208187
H28   H     H_    0.356628 0.960366 0.900480 0.267835
H29   H     H_    0.311169 0.962500 0.097885 0.260167
H30   H     H_    0.388306 0.079043 0.067359 0.276185
H31   H     H_    0.617400 0.293806 0.117527 0.189316
H32   H     H_    0.656040 0.200270 0.291083 0.089331
N1    N     N_1   0.500000 0.500000 0.073640 -0.037935
N2    N     N_1   0.500000 0.500000 0.926360 -0.037935
N3    N     N_R   0.034827 0.285901 0.354559 -0.184403
N4    N     N_R   0.965173 0.285902 0.645442 -0.184403
N5    N     N_R   0.963873 0.285786 0.356047 -0.181965
N6    N     N_R   0.036127 0.285786 0.643954 -0.181965
O1    O     O_R   0.500000 0.285350 0.636850 -0.635692
O2    O     O_3   0.708442 0.395869 0.199897 -0.622251
O3    O     O_3   0.720961 0.479879 0.798628 -0.619462
O4    O     O_3   0.279039 0.479879 0.201372 -0.619463
O5    O     O_R   0.500000 0.714650 0.363150 -0.616087
O6    O     O_R   0.500000 0.714650 0.636850 -0.616087
O7    O     O_R   0.500000 0.285350 0.363150 -0.635690
O8    O     O_R   0.398140 0.500000 0.636920 -0.592379
O9    O     O_R   0.601860 0.500000 0.363080 -0.592379
O10   O     O_R   0.601860 0.500000 0.636920 -0.572277
O11   O     O_R   0.398140 0.500000 0.363080 -0.572277
O12   O     O_3   0.291559 0.395865 0.800103 -0.622248
Zn1   Zn    Zn3+2 0.500000 0.500000 0.682780 0.984278
Zn2   Zn    Zn3+2 0.500000 0.500000 0.317220 0.984278

loop_
_geom_bond_atom_site_label_1
_geom_bond_atom_site_label_2
_ccdc_geom_bond_type
C10   C27   S    
C12   C29   S    
C1    O7    A    
C6    H26   S    
C4    C8    A    
C14   H1    S    
C1    O1    A    
C28   C29   T    
C3    C7    A    
C19   H4    S    
C17   H32   S    
O9    Zn2   S    
C20   H8    S    
C3    H22   S    
O5    Zn2   S    
C13   N6    A    
C15   C16   S    
C18   C19   S    
C16   H28   S    
C25   H18   S    
C19   H5    S    
N2    Zn1   S    
C10   C31   A    
C1    C28   S    
C18   H3    S    
C2    O4    S    
C5    C32   A    
C21   C22   S    
C4    H24   S    
C2    C6    A    
C16   H30   S    
O10   Zn1   S    
O8    Zn1   S    
O6    Zn1   S    
O1    Zn1   S    
C24   H16   S    
C24   C25   S    
C27   O10   A    
C32   O3    S    
C20   H7    S    
C9    C23   S    
N1    Zn2   S    
O7    Zn2   S    
C25   C26   S    
N3    N5    A    
C15   H23   S    
C30   O12   S    
C3    C30   A    
C19   H6    S    
C26   H20   S    
C22   H11   S    
C17   C18   S    
C18   H2    S    
C9    C30   A    
C21   H9    S    
C31   O2    S    
C22   H14   S    
C12   O6    A    
C16   H29   S    
C14   O12   S    
C26   H21   S    
O11   Zn2   S    
C11   N4    A    
C14   H12   S    
C13   N3    A    
C23   O11   A    
C24   H15   S    
C15   H27   S    
C5    C8    A    
C11   N5    A    
C6    C7    A    
C27   O9    A    
C5    H25   S    
C26   H19   S    
C17   H31   S    
C24   O4    S    
C8    C11   S    
C20   O3    S    
C23   O8    A    
C25   H17   S    
C4    C31   A    
C21   H10   S    
C10   C32   A    
C7    C13   S    
C22   H13   S    
C20   C21   S    
C17   O2    S    
N4    N6    A    
N1    N2    T    
C12   O5    A    
C14   C15   S    
C2    C9    A    
