data_mof_unit_20279.cif
_audit_creation_date              2012-12-10T17:43:36-0500
_audit_creation_method            fapswitch 2.2
_symmetry_space_group_name_H-M    P1
_symmetry_Int_Tables_number       1
_space_group_crystal_system       triclinic
_cell_length_a                    15.006341
_cell_length_b                    10.722434
_cell_length_c                    9.878717
_cell_angle_alpha                 89.137081
_cell_angle_beta                  89.675498
_cell_angle_gamma                 91.861819
_cell_volume                      1588.48061368

loop_
_atom_site_label
_atom_site_type_symbol
_atom_type_description
_atom_site_fract_x
_atom_site_fract_y
_atom_site_fract_z
_atom_type_partial_charge
C1    C     C_R   0.504569 0.259625 0.502101 0.878560
C2    C     C_R   0.908158 0.525073 0.376702 0.062178
C3    C     C_R   0.951709 0.457377 0.741513 -0.204661
C4    C     C_R   0.044123 0.457740 0.741459 -0.188625
C5    C     C_R   0.091673 0.479992 0.620875 0.126202
C6    C     C_R   0.046543 0.503117 0.498378 0.021205
C7    C     C_R   0.094135 0.527039 0.376247 0.041969
C8    C     C_R   0.048018 0.550989 0.255089 0.248553
C9    C     C_R   0.955277 0.549226 0.256171 -0.247297
C10   C     C_R   0.183774 0.479387 0.620881 -0.228215
C11   C     C_R   0.230818 0.501875 0.500305 -0.094303
C12   C     C_R   0.326661 0.500122 0.500287 0.878484
C13   C     C_R   0.186575 0.526280 0.379078 -0.234543
C14   C     C_R   0.508551 0.105600 0.762866 -0.168360
C15   C     C_R   0.477474 0.041264 0.878464 -0.128555
C16   C     C_R   0.431203 0.927829 0.865918 -0.078257
C17   C     C_R   0.424288 0.873057 0.739338 -0.134153
C18   C     C_R   0.463333 0.932546 0.623313 0.091790
C19   C     C_R   0.493103 0.056991 0.631697 0.109761
C20   C     C_R   0.506142 0.125392 0.507922 -0.125096
C21   C     C_R   0.506927 0.064368 0.383816 -0.198451
C22   C     C_R   0.495894 0.937408 0.380457 -0.191199
C23   C     C_R   0.490268 0.738620 0.499575 0.886546
C24   C     C_R   0.477404 0.870701 0.500063 -0.127407
C25   C     C_R   0.381495 0.337978 0.143397 -0.361866
C26   C     C_R   0.322136 0.257278 0.075384 0.430083
C27   C     C_R   0.322640 0.257856 0.933486 0.455392
C28   C     C_R   0.381959 0.338081 0.863060 -0.346655
C29   C     C_R   0.441269 0.420634 0.929405 0.093413
C30   C     C_R   0.441138 0.420706 0.073856 0.124785
C31   C     C_R   0.555899 0.576425 0.069890 -0.114164
C32   C     C_R   0.555841 0.576438 0.926515 -0.109202
C33   C     C_R   0.673348 0.500345 0.499620 0.897265
C34   C     C_R   0.815848 0.523752 0.377669 -0.233896
C35   C     C_R   0.769254 0.500781 0.498949 -0.074523
C36   C     C_R   0.814245 0.478788 0.620000 -0.259135
C37   C     C_R   0.906381 0.479367 0.620681 0.125559
C38   C     C_R   0.953731 0.502508 0.498507 0.063147
H1    H     H_    0.780444 0.541595 0.284281 0.158130
H2    H     H_    0.547397 0.190236 0.779762 0.168700
H3    H     H_    0.487861 0.080779 0.977595 0.131631
H4    H     H_    0.403512 0.880172 0.954723 0.153534
H5    H     H_    0.388391 0.784174 0.733130 0.165743
H6    H     H_    0.504044 0.891531 0.284365 0.168846
H7    H     H_    0.601526 0.638708 0.122558 0.136785
H8    H     H_    0.380628 0.330961 0.250464 0.241221
H9    H     H_    0.380303 0.331547 0.755808 0.249236
H10   H     H_    0.777701 0.460579 0.713668 0.160066
H11   H     H_    0.601387 0.638805 0.870991 0.147065
H12   H     H_    0.915765 0.439997 0.835763 0.153260
H13   H     H_    0.078345 0.441015 0.835574 0.179666
H14   H     H_    0.218639 0.460517 0.714518 0.173166
H15   H     H_    0.224814 0.544343 0.287353 0.213793
H16   H     H_    0.920028 0.567263 0.162767 0.174073
H17   H     H_    0.517856 0.114329 0.288656 0.172013
N1    N     N_R   0.499150 0.498800 0.142780 -0.097013
N2    N     N_R   0.499120 0.498720 0.857170 -0.103397
O1    O     O_R   0.500000 0.316780 0.614690 -0.651250
O2    O     O_R   0.499990 0.316750 0.385360 -0.637560
O3    O     O_R   0.367850 0.499980 0.614680 -0.640654
O4    O     O_R   0.367840 0.499960 0.385350 -0.640622
O5    O     O_R   0.500010 0.683250 0.614640 -0.627448
O6    O     O_R   0.500000 0.683220 0.385310 -0.617351
O7    O     O_R   0.632160 0.500040 0.614650 -0.625503
O8    O     O_R   0.632150 0.500020 0.385320 -0.624117
Zn1   Zn    Zn3+2 0.500010 0.500020 0.653130 0.932587
Zn2   Zn    Zn3+2 0.499990 0.499980 0.346870 0.943232
O9    O     O_3   0.270583 0.167708 0.145298 -0.585190
C39   C     C_3   0.212406 0.225330 0.236305 -0.308229
H18   H     H_    0.180002 0.307516 0.189807 0.171093
H19   H     H_    0.247666 0.252029 0.330589 0.173042
H20   H     H_    0.158437 0.156856 0.265417 0.201062
O10   O     O_3   0.271279 0.173618 0.859620 -0.587692
C40   C     C_3   0.179528 0.188135 0.885516 -0.208609
H21   H     H_    0.163073 0.282438 0.922214 0.124008
H22   H     H_    0.155165 0.115987 0.959771 0.218223
H23   H     H_    0.142528 0.173080 0.789919 0.170779
Br1   Br    Br    0.107362 0.588226 0.085610 -0.612645

loop_
_geom_bond_atom_site_label_1
_geom_bond_atom_site_label_2
_ccdc_geom_bond_type
C28   H9    S    
O10   C40   S    
C35   C36   A    
N2    Zn1   S    
C10   H14   S    
C33   O8    A    
C7    C8    A    
C26   C27   A    
C37   C38   A    
C40   H22   S    
C18   C24   A    
C36   C37   A    
C34   C35   A    
C1    O2    A    
C5    C6    A    
C15   C16   A    
C18   C19   A    
C39   H19   S    
C2    C38   A    
O2    Zn2   S    
O9    C39   S    
O1    Zn1   S    
C23   O5    A    
C22   H6    S    
C19   C20   A    
C16   C17   A    
O8    Zn2   S    
C40   H23   S    
C23   C24   S    
C6    C38   A    
C31   N1    A    
C2    C34   A    
C23   O6    A    
O3    Zn1   S    
C21   C22   A    
C8    Br1   S    
C32   N2    A    
C3    H12   S    
C13   H15   S    
O6    Zn2   S    
C40   H21   S    
O5    Zn1   S    
C4    H13   S    
C34   H1    S    
C15   H3    S    
C21   H17   S    
C8    C9    A    
C25   C26   A    
C30   N1    A    
O7    Zn1   S    
C39   H20   S    
C17   H5    S    
C29   C30   A    
O4    Zn2   S    
C31   C32   A    
C17   C18   A    
C29   N2    A    
C22   C24   A    
C3    C4    A    
C16   H4    S    
C25   C30   A    
C28   C29   A    
C1    C20   S    
C14   C19   A    
C4    C5    A    
C11   C12   S    
C6    C7    A    
N1    Zn2   S    
C26   O9    S    
C5    C10   A    
C1    O1    A    
C12   O4    A    
C11   C13   A    
C33   O7    A    
C33   C35   S    
C36   H10   S    
C39   H18   S    
C32   H11   S    
C10   C11   A    
C14   H2    S    
C12   O3    A    
C7    C13   A    
C20   C21   A    
C3    C37   A    
C31   H7    S    
C27   C28   A    
C14   C15   A    
C9    H16   S    
C27   O10   S    
C2    C9    A    
C25   H8    S    
