data_mof_unit_20599.cif
_audit_creation_date              2012-12-10T18:51:33-0500
_audit_creation_method            fapswitch 2.2
_symmetry_space_group_name_H-M    P1
_symmetry_Int_Tables_number       1
_space_group_crystal_system       triclinic
_cell_length_a                    10.721492
_cell_length_b                    9.896617
_cell_length_c                    10.498238
_cell_angle_alpha                 90.213499
_cell_angle_beta                  90.83827
_cell_angle_gamma                 89.990996
_cell_volume                      1113.80433337

loop_
_atom_site_label
_atom_site_type_symbol
_atom_type_description
_atom_site_fract_x
_atom_site_fract_y
_atom_site_fract_z
_atom_type_partial_charge
C1    C     C_R   0.872520 0.499992 0.500095 -0.017597
C2    C     C_3   0.506692 0.371202 0.039919 -0.126138
C3    C     C_3   0.400911 0.430051 0.955746 -0.174748
C4    C     C_3   0.599089 0.569949 0.044254 -0.174748
C5    C     C_3   0.500156 0.501309 0.877692 0.018306
C6    C     C_3   0.499844 0.498691 0.122308 0.018306
C7    C     C_R   0.578325 0.072304 0.579784 -0.012008
C8    C     C_R   0.421675 0.927696 0.420216 -0.012008
C9    C     C_R   0.421881 0.071872 0.420009 -0.015672
C10   C     C_R   0.578118 0.928128 0.579990 -0.015672
C11   C     C_R   0.063848 0.376783 0.498205 -0.183229
C12   C     C_R   0.127479 0.500008 0.499905 -0.017597
C13   C     C_R   0.936152 0.623216 0.501795 -0.183229
C14   C     C_R   0.936136 0.376776 0.498243 -0.182412
C15   C     C_R   0.063864 0.623224 0.501757 -0.182412
C16   C     C_1   0.662187 0.145446 0.663674 0.226385
C17   C     C_1   0.337813 0.854554 0.336326 0.226385
C18   C     C_1   0.339694 0.144738 0.334574 0.216206
C19   C     C_1   0.660306 0.855262 0.665426 0.216206
C20   C     C_R   0.260030 0.500006 0.499868 0.870969
C21   C     C_R   0.739970 0.499994 0.500132 0.870969
C22   C     C_R   0.499738 0.499623 0.257380 0.876651
C23   C     C_R   0.500262 0.500377 0.742620 0.876651
C24   C     C_3   0.394081 0.557336 0.040815 -0.173990
C25   C     C_3   0.605918 0.442664 0.959185 -0.173989
C26   C     C_3   0.493308 0.628798 0.960081 -0.126138
H1    H     H_    0.320317 0.373295 0.914913 0.145112
H2    H     H_    0.112227 0.719340 0.503287 0.164850
H3    H     H_    0.679683 0.626704 0.085087 0.145112
H4    H     H_    0.307538 0.603237 0.078235 0.158295
H5    H     H_    0.692462 0.396763 0.921765 0.158295
H6    H     H_    0.487942 0.733854 0.923615 0.152937
H7    H     H_    0.512058 0.266146 0.076385 0.152937
H8    H     H_    0.112195 0.280670 0.496835 0.164932
H9    H     H_    0.887805 0.719330 0.503165 0.164932
H10   H     H_    0.887773 0.280660 0.496713 0.164850
N1    N     N_R   0.500000 0.857200 0.500000 -0.125229
N2    N     N_R   0.500000 0.142800 0.500000 -0.125229
N3    N     N_1   0.730008 0.203164 0.731178 -0.233931
N4    N     N_1   0.269992 0.796836 0.268822 -0.233931
N5    N     N_1   0.273580 0.202453 0.265673 -0.221348
N6    N     N_1   0.726420 0.797547 0.734327 -0.221348
O1    O     O_R   0.316770 0.614620 0.499990 -0.625013
O2    O     O_R   0.683230 0.385380 0.500010 -0.625013
O3    O     O_R   0.683230 0.614620 0.500010 -0.624990
O4    O     O_R   0.316770 0.385380 0.499990 -0.624990
O5    O     O_R   0.499970 0.614650 0.313950 -0.617077
O6    O     O_R   0.500030 0.385350 0.686050 -0.617077
O7    O     O_R   0.500030 0.614650 0.686050 -0.622550
O8    O     O_R   0.499970 0.385350 0.313950 -0.622550
Zn1   Zn    Zn3+2 0.500000 0.653120 0.500000 0.961287
Zn2   Zn    Zn3+2 0.500000 0.346880 0.500000 0.961287

loop_
_geom_bond_atom_site_label_1
_geom_bond_atom_site_label_2
_ccdc_geom_bond_type
O2    Zn2   S    
C25   H5    S    
C7    C10   A    
O8    Zn2   S    
C11   C12   A    
C19   N6    T    
C1    C21   S    
C1    C14   A    
C21   O2    A    
C4    C26   S    
C8    C17   S    
C5    C23   S    
C12   C15   A    
C10   C19   S    
C22   O8    A    
C6    C24   S    
C12   C20   S    
C3    H1    S    
C4    C25   S    
C15   H2    S    
C3    C5    S    
C26   H6    S    
O1    Zn1   S    
C3    C24   S    
C2    C6    S    
C10   N1    A    
C5    C25   S    
C2    H7    S    
C7    C16   S    
C7    N2    A    
C24   C26   S    
C13   H9    S    
C2    C25   S    
C2    C3    S    
C13   C15   A    
C14   H10   S    
N1    Zn1   S    
C11   C14   A    
C22   O5    A    
C23   O7    A    
C24   H4    S    
C1    C13   A    
C8    N1    A    
O3    Zn1   S    
C16   N3    T    
C5    C26   S    
C6    C22   S    
O4    Zn2   S    
C9    C18   S    
O6    Zn2   S    
C20   O1    A    
N2    Zn2   S    
C4    C6    S    
C18   N5    T    
C9    N2    A    
O5    Zn1   S    
C23   O6    A    
O7    Zn1   S    
C11   H8    S    
C20   O4    A    
C4    H3    S    
C8    C9    A    
C21   O3    A    
C17   N4    T    
