data_mof_unit_30682.cif
_audit_creation_date              2012-12-10T17:48:38-0500
_audit_creation_method            fapswitch 2.2
_symmetry_space_group_name_H-M    P1
_symmetry_Int_Tables_number       1
_space_group_crystal_system       triclinic
_cell_length_a                    15.74548
_cell_length_b                    10.702386
_cell_length_c                    9.904353
_cell_angle_alpha                 92.146965
_cell_angle_beta                  91.29202
_cell_angle_gamma                 92.631598
_cell_volume                      1665.60121599

loop_
_atom_site_label
_atom_site_type_symbol
_atom_type_description
_atom_site_fract_x
_atom_site_fract_y
_atom_site_fract_z
_atom_type_partial_charge
C1    C     C_R   0.508745 0.261782 0.498250 0.863589
C2    C     C_R   0.599886 0.097595 0.848365 -0.134021
C3    C     C_R   0.561724 0.980910 0.874088 0.223179
C4    C     C_R   0.338421 0.498985 0.498664 0.901661
C5    C     C_R   0.527670 0.905052 0.764765 -0.271405
C6    C     C_R   0.526861 0.948336 0.630406 0.077511
C7    C     C_R   0.550750 0.074185 0.613763 0.100664
C8    C     C_R   0.522760 0.130752 0.495466 -0.103225
C9    C     C_R   0.491906 0.060025 0.382992 -0.224486
C10   C     C_R   0.483134 0.933038 0.389812 -0.225216
C11   C     C_R   0.499866 0.875612 0.511645 -0.112451
C12   C     C_3   0.950259 0.424782 0.644326 -0.129932
C13   C     C_R   0.388478 0.334726 0.131058 -0.153405
C14   C     C_R   0.334834 0.250132 0.056480 -0.215945
C15   C     C_R   0.334082 0.249843 0.916762 -0.200529
C16   C     C_R   0.498558 0.740825 0.503593 0.876259
C17   C     C_R   0.386869 0.334318 0.850546 -0.139706
C18   C     C_R   0.443462 0.419895 0.922805 0.137539
C19   C     C_R   0.444022 0.419651 0.067489 0.153892
C20   C     C_R   0.555867 0.572977 0.078079 -0.136965
C21   C     C_R   0.557763 0.571417 0.935149 0.164725
C22   C     C_R   0.661594 0.501576 0.501473 0.901397
C23   C     C_3   0.916446 0.482818 0.508416 0.132378
C24   C     C_3   0.051788 0.410254 0.644944 0.293342
C25   C     C_3   0.043475 0.400750 0.380966 -0.110672
C26   C     C_3   0.943677 0.398697 0.383227 -0.088860
C27   C     C_1   0.750123 0.497679 0.504992 -0.230407
C28   C     C_3   0.082788 0.476535 0.510295 0.178114
C29   C     C_3   0.893435 0.314595 0.702091 -0.390916
C30   C     C_3   0.893155 0.316538 0.857047 -0.950621
C31   C     C_3   0.089521 0.473464 0.784284 -0.383071
C32   C     C_3   0.181237 0.528480 0.796368 -0.847568
C33   C     C_3   0.935949 0.671484 0.346417 -0.422215
C34   C     C_3   0.956333 0.623774 0.494074 0.287864
C35   C     C_3   0.956658 0.810062 0.318868 -0.941894
C36   C     C_3   0.551353 0.941771 0.018272 -0.434336
C37   C     C_3   0.634885 0.952002 0.101090 -0.890980
C38   C     C_3   0.072439 0.265987 0.645589 -0.357646
C39   C     C_3   0.163279 0.227458 0.619238 -0.908502
C40   C     C_3   0.631080 0.641569 0.873700 -0.371471
C41   C     C_3   0.710581 0.565138 0.877541 -0.852504
C42   C     C_3   0.079442 0.442489 0.242207 -0.415832
C43   C     C_3   0.147322 0.357137 0.187859 -0.900493
C44   C     C_3   0.904760 0.261867 0.364330 -0.407890
C45   C     C_3   0.054423 0.615281 0.511778 -0.496212
C46   C     C_3   0.809451 0.250319 0.328831 -0.848705
C47   C     C_3   0.919685 0.727931 0.594339 -0.324189
C48   C     C_3   0.935488 0.733055 0.748041 -1.002477
C49   C     C_1   0.825060 0.490932 0.507253 -0.050372
C50   C     C_1   0.174345 0.483154 0.501222 0.030139
C51   C     C_1   0.249604 0.491316 0.496503 -0.230856
C52   C     C_R   0.596326 0.142595 0.718974 -0.219320
H1    H     H_    0.937881 0.498761 0.717345 0.198322
H2    H     H_    0.872490 0.407842 0.898385 0.262031
H3    H     H_    0.847788 0.242054 0.890558 0.261073
H4    H     H_    0.826049 0.320332 0.669651 0.231793
H5    H     H_    0.910679 0.220437 0.667159 0.202582
H6    H     H_    0.228891 0.459804 0.771583 0.275917
H7    H     H_    0.190491 0.612064 0.734825 0.247970
H8    H     H_    0.194655 0.560603 0.903006 0.235978
H9    H     H_    0.051200 0.550923 0.820129 0.188269
H10   H     H_    0.083030 0.405482 0.865633 0.207441
H11   H     H_    0.907212 0.870347 0.360567 0.255886
H12   H     H_    0.495454 0.818640 0.790127 0.173921
H13   H     H_    0.020239 0.841901 0.360902 0.259548
H14   H     H_    0.956632 0.822819 0.208033 0.257781
H15   H     H_    0.972459 0.621309 0.269852 0.203671
H16   H     H_    0.867545 0.652362 0.319724 0.206834
H17   H     H_    0.471339 0.103017 0.291226 0.167639
H18   H     H_    0.625998 0.234027 0.703267 0.162026
H19   H     H_    0.628787 0.156922 0.929294 0.146711
H20   H     H_    0.688011 0.914402 0.042755 0.255810
H21   H     H_    0.651343 0.051197 0.131580 0.258071
H22   H     H_    0.627717 0.898528 0.194412 0.262518
H23   H     H_    0.385837 0.329743 0.238110 0.200802
H24   H     H_    0.504998 0.002712 0.067659 0.212133
H25   H     H_    0.524407 0.844138 0.020600 0.195809
H26   H     H_    0.460510 0.880017 0.299670 0.174208
H27   H     H_    0.601792 0.631131 0.137877 0.160201
H28   H     H_    0.210063 0.276062 0.688923 0.265933
H29   H     H_    0.166951 0.125793 0.636088 0.238160
H30   H     H_    0.181000 0.241053 0.513024 0.252414
H31   H     H_    0.055276 0.227346 0.744286 0.208153
H32   H     H_    0.032563 0.210192 0.571068 0.170075
H33   H     H_    0.695982 0.466401 0.842996 0.276723
H34   H     H_    0.293641 0.184312 0.107548 0.150158
H35   H     H_    0.758189 0.606489 0.809763 0.252467
H36   H     H_    0.738016 0.566171 0.981916 0.236748
H37   H     H_    0.616020 0.668027 0.770227 0.258955
H38   H     H_    0.645248 0.731018 0.930735 0.189922
H39   H     H_    0.201063 0.352283 0.261345 0.268670
H40   H     H_    0.119269 0.261187 0.165973 0.247831
H41   H     H_    0.172425 0.394002 0.092586 0.267968
H42   H     H_    0.028616 0.440492 0.162429 0.202901
H43   H     H_    0.107345 0.539547 0.249901 0.224190
H44   H     H_    0.062356 0.302956 0.388254 0.189700
H45   H     H_    0.292604 0.183076 0.859348 0.150005
H46   H     H_    0.771560 0.257339 0.421548 0.255652
H47   H     H_    0.790991 0.322282 0.257186 0.259741
H48   H     H_    0.793513 0.156607 0.280431 0.240743
H49   H     H_    0.937194 0.216554 0.277969 0.210910
H50   H     H_    0.917066 0.204075 0.451012 0.198785
H51   H     H_    0.918807 0.440323 0.290858 0.159757
H52   H     H_    0.897017 0.662694 0.801207 0.255683
H53   H     H_    0.003673 0.732444 0.775980 0.260499
H54   H     H_    0.913933 0.824104 0.788952 0.257501
H55   H     H_    0.947868 0.820153 0.567940 0.231116
H56   H     H_    0.382182 0.328038 0.743131 0.202863
H57   H     H_    0.850116 0.732897 0.575523 0.206052
H58   H     H_    0.077337 0.664351 0.606468 0.189938
H59   H     H_    0.088040 0.667852 0.432698 0.179439
H60   H     H_    0.956744 0.298587 0.899895 0.256805
N1    N     N_R   0.499210 0.498800 0.142780 -0.136271
N2    N     N_R   0.499180 0.498720 0.857170 -0.139866
O1    O     O_R   0.500000 0.316780 0.614690 -0.637309
O2    O     O_R   0.499990 0.316750 0.385360 -0.640213
O3    O     O_R   0.377150 0.500020 0.614720 -0.632768
O4    O     O_R   0.377140 0.499990 0.385380 -0.626909
O5    O     O_R   0.500010 0.683250 0.614640 -0.650340
O6    O     O_R   0.500000 0.683220 0.385310 -0.615977
O7    O     O_R   0.622860 0.500010 0.614620 -0.622712
O8    O     O_R   0.622850 0.499980 0.385280 -0.610357
Zn1   Zn    Zn3+2 0.500010 0.500020 0.653130 0.908789
Zn2   Zn    Zn3+2 0.499990 0.499980 0.346870 0.925574

loop_
_geom_bond_atom_site_label_1
_geom_bond_atom_site_label_2
_ccdc_geom_bond_type
C37   H22   S    
C12   C29   S    
C1    C8    S    
C31   H9    S    
C32   H6    S    
C46   H47   S    
C18   N2    A    
C10   H26   S    
C26   C44   S    
C7    C8    A    
C25   C28   S    
C30   H2    S    
C12   C23   S    
C36   C37   S    
C9    H17   S    
C7    C52   A    
C36   H25   S    
C16   O6    A    
C38   C39   S    
C38   H31   S    
C23   C49   S    
C35   H13   S    
C48   H52   S    
C18   C19   A    
C23   C26   S    
C46   H48   S    
C36   H24   S    
C43   H41   S    
C28   C50   S    
C48   H54   S    
C48   H53   S    
C8    C9    A    
C24   C38   S    
C1    O2    A    
C40   H37   S    
C9    C10   A    
C12   H1    S    
C46   H46   S    
C13   C14   A    
C31   H10   S    
C4    O4    A    
C15   H45   S    
C44   C46   S    
C22   O8    A    
C41   H35   S    
C28   C45   S    
O1    Zn1   S    
C13   C19   A    
C4    C51   S    
C42   H43   S    
C13   H23   S    
C14   H34   S    
C17   H56   S    
C6    C11   A    
C44   H50   S    
C45   H58   S    
C35   H14   S    
C50   C51   T    
C25   C26   S    
C47   H57   S    
C43   H39   S    
C5    H12   S    
C30   H60   S    
C29   C30   S    
C26   H51   S    
C11   C16   S    
C47   C48   S    
C23   C34   S    
C17   C18   A    
C34   C45   S    
O4    Zn2   S    
C39   H29   S    
C2    C52   A    
N2    Zn1   S    
C40   C41   S    
C29   H5    S    
C47   H55   S    
C22   C27   S    
C4    O3    A    
C16   O5    A    
C42   C43   S    
C32   H8    S    
O8    Zn2   S    
C2    H19   S    
C33   H15   S    
C22   O7    A    
C15   C17   A    
C41   H36   S    
C37   H21   S    
O2    Zn2   S    
C20   H27   S    
C38   H32   S    
C42   H42   S    
C31   C32   S    
C24   C28   S    
C39   H30   S    
C21   N2    A    
C3    C5    A    
C25   C42   S    
C44   H49   S    
C45   H59   S    
C6    C7    A    
C29   H4    S    
O5    Zn1   S    
C41   H33   S    
C30   H3    S    
C12   C24   S    
C43   H40   S    
C39   H28   S    
C2    C3    A    
O3    Zn1   S    
C24   C31   S    
C5    C6    A    
N1    Zn2   S    
C3    C36   S    
C33   C35   S    
C33   C34   S    
C20   N1    A    
O7    Zn1   S    
C52   H18   S    
C10   C11   A    
O6    Zn2   S    
C20   C21   A    
C25   H44   S    
C37   H20   S    
C19   N1    A    
C14   C15   A    
C35   H11   S    
C34   C47   S    
C1    O1    A    
C32   H7    S    
C40   H38   S    
C27   C49   T    
C33   H16   S    
C21   C40   S    
