data_mof_unit_38379.cif
_audit_creation_date              2012-12-11T14:41:10-0500
_audit_creation_method            fapswitch 2.2
_symmetry_space_group_name_H-M    P1
_symmetry_Int_Tables_number       1
_space_group_crystal_system       triclinic
_cell_length_a                    24.47063
_cell_length_b                    17.398585
_cell_length_c                    15.566108
_cell_angle_alpha                 90.177716
_cell_angle_beta                  128.979232
_cell_angle_gamma                 90.190053
_cell_volume                      5151.77727836

loop_
_atom_site_label
_atom_site_type_symbol
_atom_type_description
_atom_site_fract_x
_atom_site_fract_y
_atom_site_fract_z
_atom_type_partial_charge
C1    C     C_R   0.333564 0.391356 0.200280 -0.207339
C2    C     C_R   0.686870 0.609801 0.500437 -0.104709
C3    C     C_R   0.139480 0.813559 0.501304 -0.059839
C4    C     C_R   0.185058 0.111748 0.498126 -0.094833
C5    C     C_R   0.356997 0.317868 0.499544 -0.011143
C6    C     C_R   0.318814 0.620260 0.501533 -0.008982
C7    C     C_R   0.861063 0.814512 0.500642 -0.015037
C8    C     C_R   0.856838 0.181348 0.500583 -0.012205
C9    C     C_3   0.359302 0.205618 0.601681 -0.395590
C10   C     C_3   0.285271 0.751229 0.496151 -0.395954
C11   C     C_3   0.862197 0.703844 0.605564 -0.393992
C12   C     C_R   0.351874 0.641818 0.246059 -0.196578
C13   C     C_3   0.858615 0.293294 0.603329 -0.393593
C14   C     C_3   0.813802 0.646876 0.605455 -0.391366
C15   C     C_3   0.810207 0.348253 0.604810 -0.397355
C16   C     C_3   0.311238 0.149553 0.603132 -0.391883
C17   C     C_3   0.236012 0.804310 0.496263 -0.378049
C18   C     C_3   0.259689 0.301775 0.500544 -0.402626
C19   C     C_3   0.277467 0.654436 0.608912 -0.388009
C20   C     C_3   0.762333 0.798943 0.499220 -0.398951
C21   C     C_3   0.758717 0.196079 0.499764 -0.399453
C22   C     C_3   0.275391 0.206489 0.394220 -0.396574
C23   C     C_R   0.833277 0.892284 0.199473 -0.210792
C24   C     C_3   0.191256 0.647651 0.401469 -0.395068
C25   C     C_3   0.780215 0.701189 0.398144 -0.386145
C26   C     C_3   0.775686 0.291953 0.395887 -0.392451
C27   C     C_3   0.314203 0.258581 0.498965 0.379331
C28   C     C_3   0.268879 0.666482 0.502119 0.373746
C29   C     C_3   0.817986 0.755137 0.500951 0.372034
C30   C     C_3   0.813843 0.240022 0.499918 0.377388
C31   C     C_3   0.736215 0.658802 0.500751 0.382288
C32   C     C_3   0.732796 0.336128 0.498849 0.384207
C33   C     C_3   0.233647 0.161289 0.498507 0.381101
C34   C     C_R   0.833938 0.109026 0.201406 -0.214259
C35   C     C_3   0.184467 0.757069 0.501930 0.379539
C36   C     C_3   0.714607 0.742678 0.499206 -0.365382
C37   C     C_3   0.709729 0.252411 0.495383 -0.374319
C38   C     C_3   0.211338 0.244765 0.497453 -0.375931
C39   C     C_3   0.227248 0.707645 0.608558 -0.391935
C40   C     C_R   0.658756 0.372519 0.778947 0.452904
C41   C     C_R   0.655355 0.633500 0.771282 0.456742
C42   C     C_R   0.169227 0.903192 0.804433 0.402823
C43   C     C_R   0.157344 0.130930 0.775437 0.484263
C44   C     C_3   0.731632 0.644412 0.397846 -0.394771
C45   C     C_R   0.629563 0.335427 0.820292 0.025937
C46   C     C_3   0.729423 0.350659 0.397249 -0.393645
C47   C     C_3   0.229020 0.147476 0.395434 -0.386282
C48   C     C_3   0.141276 0.701196 0.401448 -0.386870
C49   C     C_2   0.657603 0.268109 0.890865 -0.150977
C50   C     C_2   0.648730 0.744689 0.871515 -0.153596
C51   C     C_2   0.195754 0.858951 0.982623 -0.166484
C52   C     C_2   0.155127 0.237383 0.885111 -0.145656
C53   C     C_2   0.695601 0.217468 0.883876 -0.083172
C54   C     C_2   0.691368 0.793006 0.871655 -0.077752
C55   C     C_2   0.257386 0.829039 0.021927 -0.034093
C56   C     C_R   0.622452 0.674914 0.803912 0.019848
C57   C     C_2   0.192246 0.289101 0.877157 -0.088749
C58   C     C_2   0.356418 0.751787 0.145976 -0.120497
C59   C     C_2   0.304157 0.346048 0.020866 -0.056917
C60   C     C_2   0.805907 0.158674 0.025340 -0.055772
C61   C     C_2   0.803625 0.848641 0.018922 -0.057516
C62   C     C_2   0.301561 0.788405 0.125331 -0.166313
C63   C     C_2   0.234762 0.344360 0.966101 -0.171069
C64   C     C_2   0.736707 0.161854 0.971207 -0.169594
C65   C     C_2   0.734157 0.846373 0.963713 -0.165426
C66   C     C_R   0.615390 0.397172 0.407595 -0.109630
C67   C     C_R   0.149180 0.883463 0.867424 0.031943
C68   C     C_R   0.618223 0.596839 0.409576 -0.046529
C69   C     C_R   0.088623 0.855933 0.408698 -0.119489
C70   C     C_R   0.116131 0.100410 0.407849 -0.089677
C71   C     C_R   0.407310 0.361504 0.591749 -0.126413
C72   C     C_R   0.386759 0.603616 0.592750 -0.137604
C73   C     C_R   0.912309 0.858104 0.592814 -0.127134
C74   C     C_R   0.906911 0.137997 0.592311 -0.126308
C75   C     C_R   0.689898 0.401246 0.589961 -0.098214
C76   C     C_R   0.690796 0.597397 0.590999 -0.091727
C77   C     C_R   0.162544 0.857553 0.592865 -0.119898
C78   C     C_R   0.127687 0.168744 0.815578 0.008976
C79   C     C_R   0.190505 0.096848 0.589666 -0.073603
C80   C     C_R   0.335635 0.358844 0.407208 -0.127915
C81   C     C_R   0.312688 0.604031 0.409162 -0.141073
C82   C     C_R   0.837557 0.857202 0.408016 -0.125502
C83   C     C_R   0.835726 0.140573 0.407864 -0.128007
C84   C     C_R   0.567481 0.371853 0.779157 -0.205882
C85   C     C_R   0.561095 0.636280 0.764686 -0.202165
C86   C     C_R   0.078027 0.897703 0.804129 -0.213571
C87   C     C_R   0.066642 0.130211 0.776876 -0.208069
C88   C     C_R   0.422838 0.391942 0.196187 0.450636
C89   C     C_R   0.684052 0.384987 0.498263 -0.075995
C90   C     C_R   0.440606 0.641190 0.238998 0.467907
C91   C     C_R   0.922416 0.893195 0.195259 0.435158
C92   C     C_R   0.923503 0.110571 0.198083 0.468755
C93   C     C_R   0.352396 0.372504 0.135986 0.018510
C94   C     C_R   0.383873 0.683124 0.212629 0.012462
C95   C     C_R   0.851873 0.874204 0.134628 0.018763
C96   C     C_R   0.853311 0.129776 0.138543 0.011273
Cl1   Cl    Cl    0.748861 0.374160 0.843487 -0.694198
Cl2   Cl    Cl    0.745848 0.636382 0.838362 -0.698741
Cl3   Cl    Cl    0.252429 0.938716 0.855233 -0.652173
Cl4   Cl    Cl    0.246586 0.136444 0.835281 -0.663184
Cl5   Cl    Cl    0.463257 0.406984 0.136334 -0.690994
Cl6   Cl    Cl    0.483394 0.657590 0.183176 -0.702859
Cl7   Cl    Cl    0.963353 0.908320 0.135997 -0.651190
Cl8   Cl    Cl    0.965749 0.104904 0.140036 -0.657646
H1    H     H_    0.281171 0.394218 0.174722 0.115678
H2    H     H_    0.826938 0.408861 0.610404 0.154238
H3    H     H_    0.327571 0.089275 0.606629 0.162159
H4    H     H_    0.206469 0.839908 0.420113 0.167536
H5    H     H_    0.317764 0.160946 0.679457 0.182762
H6    H     H_    0.267763 0.844393 0.568202 0.168172
H7    H     H_    0.820203 0.657015 0.681876 0.179161
H8    H     H_    0.815964 0.335905 0.680163 0.181079
H9    H     H_    0.286719 0.337968 0.576515 0.165254
H10   H     H_    0.332021 0.668203 0.683640 0.162215
H11   H     H_    0.788459 0.837568 0.572697 0.167510
H12   H     H_    0.304291 0.655502 0.233279 0.122392
H13   H     H_    0.785257 0.160481 0.575574 0.167765
H14   H     H_    0.717863 0.754235 0.572762 0.170570
H15   H     H_    0.710251 0.241542 0.566409 0.169834
H16   H     H_    0.213243 0.255328 0.569947 0.170755
H17   H     H_    0.259579 0.744221 0.683943 0.165957
H18   H     H_    0.747492 0.734391 0.320186 0.157148
H19   H     H_    0.741086 0.257307 0.318836 0.155820
H20   H     H_    0.240831 0.240925 0.317700 0.156657
H21   H     H_    0.178881 0.586620 0.404590 0.160463
H22   H     H_    0.314060 0.176366 0.390851 0.166079
H23   H     H_    0.780866 0.895382 0.173864 0.116845
H24   H     H_    0.181882 0.655926 0.322417 0.154712
H25   H     H_    0.819688 0.669022 0.398773 0.162629
H26   H     H_    0.814750 0.322363 0.393413 0.163273
H27   H     H_    0.746862 0.584237 0.397708 0.154821
H28   H     H_    0.747632 0.410129 0.400648 0.157792
H29   H     H_    0.246308 0.088134 0.396636 0.165356
H30   H     H_    0.109367 0.733010 0.322218 0.167440
H31   H     H_    0.677107 0.652849 0.320298 0.181242
H32   H     H_    0.674935 0.344495 0.318587 0.168872
H33   H     H_    0.174353 0.153890 0.317587 0.171751
H34   H     H_    0.781498 0.105684 0.175654 0.117187
H35   H     H_    0.104413 0.666609 0.404994 0.163870
H36   H     H_    0.227637 0.340829 0.428237 0.160653
H37   H     H_    0.266461 0.593424 0.614894 0.161961
H38   H     H_    0.729752 0.835716 0.424417 0.165324
H39   H     H_    0.727179 0.156398 0.427293 0.162756
H40   H     H_    0.659142 0.752573 0.424478 0.183435
H41   H     H_    0.655005 0.242054 0.418274 0.169402
H42   H     H_    0.156248 0.254774 0.421677 0.169189
H43   H     H_    0.191014 0.672960 0.613464 0.160759
H44   H     H_    0.283068 0.777838 0.171968 0.134352
H45   H     H_    0.397496 0.173003 0.599583 0.163340
H46   H     H_    0.211501 0.370257 0.999639 0.132721
H47   H     H_    0.712705 0.136132 0.003660 0.132340
H48   H     H_    0.710869 0.870945 0.997968 0.131459
H49   H     H_    0.704685 0.224271 0.824380 0.166927
H50   H     H_    0.703428 0.784499 0.816035 0.169966
H51   H     H_    0.271407 0.823035 0.968752 0.173033
H52   H     H_    0.200249 0.282920 0.816312 0.166235
H53   H     H_    0.374968 0.765772 0.100096 0.187326
H54   H     H_    0.326209 0.318309 0.986175 0.185372
H55   H     H_    0.828647 0.186405 0.991724 0.184471
H56   H     H_    0.279082 0.761081 0.419750 0.159984
H57   H     H_    0.825837 0.822392 0.983609 0.182052
H58   H     H_    0.648140 0.260583 0.949869 0.135040
H59   H     H_    0.636332 0.754052 0.926660 0.136532
H60   H     H_    0.177454 0.858325 0.030651 0.137008
H61   H     H_    0.146801 0.244389 0.945563 0.136117
H62   H     H_    0.593635 0.395102 0.322447 0.170742
H63   H     H_    0.600246 0.587855 0.326996 0.173023
H64   H     H_    0.062601 0.841234 0.323950 0.159152
H65   H     H_    0.094909 0.100068 0.323029 0.179731
H66   H     H_    0.427012 0.353062 0.675146 0.094182
H67   H     H_    0.902398 0.671882 0.607848 0.159031
H68   H     H_    0.408558 0.603550 0.678343 0.100005
H69   H     H_    0.939140 0.845616 0.678658 0.102232
H70   H     H_    0.925993 0.146152 0.675545 0.095517
H71   H     H_    0.738255 0.408258 0.672541 0.174022
H72   H     H_    0.738730 0.590437 0.673890 0.176167
H73   H     H_    0.204047 0.844759 0.678475 0.143812
H74   H     H_    0.238938 0.088358 0.671607 0.186941
H75   H     H_    0.292912 0.346125 0.321696 0.096086
H76   H     H_    0.265558 0.604256 0.323938 0.089632
H77   H     H_    0.794555 0.844133 0.322716 0.097374
H78   H     H_    0.896936 0.326776 0.602079 0.161268
H79   H     H_    0.793058 0.152840 0.322503 0.096416
H80   H     H_    0.536754 0.362638 0.805981 0.130325
H81   H     H_    0.524468 0.651240 0.778730 0.132648
H82   H     H_    0.048398 0.899806 0.834083 0.137030
H83   H     H_    0.035932 0.139755 0.803600 0.132758
H84   H     H_    0.389960 0.239152 0.680003 0.158954
H85   H     H_    0.340704 0.765742 0.567931 0.163597
H86   H     H_    0.890343 0.739112 0.682203 0.160221
H87   H     H_    0.889122 0.259958 0.681201 0.158414
H88   H     H_    0.830136 0.586787 0.607830 0.154088
N1    N     N_R   0.389430 0.421450 0.294590 -0.065209
N2    N     N_R   0.581780 0.577610 0.443390 -0.049499
N3    N     N_R   0.081780 0.922390 0.443390 -0.033457
N4    N     N_R   0.081780 0.077610 0.443390 -0.047342
N5    N     N_R   0.419850 0.423100 0.556610 -0.033748
N6    N     N_R   0.419850 0.576900 0.556610 -0.034565
N7    N     N_R   0.919850 0.923100 0.556610 -0.036670
N8    N     N_R   0.919850 0.076900 0.556610 -0.035887
N9    N     N_R   0.627410 0.423100 0.556610 -0.045977
N10   N     N_R   0.627410 0.576900 0.556610 -0.050539
N11   N     N_R   0.127410 0.923100 0.556610 -0.032234
N12   N     N_R   0.389430 0.578550 0.294590 -0.067137
N13   N     N_R   0.127410 0.076900 0.556610 -0.049771
N14   N     N_R   0.374220 0.422390 0.443390 -0.035046
N15   N     N_R   0.374220 0.577610 0.443390 -0.033934
N16   N     N_R   0.874220 0.922390 0.443390 -0.037686
N17   N     N_R   0.874220 0.077610 0.443390 -0.037336
N18   N     N_R   0.555000 0.424040 0.705410 -0.061519
N19   N     N_R   0.555000 0.575960 0.705410 -0.063241
N20   N     N_R   0.055000 0.924040 0.705410 -0.062502
N21   N     N_R   0.055000 0.075960 0.705410 -0.063631
N22   N     N_R   0.446630 0.421450 0.294590 -0.087675
N23   N     N_R   0.889430 0.921450 0.294590 -0.064726
N24   N     N_R   0.446630 0.578550 0.294590 -0.083011
N25   N     N_R   0.946630 0.921450 0.294590 -0.088316
N26   N     N_R   0.946630 0.078550 0.294590 -0.090165
N27   N     N_R   0.889430 0.078550 0.294590 -0.066575
N28   N     N_R   0.612200 0.424040 0.705410 -0.083500
N29   N     N_R   0.612200 0.575960 0.705410 -0.082085
N30   N     N_R   0.112200 0.924040 0.705410 -0.082928
N31   N     N_R   0.112200 0.075960 0.705410 -0.080899
N32   N     N_R   0.581780 0.422390 0.443390 -0.042967
Ni1   Ni    Ni4+2 0.382890 0.500000 0.370170 0.199684
Ni2   Ni    Ni4+2 0.882890 0.000000 0.370170 0.197763
Ni3   Ni    Ni4+2 0.618740 0.500000 0.629830 0.274684
Ni4   Ni    Ni4+2 0.118740 0.000000 0.629830 0.293500
Ni5   Ni    Ni4+2 0.514090 0.500000 0.370170 0.274382
Ni6   Ni    Ni4+2 0.014090 0.000000 0.370170 0.289196
Ni7   Ni    Ni4+2 0.487550 0.500000 0.629830 0.214547
Ni8   Ni    Ni4+2 0.987550 0.000000 0.629830 0.214255

loop_
_geom_bond_atom_site_label_1
_geom_bond_atom_site_label_2
_ccdc_geom_bond_type
C78   C87   A    
C58   C62   D    
C80   N14   A    
C11   H67   S    
C7    C29   S    
C8    C83   A    
N21   N31   A    
C35   C39   S    
C60   H55   S    
C69   N3    A    
C14   C31   S    
C9    H84   S    
C25   H25   S    
C17   H6    S    
C90   N24   A    
C88   Cl5   S    
C75   N9    A    
C42   N30   A    
C15   C32   S    
N26   Ni6   S    
C54   C65   S    
N20   N30   A    
C44   H27   S    
C53   H49   S    
C82   H77   S    
C9    H45   S    
C50   C54   D    
N19   Ni7   S    
C61   H57   S    
C72   H68   S    
C15   H2    S    
C48   H30   S    
C3    C69   A    
C9    C16   S    
C34   C96   A    
C74   H70   S    
C41   C56   A    
C2    C68   A    
N23   N25   A    
C46   H28   S    
N20   Ni8   S    
C53   C64   S    
C76   N10   A    
C22   H22   S    
N3    N11   A    
C10   C17   S    
N2    N10   A    
C55   C62   S    
C85   N19   A    
C92   C96   A    
N18   N28   A    
C18   H9    S    
N13   Ni4   S    
N4    N13   A    
C38   H42   S    
C21   H13   S    
C17   C35   S    
C16   H3    S    
N16   Ni2   S    
C5    C27   S    
N15   Ni1   S    
C90   Cl6   S    
C84   N18   A    
C74   N8    A    
N18   Ni7   S    
C71   N5    A    
C3    C35   S    
C36   H14   S    
C25   H18   S    
C31   C36   S    
C26   H26   S    
C81   N15   A    
C38   H16   S    
C44   H31   S    
C22   C47   S    
N6    N15   A    
C88   N22   A    
C19   H37   S    
C6    C81   A    
C62   H44   S    
C40   N28   A    
C85   H81   S    
N2    Ni5   S    
C12   C94   A    
N5    N14   A    
C40   C45   A    
C81   H76   S    
C52   C78   S    
C35   C48   S    
C77   N11   A    
C25   C44   S    
C4    C70   A    
N11   Ni4   S    
C16   H5    S    
C90   C94   A    
C66   C89   A    
N32   Ni5   S    
C20   C29   S    
N5    Ni7   S    
C26   C46   S    
C25   C29   S    
C14   H7    S    
C57   H52   S    
C6    C28   S    
C79   H74   S    
C10   H85   S    
C31   C44   S    
C66   H62   S    
C64   H47   S    
C75   H71   S    
C24   C48   S    
C80   H75   S    
C20   H38   S    
C13   C30   S    
C84   H80   S    
C76   H72   S    
C43   Cl4   S    
C21   H39   S    
C4    C79   A    
C7    C73   A    
C55   H51   S    
C17   H4    S    
C82   N16   A    
C40   Cl1   S    
C88   C93   A    
N6    Ni7   S    
C23   N23   A    
C19   H10   S    
C6    C72   A    
C46   H32   S    
C34   H34   S    
C77   H73   S    
C92   N26   A    
N3    Ni6   S    
C2    C31   S    
C43   C78   A    
C91   N25   A    
C1    N1    A    
N7    Ni8   S    
C13   H78   S    
C63   H46   S    
C52   H61   S    
C92   Cl8   S    
C32   C89   S    
C37   H15   S    
C18   C38   S    
C45   C49   S    
C68   N2    A    
N26   N27   A    
C47   H33   S    
N14   Ni1   S    
C8    C74   A    
N24   Ni5   S    
C87   N21   A    
C71   H66   S    
C83   H79   S    
C51   H60   S    
C51   C67   S    
C32   C37   S    
C5    C80   A    
C18   H36   S    
C19   C28   S    
C11   C29   S    
C49   H58   S    
C83   N17   A    
N21   Ni8   S    
C19   C39   S    
C60   C96   S    
C66   N32   A    
C59   H54   S    
N4    Ni6   S    
C86   H82   S    
C22   C27   S    
C13   C15   S    
C42   C67   A    
C33   C47   S    
C45   C84   A    
N17   Ni2   S    
C3    C77   A    
C10   H56   S    
C2    C76   A    
C9    C27   S    
C23   H23   S    
C10   C28   S    
N9    Ni3   S    
N29   Ni3   S    
C4    C33   S    
C67   C86   A    
C48   H35   S    
N1    N22   A    
C50   H59   S    
C34   N27   A    
C32   C46   S    
C15   H8    S    
C70   H65   S    
C18   C27   S    
C24   C28   S    
C57   C63   S    
C91   Cl7   S    
C58   H53   S    
C39   H17   S    
C54   H50   S    
C20   H11   S    
C87   H83   S    
C61   C95   S    
C70   N4    A    
C22   H20   S    
N10   Ni3   S    
C86   N20   A    
N8    Ni8   S    
C21   C30   S    
N12   N24   A    
C59   C63   D    
N8    N17   A    
C13   H87   S    
C60   C64   D    
N23   Ni2   S    
C8    C30   S    
C11   H86   S    
C65   H48   S    
C58   C94   S    
C69   H64   S    
N1    Ni1   S    
C5    C71   A    
C16   C33   S    
C79   N13   A    
C42   Cl3   S    
N31   Ni4   S    
C56   C85   A    
C24   H21   S    
C49   C53   D    
C73   N7    A    
N7    N16   A    
C11   C14   S    
C23   C95   A    
C51   C55   D    
C14   H88   S    
C12   N12   A    
N27   Ni2   S    
C73   H69   S    
C50   C56   S    
C52   C57   D    
C75   C89   A    
C72   N6    A    
C20   C36   S    
C68   H63   S    
C61   C65   D    
C7    C82   A    
C21   C37   S    
N28   Ni3   S    
C91   C95   A    
C1    C93   A    
N30   Ni4   S    
C26   H19   S    
C41   N29   A    
C39   H43   S    
C24   H24   S    
C41   Cl2   S    
C33   C38   S    
N25   Ni6   S    
C59   C93   S    
N9    N32   A    
C37   H41   S    
N12   Ni1   S    
C36   H40   S    
N22   Ni5   S    
C47   H29   S    
C43   N31   A    
C1    H1    S    
C12   H12   S    
C26   C30   S    
N19   N29   A    
