data_mof_unit_30069.cif
_audit_creation_date              2012-12-11T17:17:01-0500
_audit_creation_method            fapswitch 2.2
_symmetry_space_group_name_H-M    P1
_symmetry_Int_Tables_number       1
_space_group_crystal_system       triclinic
_cell_length_a                    6.969629
_cell_length_b                    13.408859
_cell_length_c                    14.690144
_cell_angle_alpha                 99.123952
_cell_angle_beta                  89.331239
_cell_angle_gamma                 90.432111
_cell_volume                      1355.3791952

loop_
_atom_site_label
_atom_site_type_symbol
_atom_type_description
_atom_site_fract_x
_atom_site_fract_y
_atom_site_fract_z
_atom_type_partial_charge
O1    O     O_R   0.354890 0.151580 0.148210 -0.539702
O2    O     O_R   0.645110 0.848420 0.851790 -0.539702
O3    O     O_R   0.682370 0.152980 0.336770 -0.531904
O4    O     O_R   0.317630 0.847020 0.663230 -0.531903
O5    O     O_R   0.854980 0.348430 0.351800 -0.534827
O6    O     O_R   0.145020 0.651570 0.648200 -0.534828
C1    C     C_R   0.513173 0.131539 0.366359 0.706903
C2    C     C_R   0.486827 0.868460 0.633640 0.706903
O7    O     O_R   0.684450 0.139580 0.148000 -0.541909
O8    O     O_R   0.315550 0.860420 0.852000 -0.541909
O9    O     O_R   0.857080 0.334940 0.161680 -0.542037
O10   O     O_R   0.142920 0.665060 0.838320 -0.542037
C3    C     C_R   0.515828 0.112938 0.113939 0.726239
C4    C     C_R   0.484172 0.887062 0.886060 0.726239
O11   O     O_R   0.352790 0.165070 0.338330 -0.534040
O12   O     O_R   0.647210 0.834930 0.661670 -0.534039
O13   O     O_3   0.522170 0.314120 0.254710 -0.372520
O14   O     O_3   0.477830 0.685880 0.745290 -0.372520
V1    V     V_3+5 0.796120 0.238110 0.249130 1.420598
V2    V     V_3+5 0.203880 0.761890 0.750870 1.420597
O15   O     O_R   0.186930 0.347040 0.163240 -0.543543
O16   O     O_R   0.813070 0.652960 0.836760 -0.543542
C5    C     C_R   0.019565 0.367466 0.132990 0.667370
C6    C     C_R   0.980435 0.632535 0.867010 0.667369
O17   O     O_R   0.184850 0.360440 0.352010 -0.535413
O18   O     O_R   0.815150 0.639560 0.647990 -0.535412
C7    C     C_R   0.015631 0.386884 0.386194 0.738865
C8    C     C_R   0.984369 0.613116 0.613807 0.738866
V3    V     V_3+5 0.296410 0.261900 0.250880 1.418110
V4    V     V_3+5 0.703590 0.738100 0.749120 1.418112
O19   O     O_3   0.020490 0.185890 0.245290 -0.368951
O20   O     O_3   0.979510 0.814110 0.754710 -0.368950
C9    C     C_1   0.004828 0.466780 0.466371 -0.206129
C10   C     C_1   0.995172 0.533219 0.533630 -0.206130
C11   C     C_3   0.166939 0.551681 0.995911 -0.222913
C12   C     C_3   0.833061 0.448319 0.004088 -0.222913
C13   C     C_3   0.036017 0.553690 0.082284 0.019076
C14   C     C_3   0.963983 0.446310 0.917715 0.019077
H1    H     H_    0.304743 0.593345 0.993970 0.134334
H2    H     H_    0.695258 0.406655 0.006029 0.134333
C15   C     C_3   0.012448 0.437621 0.062962 -0.102565
C16   C     C_3   0.987552 0.562380 0.937038 -0.102566
C17   C     C_3   0.142898 0.435235 0.976816 0.029906
C18   C     C_3   0.857102 0.564765 0.023184 0.029905
C19   C     C_3   0.325253 0.013600 0.472274 0.458629
C20   C     C_3   0.674747 0.986399 0.527725 0.458630
C21   C     C_3   0.423877 0.909843 0.462343 -0.266370
C22   C     C_3   0.576123 0.090156 0.537656 -0.266371
H3    H     H_    0.361182 0.836030 0.431756 0.130771
H4    H     H_    0.638818 0.163969 0.568243 0.130772
C23   C     C_3   0.494623 0.938154 0.562783 -0.131021
C24   C     C_3   0.505377 0.061845 0.437216 -0.131021
C25   C     C_3   0.391240 0.041408 0.572829 -0.185922
C26   C     C_3   0.608760 0.958591 0.427170 -0.185919
H5    H     H_    0.297935 0.073997 0.631574 0.131939
H6    H     H_    0.702063 0.926002 0.368424 0.131939
C27   C     C_1   0.505188 0.033302 0.033549 -0.207248
C28   C     C_1   0.494812 0.966698 0.966450 -0.207248
C29   C     C_R   0.059231 0.626622 0.171193 0.088027
C30   C     C_R   0.096279 0.728906 0.166351 -0.080075
C31   C     C_R   0.077896 0.802405 0.244712 -0.131137
C32   C     C_R   0.024076 0.774525 0.328934 -0.137451
C33   C     C_R   0.988125 0.673301 0.334749 -0.120270
C34   C     C_R   0.004860 0.599536 0.256356 -0.125910
H7    H     H_    0.132884 0.752280 0.101009 0.099991
H8    H     H_    0.103461 0.880991 0.239581 0.097147
H9    H     H_    0.007760 0.831272 0.389561 0.162085
H10   H     H_    0.940876 0.652734 0.399534 0.120355
H11   H     H_    0.964615 0.522983 0.261690 0.093773
C35   C     C_R   0.940773 0.373381 0.828805 0.088023
C36   C     C_R   0.903710 0.271098 0.833643 -0.080081
C37   C     C_R   0.922092 0.197600 0.755282 -0.131135
C38   C     C_R   0.975931 0.225480 0.671063 -0.137450
C39   C     C_R   0.011904 0.326701 0.665251 -0.120267
C40   C     C_R   0.995166 0.400465 0.743645 -0.125907
H12   H     H_    0.867091 0.247724 0.898984 0.099996
H13   H     H_    0.896511 0.119016 0.760410 0.097145
H14   H     H_    0.992246 0.168733 0.610435 0.162083
H15   H     H_    0.059171 0.347267 0.600470 0.120355
H16   H     H_    0.035428 0.477017 0.738315 0.093775
C41   C     C_R   0.293694 0.362356 0.933457 0.074959
C42   C     C_R   0.401895 0.389307 0.859542 -0.138577
C43   C     C_R   0.481859 0.314829 0.793129 -0.082565
C44   C     C_R   0.461356 0.213159 0.801743 -0.095440
C45   C     C_R   0.362742 0.186005 0.877207 -0.133929
C46   C     C_R   0.280380 0.260052 0.943406 -0.121447
H17   H     H_    0.409062 0.467178 0.848395 0.119277
H18   H     H_    0.556206 0.335817 0.733837 0.121711
H19   H     H_    0.520769 0.155300 0.749658 0.098248
H20   H     H_    0.339748 0.107206 0.881164 0.116656
H21   H     H_    0.189773 0.236188 0.996189 0.104252
C47   C     C_R   0.706303 0.637642 0.066544 0.074959
C48   C     C_R   0.598106 0.610689 0.140460 -0.138574
C49   C     C_R   0.518135 0.685166 0.206872 -0.082563
C50   C     C_R   0.538632 0.786837 0.198258 -0.095435
C51   C     C_R   0.637243 0.813992 0.122793 -0.133932
C52   C     C_R   0.719608 0.739946 0.056594 -0.121452
H22   H     H_    0.590945 0.532818 0.151607 0.119279
H23   H     H_    0.443788 0.664178 0.266164 0.121711
H24   H     H_    0.479217 0.844696 0.250342 0.098251
H25   H     H_    0.660232 0.892791 0.118835 0.116655
H26   H     H_    0.810211 0.763811 0.003810 0.104254
O21   O     O_3   0.139501 0.030088 0.443440 -0.619328
H27   H     H_    0.139613 0.006168 0.376123 0.273912
O22   O     O_3   0.860500 0.969911 0.556559 -0.619327
H28   H     H_    0.860389 0.993833 0.623875 0.273912

loop_
_geom_bond_atom_site_label_1
_geom_bond_atom_site_label_2
_ccdc_geom_bond_type
C14   C35   S    
C48   C49   A    
C6    C16   S    
C38   C39   A    
C50   C51   A    
O4    C2    A    
V1    O19   S    
C41   C42   A    
C21   H3    S    
C45   C46   A    
C7    C9    S    
O9    V1    S    
C29   C34   A    
C32   C33   A    
C32   H9    S    
C11   C13   S    
C1    C24   S    
C14   C16   S    
O3    C1    A    
C46   H21   S    
C36   H12   S    
C3    C27   S    
O12   V4    S    
C42   H17   S    
C20   O22   S    
O13   V3    S    
C19   C21   S    
O9    C5    A    
C11   C16   S    
O7    C3    A    
C19   O21   S    
O5    C7    A    
C31   H8    S    
O7    V1    S    
O6    C8    A    
O8    V2    S    
C38   H14   S    
O3    V1    S    
C35   C36   A    
O14   V4    S    
C11   C17   S    
C40   H16   S    
C41   C46   A    
C18   C47   S    
C1    O11   A    
C43   H18   S    
C8    C10   S    
C29   C30   A    
C2    O12   A    
C51   H25   S    
C15   C17   S    
O10   V2    S    
C12   C15   S    
C49   C50   A    
C16   C18   S    
C24   C26   S    
C47   C52   A    
O11   V3    S    
C26   H6    S    
C25   H5    S    
O17   V3    S    
C22   C25   S    
C4    C28   S    
C20   C22   S    
C39   C40   A    
C12   H2    S    
C44   C45   A    
O8    C4    A    
C50   H24   S    
C21   C23   S    
C19   C24   S    
O15   V3    S    
C20   C23   S    
C30   C31   A    
C23   C25   S    
C11   H1    S    
C37   H13   S    
C43   C44   A    
C22   C24   S    
C51   C52   A    
C20   C26   S    
O1    V3    S    
C9    C10   T    
C34   H11   S    
C2    C23   S    
C13   C29   S    
C21   C26   S    
C30   H7    S    
O18   V4    S    
C39   H15   S    
O15   C5    A    
C17   C41   S    
O16   C6    A    
C12   C18   S    
O1    C3    A    
C44   H19   S    
O21   H27   S    
V2    O20   S    
C33   H10   S    
O16   V4    S    
C52   H26   S    
C37   C38   A    
C45   H20   S    
O5    V1    S    
O17   C7    A    
O6    V2    S    
O22   H28   S    
O10   C6    A    
O18   C8    A    
C5    C15   S    
O2    V4    S    
C13   C18   S    
C12   C14   S    
C14   C17   S    
V3    O19   S    
V4    O20   S    
C27   C28   T    
C49   H23   S    
C22   H4    S    
C47   C48   A    
O13   V1    S    
O14   V2    S    
C13   C15   S    
C31   C32   A    
O2    C4    A    
C19   C25   S    
C33   C34   A    
O4    V2    S    
C36   C37   A    
C42   C43   A    
C35   C40   A    
C48   H22   S    
