data_mof_unit_46336.cif
_audit_creation_date              2012-12-10T17:53:18-0500
_audit_creation_method            fapswitch 2.2
_symmetry_space_group_name_H-M    P1
_symmetry_Int_Tables_number       1
_space_group_crystal_system       triclinic
_cell_length_a                    23.421488
_cell_length_b                    10.607365
_cell_length_c                    9.968116
_cell_angle_alpha                 90.996108
_cell_angle_beta                  89.720176
_cell_angle_gamma                 93.402178
_cell_volume                      2471.72483256

loop_
_atom_site_label
_atom_site_type_symbol
_atom_type_description
_atom_site_fract_x
_atom_site_fract_y
_atom_site_fract_z
_atom_type_partial_charge
C1    C     C_R   0.501017 0.260836 0.499271 0.875763
C2    C     C_R   0.963296 0.258494 0.555534 -0.292208
C3    C     C_R   0.023231 0.257218 0.557244 0.490198
C4    C     C_R   0.056603 0.369003 0.526919 -0.076580
C5    C     C_R   0.029272 0.479758 0.494004 -0.099080
C6    C     C_R   0.061807 0.592132 0.464166 0.006772
C7    C     C_R   0.034428 0.701205 0.430047 -0.134541
C8    C     C_R   0.975146 0.699382 0.425216 -0.177970
C9    C     C_R   0.116760 0.374685 0.528295 0.549515
C10   C     C_R   0.121222 0.592826 0.469524 0.513010
C11   C     C_R   0.237694 0.491584 0.382175 -0.120833
C12   C     C_R   0.389458 0.499653 0.500446 0.911538
C13   C     C_R   0.296925 0.496688 0.380804 -0.216413
C14   C     C_R   0.327102 0.497356 0.501787 -0.143828
C15   C     C_R   0.297320 0.495127 0.624364 -0.208944
C16   C     C_R   0.237896 0.492405 0.627159 0.520172
C17   C     C_R   0.207982 0.489221 0.504155 0.172187
C18   C     C_R   0.762233 0.484644 0.614700 -0.154006
C19   C     C_R   0.703240 0.492104 0.617906 -0.214812
C20   C     C_R   0.672626 0.495074 0.497406 -0.032451
C21   C     C_R   0.701704 0.490205 0.373992 -0.215068
C22   C     C_R   0.760587 0.482726 0.371205 -0.101999
C23   C     C_R   0.501384 0.739228 0.501003 0.857067
C24   C     C_R   0.790780 0.480177 0.491387 0.314956
C25   C     C_R   0.603662 0.146351 0.585044 -0.226794
C26   C     C_R   0.651749 0.088451 0.630043 -0.260439
C27   C     C_R   0.652277 0.955574 0.632161 0.542400
C28   C     C_R   0.603144 0.883858 0.591477 -0.236627
C29   C     C_R   0.554033 0.941866 0.546640 0.011282
C30   C     C_R   0.554279 0.073715 0.543488 0.092324
C31   C     C_R   0.504613 0.128731 0.498457 -0.076360
C32   C     C_R   0.455933 0.057099 0.458267 -0.189907
C33   C     C_R   0.456008 0.928367 0.458951 -0.183586
C34   C     C_R   0.610529 0.500229 0.499510 0.824469
C35   C     C_R   0.504312 0.871896 0.503177 -0.061475
C36   C     C_R   0.411439 0.350709 0.128141 0.319054
C37   C     C_R   0.364596 0.301458 0.049283 0.363323
C38   C     C_R   0.369830 0.297886 0.911964 -0.219824
C39   C     C_R   0.417807 0.352966 0.851829 -0.273713
C40   C     C_R   0.458519 0.428175 0.924797 0.112457
C41   C     C_R   0.457116 0.428202 0.069056 0.089674
C42   C     C_R   0.540023 0.568285 0.072292 -0.113483
C43   C     C_R   0.539848 0.568638 0.929673 -0.097246
C44   C     C_R   0.882664 0.585526 0.452826 0.487098
C45   C     C_R   0.876619 0.370493 0.522156 0.534451
C46   C     C_R   0.936271 0.368185 0.523004 -0.053274
C47   C     C_R   0.969256 0.478784 0.490914 -0.020647
C48   C     C_R   0.942246 0.588801 0.455716 0.007721
H1    H     H_    0.937859 0.173175 0.579643 0.181766
H2    H     H_    0.681750 0.495584 0.714229 0.167520
H3    H     H_    0.679093 0.492055 0.279599 0.163673
H4    H     H_    0.782917 0.479710 0.275913 0.141601
H5    H     H_    0.417348 0.100707 0.429852 0.150459
H6    H     H_    0.605463 0.248247 0.584054 0.163625
H7    H     H_    0.687878 0.148441 0.664282 0.151725
H8    H     H_    0.604071 0.782075 0.594892 0.156174
H9    H     H_    0.418013 0.872404 0.427320 0.155647
H10   H     H_    0.572818 0.624301 0.126173 0.144958
H11   H     H_    0.336973 0.249084 0.851129 0.211368
H12   H     H_    0.421357 0.334688 0.747260 0.237716
H13   H     H_    0.572506 0.625130 0.877172 0.148503
H14   H     H_    0.058688 0.788268 0.406764 0.204527
H15   H     H_    0.955233 0.785057 0.398594 0.190342
H16   H     H_    0.214605 0.489992 0.288217 0.177556
H17   H     H_    0.318976 0.499850 0.285100 0.180670
H18   H     H_    0.320080 0.496664 0.718781 0.192357
H19   H     H_    0.785920 0.483726 0.707669 0.141509
N1    N     N_R   0.851420 0.478339 0.488249 -0.354410
N2    N     N_R   0.147107 0.485485 0.501253 -0.381428
N3    N     N_R   0.499460 0.498800 0.142780 -0.090152
N4    N     N_R   0.499440 0.498720 0.857170 -0.100453
O1    O     O_R   0.500000 0.316780 0.614690 -0.643572
O2    O     O_2   0.843951 0.266113 0.554225 -0.590190
O3    O     O_2   0.145103 0.271314 0.556401 -0.445650
O4    O     O_2   0.153165 0.699914 0.443745 -0.525634
O5    O     O_R   0.500000 0.316750 0.385360 -0.534481
O6    O     O_R   0.416160 0.499970 0.614690 -0.646394
O7    O     O_R   0.416150 0.499950 0.385360 -0.556663
O8    O     O_R   0.500000 0.683250 0.614640 -0.608767
O9    O     O_R   0.500000 0.683220 0.385310 -0.613769
O10   O     O_R   0.583850 0.500050 0.614640 -0.630836
O11   O     O_R   0.583840 0.500030 0.385310 -0.624560
O12   O     O_2   0.855984 0.688568 0.415487 -0.584084
Zn1   Zn    Zn3+2 0.500000 0.500020 0.653130 0.949502
Zn2   Zn    Zn3+2 0.500000 0.499980 0.346870 0.996977
O13   O     O_3   0.697366 0.890562 0.681850 -0.657710
C49   C     C_3   0.751382 0.951334 0.654318 0.078887
H20   H     H_    0.760069 0.031232 0.726507 0.161831
H21   H     H_    0.753845 0.985928 0.549241 0.165685
C50   C     C_3   0.797359 0.856847 0.672524 -0.302535
H22   H     H_    0.796198 0.823067 0.777506 0.219603
H23   H     H_    0.788302 0.774130 0.604490 0.264632
C51   C     C_3   0.856931 0.916076 0.642139 -0.859983
H24   H     H_    0.859439 0.948477 0.536778 0.286940
H25   H     H_    0.889236 0.844987 0.656235 0.263342
H26   H     H_    0.867110 0.997703 0.710990 0.259733
O14   O     O_3   0.049457 0.148252 0.588933 -0.684225
H27   H     H_    0.019911 0.079591 0.606604 0.325617
O15   O     O_3   0.415634 0.307835 0.255437 -0.729277
H28   H     H_    0.393265 0.226261 0.264383 0.322208
O16   O     O_3   0.315178 0.246294 0.104122 -0.731481
H29   H     H_    0.310602 0.280145 0.196525 0.339409
O17   O     O_3   0.211172 0.494015 0.750959 -0.735040
H30   H     H_    0.169665 0.502255 0.739144 0.341913

loop_
_geom_bond_atom_site_label_1
_geom_bond_atom_site_label_2
_ccdc_geom_bond_type
C49   H20   S    
C17   N2    S    
C51   H24   S    
C40   N4    A    
C19   C20   A    
C1    C31   S    
C44   O12   S    
C26   H7    S    
C42   H10   S    
O14   H27   S    
C28   H8    S    
C7    C8    A    
C13   H17   S    
C45   C46   A    
C2    C46   A    
C5    C47   A    
C26   C27   A    
O9    Zn2   S    
C18   C24   A    
C36   C37   A    
C37   C38   A    
C9    N2    A    
C30   C31   A    
C15   C16   A    
C42   N3    A    
C45   O2    S    
C18   C19   A    
C11   C17   A    
C47   C48   A    
C16   C17   A    
C12   O7    A    
C43   N4    A    
C34   O10   A    
C23   O9    A    
C20   C34   S    
C51   H25   S    
C21   C22   A    
O8    Zn1   S    
C36   C41   A    
C38   C39   A    
C1    O1    A    
O16   H29   S    
C25   H6    S    
C11   H16   S    
C39   C40   A    
O13   C49   S    
O6    Zn1   S    
C18   H19   S    
C15   H18   S    
C27   O13   S    
C8    C48   A    
C7    H14   S    
C29   C30   A    
C2    H1    S    
C10   O4    S    
C3    O14   S    
C16   O17   S    
C50   H23   S    
C31   C32   A    
C12   O6    A    
C45   N1    A    
O1    Zn1   S    
O7    Zn2   S    
C40   C41   A    
C12   C14   S    
C51   H26   S    
C23   C35   S    
C49   H21   S    
C22   C24   A    
C44   N1    A    
C42   C43   A    
C3    C4    A    
C32   H5    S    
C21   H3    S    
O10   Zn1   S    
C43   H13   S    
C50   C51   S    
C22   H4    S    
N4    Zn1   S    
C25   C30   A    
C46   C47   A    
C28   C29   A    
C33   H9    S    
C1    O5    A    
C4    C5    A    
C6    C10   A    
C6    C7    A    
O11   Zn2   S    
C29   C35   A    
O15   H28   S    
C32   C33   A    
C2    C3    A    
C25   C26   A    
C37   O16   S    
C11   C13   A    
C19   H2    S    
C50   H22   S    
C5    C6    A    
C39   H12   S    
C33   C35   A    
C36   O15   S    
C24   N1    S    
C8    H15   S    
C38   H11   S    
C10   N2    A    
C20   C21   A    
C9    O3    S    
C49   C50   S    
O17   H30   S    
C14   C15   A    
C34   O11   A    
C23   O8    A    
C4    C9    A    
C13   C14   A    
N3    Zn2   S    
O5    Zn2   S    
C44   C48   A    
C41   N3    A    
C27   C28   A    
