data_mof_unit_13318.cif
_audit_creation_date              2013-03-05T15:43:04-0500
_audit_creation_method            fapswitch 2.2
_symmetry_space_group_name_H-M    P1
_symmetry_Int_Tables_number       1
_space_group_crystal_system       triclinic
_cell_length_a                    9.719655
_cell_length_b                    10.930459
_cell_length_c                    15.536255
_cell_angle_alpha                 89.628547
_cell_angle_beta                  73.513868
_cell_angle_gamma                 90.558746
_cell_volume                      1582.56958558

loop_
_atom_site_label
_atom_site_type_symbol
_atom_site_description
_atom_site_fract_x
_atom_site_fract_y
_atom_site_fract_z
_atom_type_partial_charge
O1    O     O_R   0.117050 0.321960 0.499980 -0.574023
O2    O     O_R   0.882890 0.321920 0.500020 -0.532253
C1    C     C_R   0.999251 0.265419 0.500752 0.871580
O3    O     O_R   0.052910 0.500040 0.629810 -0.574724
O4    O     O_R   0.818750 0.499990 0.629840 -0.542177
C2    C     C_R   0.916660 0.500708 0.672143 0.828948
Cu1   Cu    Cu3+1 0.138640 0.500020 0.499980 0.969466
Cu2   Cu    Cu3+1 0.861360 0.499980 0.500020 0.998411
O5    O     O_R   0.117110 0.678080 0.499980 -0.575240
O6    O     O_R   0.882950 0.678040 0.500020 -0.583749
O7    O     O_R   0.181250 0.500010 0.370160 -0.582883
O8    O     O_R   0.947090 0.499960 0.370190 -0.585984
C3    C     C_R   0.001426 0.734643 0.498257 0.848986
C4    C     C_R   0.083423 0.497652 0.327920 0.784478
C5    C     C_R   0.870733 0.500712 0.770756 -0.075851
C6    C     C_R   0.130574 0.480795 0.230247 -0.042314
C7    C     C_R   0.921042 0.527785 0.913326 -0.151613
C8    C     C_R   0.968362 0.524197 0.819958 -0.107756
C9    C     C_R   0.726201 0.478704 0.815940 -0.208776
C10   C     C_R   0.676999 0.476102 0.910127 0.110837
C11   C     C_R   0.776094 0.505334 0.958649 0.154935
C12   C     C_R   0.530997 0.450167 0.957005 0.002690
C13   C     C_R   0.482105 0.470230 0.050792 0.072238
C14   C     C_R   0.584871 0.497518 0.097109 -0.184875
C15   C     C_R   0.729204 0.513213 0.051731 -0.220287
C16   C     C_R   0.434260 0.400402 0.913450 -0.268095
C17   C     C_R   0.289807 0.379184 0.958464 0.299930
C18   C     C_R   0.236234 0.414672 0.048793 0.033711
C19   C     C_R   0.332612 0.460132 0.095335 0.049031
C20   C     C_R   0.088122 0.407396 0.093583 -0.152887
C21   C     C_R   0.036203 0.438679 0.183663 -0.208351
C22   C     C_R   0.275919 0.496082 0.185051 -0.204355
H1    H     H_    0.804093 0.534233 0.089778 0.140063
H2    H     H_    0.342682 0.537565 0.221699 0.144243
H3    H     H_    0.922767 0.427321 0.217244 0.157854
H4    H     H_    0.997550 0.549583 0.950035 0.138223
H5    H     H_    0.080423 0.542865 0.786275 0.181123
H6    H     H_    0.652416 0.468415 0.776255 0.188204
H7    H     H_    0.558259 0.503463 0.169129 0.138773
H8    H     H_    0.470570 0.369280 0.845102 0.211082
H9    H     H_    0.010917 0.377272 0.059848 0.185145
C23   C     C_2   0.891485 0.932321 0.492319 -0.139428
C24   C     C_2   0.007315 0.866822 0.492435 -0.316494
H10   H     H_    0.790607 0.886973 0.494439 0.181374
H11   H     H_    0.111223 0.908978 0.485394 0.157085
C25   C     C_2   0.894740 0.066235 0.487029 -0.103006
C26   C     C_2   0.998537 0.133369 0.505460 -0.297137
H12   H     H_    0.807380 0.110247 0.468697 0.208317
H13   H     H_    0.085495 0.092633 0.525919 0.160453
C27   C     C_2   0.398960 0.425001 0.547938 -0.097999
N1    N     N_2   0.346430 0.498660 0.500980 -0.311970
H14   H     H_    0.325968 0.362093 0.593600 0.209397
H15   H     H_    0.416598 0.551422 0.452772 0.186557
C28   C     C_2   0.556958 0.415231 0.539561 0.400592
N2    N     N_2   0.652550 0.498630 0.501000 -0.344187
H16   H     H_    0.616357 0.577854 0.479401 0.160598
N3    N     N_R   0.598722 0.306700 0.577242 0.151813
O9    O     O_R   0.557902 0.201023 0.554527 -0.392752
O10   O     O_R   0.636468 0.313467 0.650862 -0.351708
N4    N     N_R   0.200758 0.318578 0.911534 0.116370
O11   O     O_R   0.120250 0.225866 0.948722 -0.344744
O12   O     O_R   0.221806 0.338977 0.826117 -0.366891

loop_
_geom_bond_atom_site_label_1
_geom_bond_atom_site_label_2
_geom_bond_distance
_ccdc_geom_bond_type
O1    C1    1.292807 A    
O4    Cu2   1.940460 S    
C27   H14   1.085318 S    
N2    H16   1.027329 S    
C20   H9    1.080223 S    
C22   H2    1.076194 S    
C9    H6    1.075827 S    
O2    C1    1.296732 A    
C6    C22   1.395550 A    
C28   N2    1.309060 D    
C5    C8    1.400060 A    
C9    C10   1.404576 A    
Cu2   O8    1.951662 S    
C13   C14   1.417536 A    
C18   C20   1.411198 A    
C27   N1    1.285684 D    
C16   C17   1.395866 A    
Cu1   N1    2.024310 S    
Cu1   Cu2   2.694885 S    
C26   H13   1.082426 S    
C25   C26   1.338102 D    
C14   C15   1.388125 A    
C6    C21   1.396406 A    
Cu1   O7    1.940460 S    
C24   H11   1.082520 S    
C16   H8    1.078035 S    
N3    O9    1.300784 A    
C27   C28   1.508842 S    
C23   H10   1.086341 S    
O3    Cu1   1.951659 S    
O4    C2    1.300985 A    
C13   C19   1.423919 A    
Cu2   N2    2.025202 S    
C1    C26   1.444596 S    
C18   C19   1.423835 A    
C7    H4    1.083524 S    
C8    H5    1.082866 S    
C10   C12   1.423898 A    
C7    C8    1.392737 A    
C19   C22   1.405804 A    
C21   H3    1.083170 S    
C17   N4    1.439729 S    
N4    O12   1.301484 A    
C20   C21   1.392447 A    
O7    C4    1.299746 A    
C4    C6    1.468759 S    
N3    O10   1.298861 A    
O3    C2    1.300883 A    
C23   C24   1.340486 D    
C12   C16   1.412012 A    
C25   H12   1.084888 S    
O8    C4    1.301838 A    
C3    C24   1.446580 S    
C14   H7    1.077089 S    
C10   C11   1.416790 A    
Cu2   O6    1.955521 S    
C23   C25   1.465041 S    
C17   C18   1.409717 A    
Cu1   O5    1.959522 S    
C11   C15   1.390969 A    
C12   C13   1.417820 A    
O5    C3    1.295257 A    
O1    Cu1   1.955522 S    
C2    C5    1.469140 S    
C5    C9    1.398437 A    
O6    C3    1.295214 A    
O2    Cu2   1.959523 S    
C15   H1    1.083854 S    
N4    O11   1.301320 A    
N1    H15   1.027379 S    
C28   N3    1.431803 S    
C7    C11   1.403155 A    
