data_mof_unit_12973.cif
_audit_creation_date              2012-10-26T21:20:33-0400
_audit_creation_method            fapswitch 2.2
_symmetry_space_group_name_H-M    P1
_symmetry_Int_Tables_number       1
_space_group_crystal_system       triclinic
_cell_length_a                    15.113719
_cell_length_b                    13.896868
_cell_length_c                    14.34079
_cell_angle_alpha                 90.031937
_cell_angle_beta                  90.635812
_cell_angle_gamma                 90.179939
_cell_volume                      3011.84344273

loop_
_atom_site_label
_atom_site_type_symbol
_atom_type_description
_atom_site_fract_x
_atom_site_fract_y
_atom_site_fract_z
_atom_type_partial_charge
C1    C     C_R   0.329834 0.499760 0.499782 0.540946
C2    C     C_R   0.950966 0.496370 0.495864 0.070005
C3    C     C_R   0.499806 0.499988 0.331013 0.534413
C4    C     C_R   0.500250 0.500033 0.668987 0.532727
C5    C     C_R   0.546308 0.108197 0.568604 -0.150498
C6    C     C_R   0.433868 0.891949 0.453306 -0.150854
C7    C     C_R   0.453471 0.107580 0.432109 -0.149886
C8    C     C_R   0.565503 0.892427 0.547759 -0.147525
C9    C     C_R   0.549611 0.209863 0.564791 0.379636
C10   C     C_R   0.437526 0.790222 0.449039 0.383692
C11   C     C_R   0.450567 0.209220 0.435238 0.378012
C12   C     C_R   0.669984 0.500044 0.500048 0.538089
C13   C     C_R   0.562429 0.790771 0.550891 0.383609
C14   C     C_1   0.499793 0.500006 0.228725 -0.045849
C15   C     C_1   0.500412 0.500124 0.771276 -0.048297
C16   C     C_1   0.499888 0.500101 0.143327 -0.054608
C17   C     C_1   0.500436 0.500208 0.856674 -0.054823
C18   C     C_1   0.500107 0.500205 0.042703 -0.014617
C19   C     C_1   0.500298 0.500242 0.957298 -0.014304
C20   C     C_R   0.499733 0.054697 0.500542 -0.049294
C21   C     C_R   0.499640 0.945363 0.500650 -0.049780
C22   C     C_R   0.094330 0.576487 0.460346 0.241842
C23   C     C_R   0.186390 0.578785 0.465956 -0.138975
C24   C     C_R   0.902378 0.427651 0.444242 0.255395
C25   C     C_R   0.906567 0.567408 0.548063 0.252808
C26   C     C_R   0.094957 0.415398 0.528179 0.242449
C27   C     C_3   0.688271 0.238417 0.629554 0.010610
C28   C     C_3   0.717592 0.201413 0.725388 -0.274081
C29   C     C_3   0.816794 0.181748 0.728491 -0.488562
C30   C     C_3   0.365993 0.767563 0.306138 -0.002559
C31   C     C_3   0.272025 0.803753 0.286642 -0.274293
C32   C     C_3   0.259804 0.833677 0.185013 -0.490003
C33   C     C_3   0.312067 0.237995 0.371146 0.011716
C34   C     C_R   0.810053 0.427337 0.449444 -0.158499
C35   C     C_3   0.281602 0.196375 0.277396 -0.275688
C36   C     C_3   0.182235 0.176902 0.276420 -0.487074
C37   C     C_3   0.627849 0.762010 0.694956 0.000437
C38   C     C_3   0.717725 0.804732 0.723012 -0.276125
C39   C     C_3   0.726684 0.815276 0.828592 -0.490425
C40   C     C_3   0.038588 0.641765 0.327489 0.004241
C41   C     C_3   0.000031 0.733434 0.284961 -0.246620
C42   C     C_3   0.988366 0.723947 0.179510 -0.497026
C43   C     C_3   0.925444 0.367700 0.296117 0.004716
C44   C     C_3   0.879474 0.276301 0.260144 -0.244564
C45   C     C_R   0.814470 0.570527 0.545852 -0.128158
C46   C     C_3   0.940814 0.189307 0.262970 -0.406393
C47   C     C_3   0.983317 0.601550 0.683145 0.012258
C48   C     C_3   0.919557 0.628557 0.761050 -0.273784
C49   C     C_3   0.952161 0.591490 0.855435 -0.487895
C50   C     C_3   0.055453 0.321935 0.653159 -0.003006
C51   C     C_3   0.060471 0.214764 0.676162 -0.248188
C52   C     C_3   0.062579 0.197781 0.781299 -0.492365
C53   C     C_R   0.187355 0.416602 0.527747 -0.163139
C54   C     C_R   0.233210 0.498720 0.498499 -0.090799
C55   C     C_R   0.766232 0.499533 0.498471 -0.090591
C56   C     C_R   0.048104 0.495560 0.493785 0.073363
Cu1   Cu    Cu3+1 0.500000 0.596430 0.500000 1.028064
Cu2   Cu    Cu3+1 0.500000 0.403570 0.500000 1.025678
H1    H     H_    0.580116 0.072448 0.625422 0.100138
H2    H     H_    0.707170 0.185529 0.574587 0.105697
H3    H     H_    0.701547 0.255939 0.779329 0.175951
H4    H     H_    0.681418 0.133968 0.741935 0.153293
H5    H     H_    0.834234 0.126129 0.676212 0.151113
H6    H     H_    0.836110 0.155283 0.798835 0.143332
H7    H     H_    0.854220 0.248873 0.713918 0.149595
H8    H     H_    0.377792 0.703289 0.261896 0.155575
H9    H     H_    0.415435 0.822798 0.284352 0.105794
H10   H     H_    0.223884 0.745769 0.302655 0.168796
H11   H     H_    0.257513 0.866255 0.332194 0.159824
H12   H     H_    0.379064 0.927999 0.419676 0.099972
H13   H     H_    0.305745 0.893488 0.167833 0.146332
H14   H     H_    0.190805 0.858546 0.173330 0.145105
H15   H     H_    0.272430 0.771733 0.138063 0.146271
H16   H     H_    0.276030 0.306378 0.382647 0.168444
H17   H     H_    0.292601 0.188484 0.428851 0.105185
H18   H     H_    0.297473 0.248169 0.220898 0.175494
H19   H     H_    0.316992 0.128081 0.263344 0.152191
H20   H     H_    0.164997 0.123592 0.331038 0.154184
H21   H     H_    0.161969 0.147479 0.207400 0.137900
H22   H     H_    0.145402 0.244677 0.288978 0.164728
H23   H     H_    0.419772 0.071315 0.375400 0.100668
H24   H     H_    0.618374 0.693397 0.733379 0.157904
H25   H     H_    0.573757 0.811146 0.717541 0.105444
H26   H     H_    0.771215 0.757282 0.697634 0.176771
H27   H     H_    0.726189 0.876478 0.690257 0.153540
H28   H     H_    0.674257 0.863381 0.855543 0.148212
H29   H     H_    0.792273 0.846980 0.846336 0.144836
H30   H     H_    0.721495 0.743799 0.862800 0.146850
H31   H     H_    0.992026 0.581034 0.313510 0.125154
H32   H     H_    0.102978 0.626484 0.293251 0.112305
H33   H     H_    0.934736 0.748455 0.316717 0.182113
H34   H     H_    0.620146 0.928719 0.581797 0.101554
H35   H     H_    0.045042 0.794999 0.300350 0.169165
H36   H     H_    0.053308 0.711185 0.146195 0.144002
H37   H     H_    0.959864 0.791425 0.150854 0.144600
H38   H     H_    0.942817 0.663404 0.162413 0.142562
H39   H     H_    0.988255 0.378217 0.257815 0.132340
H40   H     H_    0.883270 0.431092 0.278135 0.083142
H41   H     H_    0.820051 0.260781 0.302443 0.157795
H42   H     H_    0.857228 0.288104 0.186917 0.108996
H43   H     H_    0.997139 0.200744 0.215206 0.130026
H44   H     H_    0.903888 0.124236 0.239715 0.122772
H45   H     H_    0.221045 0.642309 0.442275 0.181361
H46   H     H_    0.966280 0.176873 0.334901 0.202623
H47   H     H_    0.048660 0.635262 0.698299 0.157537
H48   H     H_    0.994554 0.522366 0.683063 0.097095
H49   H     H_    0.913499 0.708141 0.764433 0.170067
H50   H     H_    0.853162 0.597299 0.746039 0.152332
H51   H     H_    0.957167 0.511750 0.854321 0.139942
H52   H     H_    0.904745 0.612616 0.910337 0.145274
H53   H     H_    0.017981 0.622851 0.872915 0.144674
H54   H     H_    0.994295 0.352050 0.683857 0.125182
H55   H     H_    0.113569 0.358652 0.686525 0.109221
H56   H     H_    0.772375 0.372355 0.413058 0.129444
H57   H     H_    0.002211 0.177048 0.645232 0.177642
H58   H     H_    0.121248 0.183999 0.645131 0.165820
H59   H     H_    0.122368 0.231750 0.812993 0.146946
H60   H     H_    0.064495 0.119286 0.795537 0.147726
H61   H     H_    0.002615 0.228331 0.814020 0.140692
H62   H     H_    0.780668 0.626605 0.583682 0.168968
H63   H     H_    0.222955 0.353579 0.551768 0.135701
H64   H     H_    0.725421 0.305656 0.614575 0.166977
N1    N     N_R   0.500000 0.258690 0.500000 -0.199137
N2    N     N_R   0.500000 0.741310 0.500000 -0.195093
O1    O     O_R   0.371460 0.581430 0.500010 -0.450176
O2    O     O_3   0.373423 0.738365 0.400604 -0.544784
O3    O     O_3   0.403660 0.259884 0.368031 -0.537142
O4    O     O_3   0.627340 0.740049 0.598425 -0.543873
O5    O     O_3   0.049831 0.655159 0.424519 -0.532803
O6    O     O_3   0.946102 0.358577 0.392455 -0.526878
O7    O     O_3   0.952518 0.638167 0.596597 -0.533814
O8    O     O_3   0.050509 0.332942 0.555172 -0.535272
O9    O     O_R   0.628540 0.418570 0.499990 -0.495522
O10   O     O_R   0.628540 0.581430 0.499990 -0.447833
O11   O     O_R   0.371460 0.418570 0.500010 -0.496842
O12   O     O_R   0.500000 0.581450 0.376050 -0.476030
O13   O     O_R   0.500000 0.418550 0.623950 -0.435535
O14   O     O_R   0.500000 0.581450 0.623950 -0.481978
O15   O     O_R   0.500000 0.418550 0.376050 -0.437693
O16   O     O_3   0.596956 0.261330 0.631393 -0.536045

loop_
_geom_bond_atom_site_label_1
_geom_bond_atom_site_label_2
_ccdc_geom_bond_type
Cu2   O15   S    
C40   O5    S    
C30   O2    S    
C8    C13   A    
C41   C42   S    
C35   C36   S    
C43   H40   S    
C39   H29   S    
C43   C44   S    
C29   H5    S    
C32   H14   S    
C5    C20   A    
C48   H50   S    
C53   C54   A    
C7    C11   A    
C46   H44   S    
Cu2   N1    S    
C42   H38   S    
C28   C29   S    
C1    O1    A    
C18   C19   T    
C10   N2    A    
C27   H2    S    
Cu1   O1    S    
C30   C31   S    
C9    O16   S    
C48   H49   S    
C33   O3    S    
C15   C17   T    
C3    O12   A    
C17   C19   S    
C4    O13   A    
C13   O4    S    
C33   H17   S    
C23   H45   S    
C31   C32   S    
C47   H47   S    
Cu1   O12   S    
C8    H34   S    
C40   H31   S    
C30   H9    S    
C49   H53   S    
C37   O4    S    
C28   H3    S    
C29   H6    S    
C34   C55   A    
C12   O10   A    
C39   H30   S    
C27   H64   S    
C44   C46   S    
C8    C21   A    
C32   H13   S    
C7    H23   S    
Cu2   O9    S    
C31   H10   S    
C46   H43   S    
C41   H35   S    
C35   H18   S    
C5    H1    S    
C38   H27   S    
C51   C52   S    
C36   H22   S    
C32   H15   S    
C13   N2    A    
C22   C56   A    
C6    C21   A    
C46   H46   S    
C35   H19   S    
C51   H57   S    
C42   H37   S    
C47   O7    S    
C53   H63   S    
C11   O3    S    
C1    C54   S    
C5    C9    A    
C37   C38   S    
C47   C48   S    
C47   H48   S    
C50   H54   S    
C50   C51   S    
C30   H8    S    
C3    C14   S    
C50   O8    S    
C29   H7    S    
C9    N1    A    
C45   H62   S    
C48   C49   S    
C41   H33   S    
C12   O9    A    
C22   O5    S    
C2    C24   A    
C14   C16   T    
Cu1   O10   S    
C3    O15   A    
C25   O7    S    
C26   C53   A    
C25   C45   A    
C26   O8    S    
Cu2   O13   S    
C23   C54   A    
C49   H51   S    
C6    H12   S    
C40   C41   S    
C38   H26   S    
C42   H36   S    
C44   H41   S    
C43   O6    S    
C11   N1    A    
C43   H39   S    
C36   H21   S    
C26   C56   A    
C6    C10   A    
Cu2   O11   S    
C34   H56   S    
C51   H58   S    
C50   H55   S    
C4    C15   S    
C2    C56   S    
C52   H59   S    
Cu1   N2    S    
C44   H42   S    
Cu1   Cu2   S    
C38   C39   S    
C33   C35   S    
Cu1   O14   S    
C2    C25   A    
C37   H24   S    
C24   C34   A    
C12   C55   S    
C4    O14   A    
C52   H61   S    
C24   O6    S    
C33   H16   S    
C31   H11   S    
C27   O16   S    
C20   C21   S    
C45   C55   A    
C16   C18   S    
C7    C20   A    
C1    O11   A    
C27   C28   S    
C22   C23   A    
C37   H25   S    
C36   H20   S    
C39   H28   S    
C40   H32   S    
C10   O2    S    
C28   H4    S    
C49   H52   S    
C52   H60   S    
