data_mof_unit_25008.cif
_audit_creation_date              2012-12-11T15:52:17-0500
_audit_creation_method            fapswitch 2.2
_symmetry_space_group_name_H-M    P1
_symmetry_Int_Tables_number       1
_space_group_crystal_system       triclinic
_cell_length_a                    11.761053
_cell_length_b                    11.773265
_cell_length_c                    18.756083
_cell_angle_alpha                 89.209559
_cell_angle_beta                  90.393169
_cell_angle_gamma                 119.415587
_cell_volume                      2262.04946962

loop_
_atom_site_label
_atom_site_type_symbol
_atom_type_description
_atom_site_fract_x
_atom_site_fract_y
_atom_site_fract_z
_atom_type_partial_charge
C1    C     C_R   0.518789 0.453747 0.148190 0.531447
C2    C     C_R   0.550339 0.073267 0.146050 0.565267
C3    C     C_R   0.932487 0.479905 0.147398 0.562046
C4    C     C_R   0.452045 0.522886 0.853253 0.530679
C5    C     C_R   0.068557 0.546370 0.852791 0.521724
C6    C     C_R   0.477166 0.930302 0.852451 0.541239
C7    C     C_3   0.753392 0.116187 0.567622 -0.121000
C8    C     C_3   0.864686 0.606899 0.579337 -0.116914
C9    C     C_3   0.372482 0.250076 0.573955 -0.110656
C10   C     C_3   0.842010 0.613789 0.498594 -0.115355
C11   C     C_3   0.773118 0.137978 0.485604 -0.111867
C12   C     C_3   0.389693 0.217200 0.495960 -0.122435
C13   C     C_R   0.542860 0.422285 0.359240 0.545480
C14   C     C_R   0.576513 0.118371 0.359237 0.543298
C15   C     C_R   0.902681 0.465166 0.360081 0.529403
C16   C     C_R   0.452933 0.523758 0.644929 0.504061
C17   C     C_R   0.064598 0.544507 0.649496 0.513159
C18   C     C_R   0.478365 0.935706 0.646678 0.508009
C19   C     C_R   0.496102 0.988249 0.922577 -0.033663
C20   C     C_R   0.008353 0.508511 0.923828 -0.041847
C21   C     C_R   0.486460 0.503799 0.925841 -0.042755
C22   C     C_R   0.984931 0.506268 0.074290 -0.006106
C23   C     C_R   0.531723 0.036986 0.070763 -0.018959
C24   C     C_R   0.486226 0.481544 0.076370 -0.011178
C25   C     C_R   0.390637 0.947195 0.969241 -0.062974
C26   C     C_R   0.027699 0.421687 0.967216 -0.024565
C27   C     C_R   0.563818 0.611525 0.968916 -0.061100
C28   C     C_R   0.011090 0.417239 0.040838 0.007087
C29   C     C_R   0.408393 0.970311 0.041096 -0.101848
C30   C     C_R   0.566189 0.599457 0.042629 -0.084196
C31   C     C_R   0.640702 0.091063 0.023466 0.260858
C32   C     C_R   0.969242 0.597676 0.031151 0.250668
C33   C     C_R   0.399810 0.374153 0.033706 0.267249
C34   C     C_R   0.962849 0.585846 0.956735 0.243409
C35   C     C_R   0.621782 0.071284 0.949289 0.244765
C36   C     C_R   0.413503 0.381282 0.959446 0.245805
C37   C     C_3   0.269827 0.819858 0.981032 -0.210552
C38   C     C_3   0.145308 0.405713 0.973455 -0.210652
C39   C     C_3   0.566984 0.739332 0.973186 -0.225324
C40   C     C_3   0.128395 0.402686 0.053416 -0.253331
C41   C     C_3   0.291296 0.845345 0.060826 -0.260532
C42   C     C_3   0.565961 0.724354 0.053505 -0.283799
C43   C     C_R   0.496029 0.000270 0.575451 -0.023112
C44   C     C_R   0.010970 0.502640 0.580268 -0.004779
C45   C     C_R   0.496961 0.504773 0.573964 0.000356
C46   C     C_R   0.942765 0.475943 0.434709 -0.013331
C47   C     C_R   0.551207 0.069001 0.430004 0.014381
C48   C     C_R   0.522750 0.449500 0.429979 0.014243
C49   C     C_R   0.619054 0.094700 0.553127 -0.016928
C50   C     C_R   0.907758 0.514832 0.557579 -0.015093
C51   C     C_R   0.466395 0.383089 0.552264 -0.005485
C52   C     C_R   0.879498 0.510553 0.486573 -0.033633
C53   C     C_R   0.643884 0.128604 0.481953 -0.053645
C54   C     C_R   0.489023 0.357146 0.484678 -0.053130
C55   C     C_R   0.434680 0.961509 0.447019 -0.006239
C56   C     C_R   0.027120 0.431429 0.461301 -0.008152
C57   C     C_R   0.550590 0.575510 0.446664 -0.006232
C58   C     C_R   0.077154 0.468437 0.530679 0.001490
C59   C     C_R   0.399434 0.945056 0.520207 -0.018287
C60   C     C_R   0.562740 0.604721 0.521302 -0.025665
Cr1   Cr    Cr6+3 0.769160 0.541570 0.250690 0.959068
Cr2   Cr    Cr6+3 0.458430 0.227590 0.250690 0.957101
Cr3   Cr    Cr6+3 0.772410 0.230840 0.250690 0.976424
Cr4   Cr    Cr6+3 0.541570 0.769160 0.749310 0.974642
Cr5   Cr    Cr6+3 0.227590 0.458430 0.749310 0.979069
Cr6   Cr    Cr6+3 0.230840 0.772410 0.749310 0.982379
H1    H     H_    0.278691 0.734846 0.963527 0.116339
H2    H     H_    0.235539 0.493169 0.954438 0.134873
H3    H     H_    0.476782 0.734846 0.951817 0.139501
H4    H     H_    0.101495 0.307326 0.078816 0.187268
H5    H     H_    0.216967 0.862646 0.086932 0.189527
H6    H     H_    0.656506 0.796332 0.080454 0.124775
H7    H     H_    0.183452 0.824238 0.960389 0.214860
H8    H     H_    0.128079 0.311279 0.951672 0.201336
H9    H     H_    0.659757 0.820617 0.952008 0.164927
H10   H     H_    0.208829 0.488227 0.080504 0.126818
H11   H     H_    0.315394 0.776884 0.089673 0.123411
H12   H     H_    0.474485 0.709628 0.078787 0.131188
H13   H     H_    0.775977 0.040481 0.586857 0.146251
H14   H     H_    0.936837 0.701629 0.602112 0.159624
H15   H     H_    0.274604 0.236592 0.586764 0.149525
H16   H     H_    0.742803 0.574324 0.483864 0.166805
H17   H     H_    0.834766 0.234565 0.468659 0.174183
H18   H     H_    0.436664 0.160402 0.493257 0.166659
O1    O     O_R   0.911480 0.572650 0.170990 -0.482007
O2    O     O_R   0.427350 0.338830 0.170990 -0.476528
O3    O     O_R   0.661170 0.088520 0.170990 -0.481766
O4    O     O_R   0.572650 0.911480 0.829010 -0.480121
O5    O     O_R   0.338830 0.427350 0.829010 -0.466479
O6    O     O_R   0.088520 0.661170 0.829010 -0.469188
O7    O     O_R   0.640340 0.528970 0.175680 -0.526039
O8    O     O_R   0.471030 0.111370 0.175680 -0.527571
O9    O     O_R   0.888630 0.359660 0.175680 -0.477102
O10   O     O_R   0.528970 0.640340 0.824320 -0.519621
O11   O     O_R   0.111370 0.471030 0.824320 -0.512843
O12   O     O_R   0.359660 0.888630 0.824320 -0.516628
O13   O     O_R   0.909980 0.572450 0.331530 -0.536221
O14   O     O_R   0.427550 0.337530 0.331530 -0.550458
O15   O     O_R   0.662470 0.090020 0.331530 -0.548713
O16   O     O_R   0.572450 0.909980 0.668470 -0.543515
O17   O     O_R   0.337530 0.427550 0.668470 -0.553730
O18   O     O_R   0.090020 0.662470 0.668470 -0.552751
O19   O     O_R   0.638950 0.528780 0.324500 -0.551040
O20   O     O_R   0.471220 0.110170 0.324500 -0.535936
O21   O     O_R   0.889830 0.361050 0.324500 -0.552273
O22   O     O_R   0.528780 0.638950 0.675500 -0.527223
O23   O     O_R   0.110170 0.471220 0.675500 -0.535608
O24   O     O_R   0.361050 0.889830 0.675500 -0.525516
O25   O     O_3   0.666667 0.333333 0.250560 -0.323901
O26   O     O_3   0.333333 0.666667 0.749440 -0.301384
O27   O     O_3   0.765664 0.167619 0.049552 -0.528834
C61   C     C_3   0.838356 0.101794 0.042607 -0.046217
H19   H     H_    0.904079 0.140908 0.995807 0.164383
H20   H     H_    0.778415 0.994679 0.037122 0.077879
H21   H     H_    0.898757 0.119140 0.091123 0.123331
O28   O     O_3   0.982936 0.710928 0.061054 -0.570129
C62   C     C_3   0.864094 0.711949 0.058651 -0.047961
H22   H     H_    0.779662 0.611828 0.062107 0.144484
H23   H     H_    0.858545 0.763747 0.010044 0.157212
H24   H     H_    0.859406 0.766479 0.105262 0.128608
O29   O     O_3   0.288856 0.271557 0.064103 -0.568246
C63   C     C_3   0.292174 0.154198 0.060026 -0.043416
H25   H     H_    0.393670 0.171611 0.059422 0.136489
H26   H     H_    0.236876 0.097863 0.012842 0.165632
H27   H     H_    0.243264 0.094006 0.107953 0.138033
O30   O     O_3   0.930893 0.665846 0.917046 -0.542618
C64   C     C_3   0.806547 0.586721 0.887386 -0.129181
H28   H     H_    0.733178 0.531463 0.929480 0.088316
H29   H     H_    0.808647 0.516597 0.849441 0.095340
H30   H     H_    0.775704 0.649559 0.858126 0.162315
O31   O     O_3   0.728143 0.128740 0.904208 -0.539368
C65   C     C_3   0.732923 0.241402 0.874375 -0.118259
H31   H     H_    0.729169 0.306028 0.916049 0.103027
H32   H     H_    0.653241 0.215380 0.834892 0.085299
H33   H     H_    0.826740 0.297768 0.846053 0.143333
O32   O     O_3   0.339789 0.270219 0.920286 -0.544285
C66   C     C_3   0.425297 0.230044 0.892901 -0.132209
H34   H     H_    0.480685 0.213999 0.936384 0.086352
H35   H     H_    0.495272 0.302907 0.854297 0.095473
H36   H     H_    0.366904 0.136406 0.864971 0.160706
C67   C     C_3   0.379979 0.851436 0.392148 -0.265449
C68   C     C_3   0.261118 0.823449 0.346409 -0.430845
H37   H     H_    0.222019 0.725809 0.322058 0.146793
H38   H     H_    0.182764 0.821907 0.377961 0.141969
H39   H     H_    0.286952 0.894824 0.301974 0.184046
H40   H     H_    0.458043 0.867102 0.354041 0.169424
H41   H     H_    0.360141 0.762996 0.419579 0.124110
C69   C     C_3   0.056871 0.334372 0.423843 -0.251164
C70   C     C_3   0.059061 0.235341 0.476844 -0.458837
H42   H     H_    0.150534 0.271106 0.503353 0.125094
H43   H     H_    0.994734 0.210092 0.522637 0.152710
H44   H     H_    0.040192 0.147057 0.449866 0.145458
H45   H     H_    0.981494 0.277021 0.388430 0.184374
H46   H     H_    0.141419 0.376611 0.387290 0.128850
C71   C     C_3   0.554027 0.670344 0.386390 -0.242170
C72   C     C_3   0.446427 0.608968 0.328476 -0.394548
H47   H     H_    0.407419 0.673912 0.313045 0.103221
H48   H     H_    0.486219 0.593325 0.278440 0.192245
H49   H     H_    0.363152 0.514722 0.345398 0.162863
H50   H     H_    0.547727 0.751675 0.406332 0.114465
H51   H     H_    0.648299 0.720184 0.358913 0.151451
C73   C     C_3   0.212912 0.494828 0.546119 -0.234449
C74   C     C_3   0.291835 0.533855 0.478947 -0.448053
H52   H     H_    0.252174 0.563128 0.433486 0.142704
H53   H     H_    0.375389 0.622170 0.487569 0.156623
H54   H     H_    0.311640 0.456237 0.463249 0.165425
H55   H     H_    0.266293 0.571219 0.585289 0.145101
H56   H     H_    0.209040 0.411008 0.573639 0.185648
C75   C     C_3   0.261465 0.899621 0.534561 -0.292790
C76   C     C_3   0.200475 0.760034 0.535740 -0.416417
H57   H     H_    0.194373 0.715738 0.483791 0.154172
H58   H     H_    0.250891 0.733492 0.576093 0.193889
H59   H     H_    0.104361 0.733585 0.551510 0.167319
H60   H     H_    0.240786 0.931967 0.585150 0.162596
H61   H     H_    0.214769 0.928982 0.493157 0.140026
C77   C     C_3   0.642939 0.738972 0.541430 -0.286288
C78   C     C_3   0.554088 0.791654 0.546777 -0.390601
H62   H     H_    0.515454 0.809191 0.498679 0.099572
H63   H     H_    0.473201 0.740033 0.584750 0.190463
H64   H     H_    0.618398 0.884843 0.560076 0.179118
H65   H     H_    0.698295 0.753786 0.591399 0.162267
H66   H     H_    0.717628 0.789790 0.501135 0.127237
C79   C     C_3   0.821896 0.227302 0.619822 -0.310368
C80   C     C_3   0.792446 0.181825 0.697394 -0.398788
H67   H     H_    0.690730 0.155456 0.711179 0.168951
H68   H     H_    0.808806 0.097952 0.708139 0.180292
H69   H     H_    0.860004 0.262809 0.731930 0.139997
H70   H     H_    0.927728 0.268193 0.613747 0.169391
H71   H     H_    0.788716 0.298934 0.611416 0.165469
C81   C     C_3   0.751077 0.536119 0.631211 -0.301407
C82   C     C_3   0.792931 0.518087 0.705596 -0.431352
H72   H     H_    0.828645 0.447117 0.705866 0.150483
H73   H     H_    0.869108 0.612912 0.726821 0.193347
H74   H     H_    0.707371 0.479354 0.741584 0.105780
H75   H     H_    0.707681 0.597652 0.639672 0.171782
H76   H     H_    0.680329 0.439566 0.610713 0.161995
C83   C     C_3   0.429755 0.201200 0.633155 -0.296623
C84   C     C_3   0.425708 0.246370 0.708001 -0.398913
H77   H     H_    0.493102 0.351825 0.713489 0.171777
H78   H     H_    0.324700 0.221198 0.722843 0.191284
H79   H     H_    0.459115 0.194883 0.745341 0.108522
H80   H     H_    0.369567 0.096262 0.637060 0.166599
H81   H     H_    0.531649 0.227168 0.621152 0.148852
C85   C     C_3   0.938371 0.746842 0.464416 -0.297462
C86   C     C_3   0.887664 0.777825 0.397440 -0.435460
H82   H     H_    0.817158 0.689789 0.371979 0.234091
H83   H     H_    0.838443 0.831216 0.411686 0.116662
H84   H     H_    0.965137 0.832960 0.357743 0.133207
H85   H     H_    0.966452 0.827983 0.502490 0.123859
H86   H     H_    0.025742 0.744425 0.448220 0.173668
C87   C     C_3   0.784000 0.024738 0.446571 -0.253409
C88   C     C_3   0.839901 0.033694 0.369615 -0.388405
H87   H     H_    0.769003 0.948606 0.338228 0.135985
H88   H     H_    0.861342 0.118251 0.335824 0.196290
H89   H     H_    0.930270 0.027209 0.368728 0.090504
H90   H     H_    0.839549 0.994345 0.482375 0.113050
H91   H     H_    0.685713 0.942944 0.443100 0.159907
C89   C     C_3   0.265545 0.170281 0.451070 -0.295639
C90   C     C_3   0.236961 0.082082 0.388100 -0.422791
H92   H     H_    0.253621 0.130589 0.335429 0.199926
H93   H     H_    0.292362 0.033382 0.393614 0.206880
H94   H     H_    0.132862 0.008564 0.388688 0.092604
H95   H     H_    0.186282 0.110191 0.489316 0.127476
H96   H     H_    0.264803 0.256209 0.427723 0.195678

loop_
_geom_bond_atom_site_label_1
_geom_bond_atom_site_label_2
_ccdc_geom_bond_type
C82   H73   S    
C45   C60   A    
C56   C69   S    
O30   C64   S    
C55   C67   S    
C55   C59   A    
C3    O1    A    
C62   H22   S    
C75   C76   S    
Cr6   O18   S    
O27   C61   S    
C9    C51   S    
Cr5   O17   S    
C79   C80   S    
Cr1   O25   S    
C62   H23   S    
C61   H20   S    
C89   C90   S    
Cr3   O3    S    
C70   H42   S    
C48   C57   A    
Cr6   O6    S    
C5    C20   S    
C86   H82   S    
C71   H51   S    
Cr5   O5    S    
C6    C19   S    
Cr2   O2    S    
C81   C82   S    
C7    H13   S    
C22   C32   A    
C45   C51   A    
C59   C75   S    
C23   C29   A    
C47   C55   A    
C72   H47   S    
C74   H53   S    
C73   C74   S    
C17   O23   A    
C35   O31   S    
C41   H11   S    
C76   H57   S    
C28   C40   S    
C36   O32   S    
C33   C36   A    
C6    O4    A    
C80   H67   S    
C12   H18   S    
C20   C34   A    
C13   O14   A    
Cr3   O15   S    
C11   C87   S    
Cr2   O14   S    
C67   C68   S    
C74   H52   S    
C8    C81   S    
C65   H31   S    
C78   H63   S    
Cr2   O8    S    
C85   H85   S    
C50   C52   A    
C75   H60   S    
C84   H77   S    
C39   H9    S    
C13   O19   A    
C5    O6    A    
C11   C53   S    
C43   C59   A    
C47   C53   A    
C25   C37   S    
C18   O24   A    
C87   H90   S    
C21   C27   A    
C10   C52   S    
C1    O7    A    
C22   C28   A    
C27   C30   A    
C33   O29   S    
C68   H39   S    
C69   H46   S    
C15   O13   A    
C79   H71   S    
C12   C89   S    
C61   H19   S    
C5    O11   A    
C9    C83   S    
C39   C42   S    
Cr2   O20   S    
C86   H83   S    
Cr5   O23   S    
C25   C29   A    
C77   H65   S    
C87   H91   S    
C66   H36   S    
Cr1   O13   S    
C27   C39   S    
C82   H72   S    
C89   H95   S    
C74   H54   S    
C69   C70   S    
C7    C49   S    
C70   H44   S    
C44   C58   A    
C90   H92   S    
C48   C54   A    
C67   H41   S    
C43   C49   A    
C57   C60   A    
C11   H17   S    
C32   C34   A    
C18   O16   A    
C32   O28   S    
C14   O20   A    
C40   H10   S    
C23   C31   A    
Cr3   O25   S    
C7    C11   S    
C17   O18   A    
C64   H29   S    
C90   H93   S    
C57   C71   S    
Cr4   O26   S    
C87   C88   S    
C88   H89   S    
Cr5   O11   S    
C34   O30   S    
C78   H64   S    
C84   H79   S    
C42   H6    S    
C75   H61   S    
C83   H80   S    
C3    O9    A    
Cr6   O26   S    
C2    O8    A    
C66   H35   S    
O29   C63   S    
Cr1   O1    S    
C67   H40   S    
C73   H56   S    
C81   H75   S    
C65   H32   S    
C77   C78   S    
C88   H88   S    
C42   H12   S    
C6    O12   A    
C60   C77   S    
C31   C35   A    
C62   H24   S    
Cr3   O21   S    
C69   H45   S    
Cr1   O19   S    
C63   H26   S    
C64   H28   S    
C58   C73   S    
C8    C50   S    
C2    C23   S    
Cr6   O12   S    
C4    O5    A    
C38   H8    S    
C86   H84   S    
C44   C50   A    
C1    O2    A    
C9    H15   S    
C37   H7    S    
C29   C41   S    
C71   H50   S    
C72   H49   S    
C26   C38   S    
Cr6   O24   S    
O32   C66   S    
C64   H30   S    
C16   C45   S    
C13   C48   S    
C10   H16   S    
Cr4   O22   S    
C14   C47   S    
C81   H76   S    
C66   H34   S    
Cr3   O9    S    
C40   H4    S    
C26   C28   A    
C24   C33   A    
C80   H68   S    
C80   H69   S    
C41   H5    S    
C51   C54   A    
C15   O21   A    
C63   H27   S    
C70   H43   S    
C82   H74   S    
Cr4   O10   S    
C89   H96   S    
C19   C35   A    
C79   H70   S    
C46   C52   A    
C38   C40   S    
C4    C21   S    
C14   O15   A    
C16   O22   A    
C4    O10   A    
Cr2   O25   S    
C20   C26   A    
C38   H2    S    
C65   H33   S    
C49   C53   A    
C37   H1    S    
C72   H48   S    
C39   H3    S    
C56   C58   A    
O28   C62   S    
C83   H81   S    
C68   H38   S    
C7    C79   S    
C37   C41   S    
C83   C84   S    
C19   C25   A    
C9    C12   S    
C24   C30   A    
Cr5   O26   S    
C17   C44   S    
C85   H86   S    
C77   H66   S    
C73   H55   S    
C2    O3    A    
C16   O17   A    
Cr4   O16   S    
C85   C86   S    
C1    C24   S    
C8    C10   S    
C78   H62   S    
C46   C56   A    
C71   C72   S    
C8    H14   S    
C31   O27   S    
C68   H37   S    
C30   C42   S    
C3    C22   S    
C84   H78   S    
C76   H58   S    
C15   C46   S    
Cr1   O7    S    
C63   H25   S    
C18   C43   S    
C10   C85   S    
C21   C36   A    
Cr4   O4    S    
C61   H21   S    
C12   C54   S    
O31   C65   S    
C88   H87   S    
C90   H94   S    
C76   H59   S    
