data_mof_unit_60522.cif
_audit_creation_date              2012-12-10T18:40:09-0500
_audit_creation_method            fapswitch 2.2
_symmetry_space_group_name_H-M    P1
_symmetry_Int_Tables_number       1
_space_group_crystal_system       triclinic
_cell_length_a                    30.112365
_cell_length_b                    30.186251
_cell_length_c                    24.439736
_cell_angle_alpha                 90.061453
_cell_angle_beta                  127.588533
_cell_angle_gamma                 89.998488
_cell_volume                      17603.5829199

loop_
_atom_site_label
_atom_site_type_symbol
_atom_type_description
_atom_site_fract_x
_atom_site_fract_y
_atom_site_fract_z
_atom_type_partial_charge
C1    C     C_R   0.810918 0.810758 0.500192 0.962907
C2    C     C_R   0.537394 0.744209 0.069955 0.275590
C3    C     C_3   0.863219 0.112792 0.542889 -0.172459
C4    C     C_3   0.653237 0.586558 0.521312 -0.149702
C5    C     C_3   0.346511 0.586670 0.477871 -0.149108
C6    C     C_3   0.153266 0.086571 0.521395 -0.149735
C7    C     C_3   0.846666 0.086598 0.478330 -0.148963
C8    C     C_3   0.671680 0.629807 0.563190 0.054352
C9    C     C_3   0.328761 0.630138 0.436776 0.054748
C10   C     C_3   0.171649 0.129846 0.563205 0.054400
C11   C     C_3   0.828584 0.129924 0.436854 0.054486
C12   C     C_3   0.655079 0.655565 0.499652 -0.006169
C13   C     C_R   0.969394 0.242888 0.930484 0.285213
C14   C     C_3   0.344979 0.655558 0.500481 -0.005528
C15   C     C_3   0.155079 0.155564 0.499651 -0.006172
C16   C     C_3   0.844979 0.155562 0.500472 -0.005572
C17   C     C_R   0.439332 0.560900 0.500244 0.866902
C18   C     C_R   0.560691 0.560906 0.499814 0.867192
C19   C     C_R   0.939334 0.060903 0.500243 0.866897
C20   C     C_R   0.060691 0.060906 0.499814 0.867193
C21   C     C_R   0.939249 0.939141 0.500201 0.937482
C22   C     C_R   0.060724 0.939139 0.499745 0.937472
C23   C     C_R   0.439249 0.439140 0.500201 0.937477
C24   C     C_R   0.037394 0.244208 0.069955 0.275589
C25   C     C_R   0.560723 0.439139 0.499745 0.937475
C26   C     C_R   0.816163 0.749183 0.634405 0.847004
C27   C     C_R   0.183816 0.749149 0.365588 0.847808
C28   C     C_R   0.316164 0.249183 0.634407 0.847085
C29   C     C_R   0.683813 0.249152 0.365590 0.847375
C30   C     C_R   0.617264 0.787134 0.250975 0.512894
C31   C     C_R   0.384651 0.786570 0.749029 0.507996
C32   C     C_R   0.117265 0.287134 0.250975 0.512891
C33   C     C_R   0.884649 0.286570 0.749029 0.508006
C34   C     C_R   0.583509 0.784923 0.178890 -0.261904
C35   C     C_3   0.853794 0.890671 0.531412 -0.142128
C36   C     C_R   0.421234 0.783717 0.821062 -0.268103
C37   C     C_R   0.083510 0.284923 0.178890 -0.261909
C38   C     C_R   0.921232 0.283717 0.821062 -0.268113
C39   C     C_R   0.574608 0.744533 0.145322 -0.061322
C40   C     C_R   0.432007 0.742952 0.854610 -0.064653
C41   C     C_R   0.074608 0.244532 0.145322 -0.061320
C42   C     C_R   0.932007 0.242952 0.854610 -0.064646
C43   C     C_R   0.601323 0.705608 0.184023 0.011361
C44   C     C_R   0.405527 0.704000 0.815181 0.012612
C45   C     C_R   0.101322 0.205607 0.184023 0.011356
C46   C     C_3   0.146081 0.890591 0.468373 -0.142045
C47   C     C_R   0.905529 0.204000 0.815180 0.012609
C48   C     C_R   0.636485 0.708345 0.256202 -0.250851
C49   C     C_R   0.366746 0.707542 0.743228 -0.254448
C50   C     C_R   0.136483 0.208344 0.256202 -0.250845
C51   C     C_R   0.866747 0.207541 0.743227 -0.254459
C52   C     C_3   0.579869 0.842349 0.275042 0.097912
C53   C     C_3   0.595135 0.882080 0.321823 -0.755843
C54   C     C_3   0.418683 0.843780 0.723399 0.099540
C55   C     C_3   0.400748 0.883479 0.675913 -0.755135
C56   C     C_3   0.079871 0.342351 0.275041 0.097953
C57   C     C_3   0.353797 0.390670 0.531415 -0.142141
C58   C     C_3   0.095138 0.382081 0.321823 -0.755962
C59   C     C_3   0.918680 0.343786 0.723406 0.099538
C60   C     C_3   0.900742 0.383479 0.675910 -0.755126
C61   C     C_2   0.787502 0.852866 0.361014 0.403366
C62   C     C_2   0.212552 0.853224 0.638874 0.403355
C63   C     C_2   0.287497 0.352870 0.361014 0.403347
C64   C     C_2   0.712548 0.353219 0.638874 0.403340
C65   C     C_2   0.769053 0.744393 0.711707 0.396996
C66   C     C_2   0.230826 0.744733 0.288122 0.398588
C67   C     C_2   0.269064 0.244470 0.711729 0.397100
C68   C     C_3   0.646084 0.390593 0.468378 -0.142044
C69   C     C_2   0.730825 0.244433 0.288165 0.398052
C70   C     C_2   0.724975 0.635869 0.634609 0.331370
C71   C     C_2   0.275884 0.636564 0.365149 0.331282
C72   C     C_2   0.224909 0.135952 0.634644 0.331324
C73   C     C_2   0.775509 0.136114 0.365320 0.331564
C74   C     C_2   0.595149 0.662580 0.150282 0.428614
C75   C     C_2   0.419866 0.659289 0.847167 0.427659
C76   C     C_2   0.095146 0.162579 0.150282 0.428627
C77   C     C_2   0.919870 0.159289 0.847167 0.427669
C78   C     C_3   0.915043 0.800893 0.426567 0.107357
C79   C     C_3   0.842978 0.910973 0.465963 -0.289398
C80   C     C_3   0.928511 0.789073 0.377669 -0.808974
C81   C     C_3   0.085062 0.801080 0.573558 0.107124
C82   C     C_3   0.071588 0.789383 0.622461 -0.807146
C83   C     C_3   0.415038 0.300894 0.426559 0.107360
C84   C     C_3   0.428509 0.289075 0.377664 -0.808943
C85   C     C_3   0.585058 0.301077 0.573549 0.107130
C86   C     C_3   0.571577 0.289377 0.622446 -0.807154
C87   C     C_3   0.156932 0.911058 0.533815 -0.289793
C88   C     C_3   0.342979 0.410974 0.465966 -0.289408
C89   C     C_R   0.189061 0.810757 0.499764 0.962933
C90   C     C_3   0.656933 0.411057 0.533819 -0.289784
C91   C     C_3   0.905628 0.905600 0.500680 -0.045472
C92   C     C_3   0.094299 0.905597 0.499173 -0.045226
C93   C     C_3   0.405628 0.405600 0.500680 -0.045450
C94   C     C_3   0.594298 0.405597 0.499173 -0.045225
C95   C     C_3   0.917061 0.885982 0.566173 -0.187720
C96   C     C_3   0.082829 0.885817 0.433688 -0.187384
C97   C     C_3   0.417063 0.385980 0.566173 -0.187717
C98   C     C_3   0.582831 0.385819 0.433688 -0.187399
C99   C     C_3   0.907537 0.839103 0.534919 -0.303933
C100  C     C_R   0.310918 0.310758 0.500192 0.962912
C101  C     C_3   0.092430 0.839014 0.465049 -0.303892
C102  C     C_3   0.407536 0.339101 0.534915 -0.303930
C103  C     C_3   0.592429 0.339016 0.465044 -0.303897
C104  C     C_3   0.895990 0.859597 0.469679 0.479507
C105  C     C_3   0.104013 0.859672 0.530279 0.479783
C106  C     C_3   0.395987 0.359598 0.469676 0.479507
C107  C     C_3   0.604009 0.359671 0.530274 0.479779
C108  C     C_3   0.833463 0.864343 0.434819 -0.060398
C109  C     C_3   0.166521 0.864509 0.565063 -0.061340
C110  C     C_3   0.333461 0.364345 0.434818 -0.060400
C111  C     C_R   0.689061 0.310757 0.499764 0.962893
C112  C     C_3   0.666519 0.364507 0.565063 -0.061338
C113  C     C_3   0.844511 0.844402 0.499747 -0.055296
C114  C     C_3   0.155439 0.844405 0.500146 -0.055433
C115  C     C_3   0.344511 0.344402 0.499747 -0.055291
C116  C     C_3   0.655439 0.344405 0.500146 -0.055423
C117  C     C_R   0.682775 0.749896 0.365334 0.972288
C118  C     C_R   0.317230 0.749978 0.634649 0.973369
C119  C     C_R   0.182775 0.249896 0.365334 0.972291
C120  C     C_R   0.817230 0.249978 0.634649 0.973351
C121  C     C_R   0.830256 0.747946 0.746873 -0.005603
C122  C     C_R   0.644791 0.748681 0.289745 -0.169711
C123  C     C_R   0.169625 0.748056 0.253048 -0.005379
C124  C     C_R   0.330267 0.247987 0.746885 -0.005561
C125  C     C_R   0.669632 0.247909 0.253068 -0.005660
C126  C     C_R   0.867586 0.749007 0.819169 -0.122584
C127  C     C_R   0.132255 0.749114 0.180763 -0.122445
C128  C     C_R   0.367603 0.249050 0.819181 -0.122586
C129  C     C_R   0.632272 0.248967 0.180781 -0.122435
C130  C     C_R   0.925745 0.749439 0.854275 0.028677
C131  C     C_R   0.074103 0.749339 0.145706 0.028793
C132  C     C_R   0.425762 0.249443 0.854282 0.028679
C133  C     C_R   0.356216 0.748348 0.710144 -0.164067
C134  C     C_R   0.574119 0.249335 0.145716 0.028765
C135  C     C_R   0.946780 0.748714 0.816560 -0.145882
C136  C     C_R   0.053112 0.748387 0.183464 -0.146092
C137  C     C_R   0.446790 0.248679 0.816561 -0.145898
C138  C     C_R   0.553119 0.248524 0.183468 -0.146062
C139  C     C_R   0.910354 0.747985 0.744940 -0.179581
C140  C     C_R   0.089580 0.747661 0.255084 -0.179842
C141  C     C_R   0.410359 0.247950 0.744940 -0.179569
C142  C     C_R   0.589578 0.247799 0.255088 -0.179806
C143  C     C_R   0.852321 0.748163 0.709683 -0.094715
C144  C     C_R   0.144791 0.248680 0.289745 -0.169714
C145  C     C_R   0.147609 0.748065 0.290297 -0.094614
C146  C     C_R   0.352326 0.248166 0.709687 -0.094726
C147  C     C_R   0.647608 0.248065 0.290305 -0.094677
C148  C     C_R   0.035487 0.749887 0.069883 0.303750
C149  C     C_R   0.964340 0.749944 0.930102 0.303744
C150  C     C_R   0.535507 0.249885 0.069891 0.303727
C151  C     C_R   0.464360 0.249947 0.930110 0.303741
C152  C     C_3   0.595998 0.663490 0.477947 -0.181031
C153  C     C_3   0.404387 0.663363 0.523180 -0.181345
C154  C     C_3   0.095971 0.163475 0.477862 -0.181006
C155  C     C_R   0.856215 0.248348 0.710144 -0.164052
C156  C     C_3   0.904234 0.163444 0.522704 -0.181325
C157  C     C_3   0.612649 0.637342 0.542394 -0.257611
C158  C     C_3   0.388121 0.637559 0.458558 -0.256924
C159  C     C_3   0.112589 0.137367 0.542326 -0.257603
C160  C     C_3   0.887787 0.137419 0.458169 -0.256949
C161  C     C_3   0.594213 0.594721 0.499505 0.001541
C162  C     C_3   0.405861 0.594711 0.500663 0.002512
C163  C     C_3   0.094214 0.094720 0.499505 0.001554
C164  C     C_3   0.905863 0.094717 0.500657 0.002481
C165  C     C_R   0.688990 0.689218 0.499721 0.869573
C166  C     C_R   0.469394 0.742888 0.930484 0.285214
C167  C     C_R   0.311036 0.689218 0.500335 0.869233
C168  C     C_R   0.188989 0.189218 0.499719 0.869661
C169  C     C_R   0.811034 0.189219 0.500329 0.868857
C170  C     C_3   0.576882 0.620302 0.435053 -0.153968
C171  C     C_3   0.422811 0.619946 0.565292 -0.156026
C172  C     C_3   0.076914 0.120262 0.435036 -0.153948
C173  C     C_3   0.922993 0.120173 0.565199 -0.156049
C174  C     C_3   0.636480 0.612875 0.456842 -0.170950
C175  C     C_3   0.362884 0.612642 0.542515 -0.172645
C176  C     C_3   0.136540 0.112849 0.456908 -0.170999
H1    H     H_    0.851215 0.748760 0.848198 0.191503
H2    H     H_    0.072403 0.747543 0.283231 0.148919
H3    H     H_    0.029182 0.801608 0.601451 0.252713
H4    H     H_    0.072809 0.752880 0.628810 0.206995
H5    H     H_    0.102812 0.804863 0.673718 0.259618
H6    H     H_    0.372070 0.288504 0.403518 0.151725
H7    H     H_    0.445729 0.283904 0.476629 0.144400
H8    H     H_    0.470897 0.301355 0.398636 0.253103
H9    H     H_    0.427326 0.252557 0.371387 0.206428
H10   H     H_    0.397259 0.304425 0.326378 0.259425
H11   H     H_    0.628045 0.288752 0.596634 0.152285
H12   H     H_    0.554396 0.283958 0.523512 0.144329
H13   H     H_    0.427563 0.247960 0.716825 0.148951
H14   H     H_    0.529169 0.301598 0.601428 0.252707
H15   H     H_    0.572804 0.252875 0.628798 0.207002
H16   H     H_    0.602795 0.304861 0.673703 0.259616
H17   H     H_    0.572400 0.247790 0.283233 0.148815
H18   H     H_    0.602314 0.646338 0.577519 0.150338
H19   H     H_    0.399036 0.646740 0.424086 0.149974
H20   H     H_    0.102206 0.146385 0.577396 0.150262
H21   H     H_    0.898427 0.146482 0.423385 0.150264
H22   H     H_    0.573325 0.695583 0.460071 0.158401
H23   H     H_    0.427312 0.695361 0.541849 0.157647
H24   H     H_    0.073273 0.195557 0.459915 0.158384
H25   H     H_    0.148596 0.749034 0.151699 0.191697
H26   H     H_    0.927034 0.195505 0.540988 0.157794
H27   H     H_    0.537073 0.615616 0.382331 0.156763
H28   H     H_    0.462310 0.614971 0.618169 0.155157
H29   H     H_    0.037132 0.115544 0.382301 0.156792
H30   H     H_    0.962641 0.115380 0.618003 0.155070
H31   H     H_    0.646916 0.603837 0.421837 0.155403
H32   H     H_    0.351875 0.603417 0.576872 0.154744
H33   H     H_    0.147023 0.103788 0.421956 0.155432
H34   H     H_    0.852481 0.103689 0.577555 0.154596
H35   H     H_    0.675732 0.554382 0.539283 0.138986
H36   H     H_    0.351236 0.248831 0.848214 0.191501
H37   H     H_    0.323758 0.554593 0.459111 0.139160
H38   H     H_    0.175785 0.054406 0.539435 0.139006
H39   H     H_    0.824039 0.054457 0.459954 0.139049
H40   H     H_    0.563997 0.814844 0.148885 0.159845
H41   H     H_    0.440255 0.813767 0.851014 0.164990
H42   H     H_    0.063999 0.314844 0.148885 0.159842
H43   H     H_    0.940251 0.313768 0.851014 0.164984
H44   H     H_    0.657769 0.678904 0.286723 0.207434
H45   H     H_    0.346106 0.678046 0.712318 0.204653
H46   H     H_    0.157767 0.178903 0.286723 0.207434
H47   H     H_    0.648618 0.248777 0.151723 0.191701
H48   H     H_    0.846110 0.178046 0.712318 0.204649
H49   H     H_    0.817811 0.941062 0.438262 0.156870
H50   H     H_    0.182076 0.941218 0.561435 0.156552
H51   H     H_    0.317813 0.441063 0.438267 0.156825
H52   H     H_    0.682077 0.441216 0.561443 0.156560
H53   H     H_    0.835677 0.902574 0.556978 0.159827
H54   H     H_    0.164153 0.902427 0.442743 0.159739
H55   H     H_    0.335682 0.402572 0.556984 0.159805
H56   H     H_    0.664159 0.402430 0.442751 0.159739
H57   H     H_    0.951885 0.895935 0.619869 0.169898
H58   H     H_    0.991438 0.748842 0.842261 0.157317
H59   H     H_    0.047963 0.895638 0.379990 0.170080
H60   H     H_    0.451889 0.395931 0.619869 0.169889
H61   H     H_    0.547967 0.395643 0.379990 0.170076
H62   H     H_    0.932447 0.808999 0.562852 0.142336
H63   H     H_    0.067552 0.808836 0.437193 0.142280
H64   H     H_    0.432445 0.308997 0.562847 0.142335
H65   H     H_    0.567550 0.308838 0.437185 0.142282
H66   H     H_    0.562522 0.816113 0.289325 0.132553
H67   H     H_    0.547135 0.852826 0.220739 0.134771
H68   H     H_    0.557374 0.894167 0.315402 0.197274
H69   H     H_    0.008459 0.748350 0.157796 0.157024
H70   H     H_    0.627455 0.872524 0.376608 0.257238
H71   H     H_    0.611817 0.909208 0.308351 0.257418
H72   H     H_    0.436341 0.818380 0.708311 0.131365
H73   H     H_    0.451788 0.854812 0.777315 0.136360
H74   H     H_    0.437330 0.896865 0.680699 0.196831
H75   H     H_    0.367972 0.873396 0.621469 0.257919
H76   H     H_    0.383700 0.909817 0.690141 0.257398
H77   H     H_    0.062523 0.316115 0.289325 0.132549
H78   H     H_    0.047137 0.352827 0.220739 0.134759
H79   H     H_    0.057377 0.394169 0.315402 0.197263
H80   H     H_    0.491448 0.248778 0.842258 0.157311
H81   H     H_    0.127458 0.372525 0.376608 0.257245
H82   H     H_    0.111821 0.409209 0.308352 0.257393
H83   H     H_    0.936350 0.318387 0.708333 0.131366
H84   H     H_    0.951776 0.354825 0.777321 0.136368
H85   H     H_    0.937325 0.396871 0.680704 0.196830
H86   H     H_    0.867975 0.373389 0.621467 0.257914
H87   H     H_    0.883681 0.409817 0.690123 0.257405
H88   H     H_    0.784511 0.870347 0.320143 0.083819
H89   H     H_    0.215529 0.870769 0.679740 0.083592
H90   H     H_    0.284504 0.370353 0.320142 0.083817
H91   H     H_    0.508466 0.248598 0.157795 0.157025
H92   H     H_    0.715519 0.370760 0.679739 0.083591
H93   H     H_    0.739953 0.736440 0.657234 0.079313
H94   H     H_    0.259984 0.736728 0.342535 0.079653
H95   H     H_    0.239954 0.236501 0.657262 0.079358
H96   H     H_    0.759949 0.236468 0.342596 0.079417
H97   H     H_    0.723554 0.645400 0.676314 0.083033
H98   H     H_    0.277880 0.646246 0.323976 0.083695
H99   H     H_    0.223440 0.145496 0.676306 0.083027
H100  H     H_    0.777233 0.145700 0.323898 0.083570
H101  H     H_    0.573526 0.660645 0.095105 0.075433
H102  H     H_    0.927561 0.748025 0.716828 0.148923
H103  H     H_    0.457743 0.654010 0.899186 0.075825
H104  H     H_    0.073523 0.160643 0.095106 0.075436
H105  H     H_    0.957747 0.154010 0.899186 0.075826
H106  H     H_    0.872075 0.788502 0.403528 0.151723
H107  H     H_    0.945736 0.783903 0.476637 0.144400
H108  H     H_    0.970897 0.801355 0.398637 0.253107
H109  H     H_    0.927331 0.752554 0.371396 0.206418
H110  H     H_    0.897258 0.804421 0.326382 0.259427
H111  H     H_    0.128047 0.788753 0.596635 0.152289
H112  H     H_    0.054395 0.783963 0.523520 0.144326
N1    N     N_R   0.491695 0.717537 0.034669 -0.176637
N2    N     N_R   0.979244 0.749848 0.035608 -0.168848
N3    N     N_R   0.520603 0.250026 0.964388 -0.168549
N4    N     N_R   0.479264 0.249940 0.035615 -0.168844
N5    N     N_R   0.055480 0.750093 0.032953 -0.169587
N6    N     N_R   0.944344 0.749879 0.967031 -0.169899
N7    N     N_R   0.555501 0.250000 0.032962 -0.169599
N8    N     N_R   0.444364 0.249973 0.967038 -0.169897
N9    N     N_R   0.458106 0.717058 0.966043 -0.174267
N10   N     N_R   0.991696 0.217535 0.034669 -0.176639
N11   N     N_R   0.958106 0.217056 0.966043 -0.174266
N12   N     N_R   0.514404 0.770376 0.965971 -0.168559
N13   N     N_R   0.547858 0.771052 0.034605 -0.152594
N14   N     N_R   0.014402 0.270377 0.965971 -0.168558
N15   N     N_R   0.047856 0.271053 0.034605 -0.152594
N16   N     N_R   0.020582 0.750116 0.964380 -0.168548
O1    O     O_R   0.822760 0.770240 0.499990 -0.636831
O2    O     O_R   0.075230 0.953450 0.557500 -0.611979
O3    O     O_R   0.424770 0.453450 0.442500 -0.612024
O4    O     O_R   0.575230 0.453450 0.557500 -0.611984
O5    O     O_R   0.982280 0.953430 0.557510 -0.626329
O6    O     O_R   0.017720 0.953430 0.442490 -0.626103
O7    O     O_R   0.482280 0.453430 0.557510 -0.626343
O8    O     O_R   0.517720 0.453430 0.442490 -0.626099
O9    O     O_R   0.770230 0.822760 0.499990 -0.612832
O10   O     O_R   0.229770 0.822760 0.500010 -0.613635
O11   O     O_R   0.270230 0.322760 0.499990 -0.612839
O12   O     O_R   0.177240 0.770240 0.500010 -0.636580
O13   O     O_R   0.729770 0.322760 0.500010 -0.613643
O14   O     O_R   0.725330 0.723740 0.398130 -0.624470
O15   O     O_R   0.274670 0.723740 0.601870 -0.622345
O16   O     O_R   0.225330 0.223740 0.398130 -0.624469
O17   O     O_R   0.774670 0.223740 0.601870 -0.622343
O18   O     O_R   0.672800 0.776260 0.398130 -0.596679
O19   O     O_R   0.327200 0.776260 0.601870 -0.599344
O20   O     O_R   0.172800 0.276260 0.398130 -0.596682
O21   O     O_R   0.827200 0.276260 0.601870 -0.599330
O22   O     O_R   0.729750 0.677220 0.500010 -0.596810
O23   O     O_R   0.322760 0.270240 0.499990 -0.636830
O24   O     O_R   0.270250 0.677220 0.499990 -0.597534
O25   O     O_R   0.229750 0.177220 0.500010 -0.596871
O26   O     O_R   0.770250 0.177220 0.499990 -0.597175
O27   O     O_R   0.677220 0.729740 0.500010 -0.649580
O28   O     O_R   0.322780 0.729740 0.499990 -0.649568
O29   O     O_R   0.177220 0.229740 0.500010 -0.649579
O30   O     O_R   0.822780 0.229740 0.499990 -0.649587
O31   O     O_R   0.827180 0.723730 0.601860 -0.595480
O32   O     O_R   0.172820 0.723730 0.398140 -0.595812
O33   O     O_R   0.327180 0.223730 0.601860 -0.595493
O34   O     O_R   0.677240 0.270240 0.500010 -0.636580
O35   O     O_R   0.672820 0.223730 0.398140 -0.595713
O36   O     O_R   0.774660 0.776250 0.601860 -0.640722
O37   O     O_R   0.225340 0.776250 0.398140 -0.640869
O38   O     O_R   0.274660 0.276250 0.601860 -0.640758
O39   O     O_R   0.725340 0.276250 0.398140 -0.640689
O40   O     O_R   0.424770 0.546480 0.442520 -0.629845
O41   O     O_R   0.575230 0.546480 0.557480 -0.630201
O42   O     O_R   0.924770 0.046480 0.442520 -0.629840
O43   O     O_R   0.075230 0.046480 0.557480 -0.630223
O44   O     O_3   0.628336 0.827542 0.283834 -0.565761
O45   O     O_R   0.482280 0.546460 0.557530 -0.630706
O46   O     O_3   0.371672 0.827333 0.716692 -0.565406
O47   O     O_3   0.128338 0.327542 0.283834 -0.565758
O48   O     O_3   0.871668 0.327334 0.716691 -0.565405
O49   O     O_2   0.753616 0.823940 0.346469 -0.556584
O50   O     O_2   0.246517 0.824389 0.653433 -0.553866
O51   O     O_2   0.253612 0.323943 0.346468 -0.556577
O52   O     O_2   0.746516 0.324388 0.653433 -0.553862
O53   O     O_2   0.750249 0.749705 0.743591 -0.573965
O54   O     O_2   0.249569 0.750295 0.256222 -0.573541
O55   O     O_2   0.250268 0.249830 0.743615 -0.573972
O56   O     O_R   0.517720 0.546460 0.442470 -0.630065
O57   O     O_2   0.749597 0.249823 0.256266 -0.573453
O58   O     O_2   0.770106 0.630121 0.646173 -0.550965
O59   O     O_2   0.230449 0.630932 0.352816 -0.551740
O60   O     O_2   0.270067 0.130220 0.646273 -0.551040
O61   O     O_2   0.730216 0.130406 0.353345 -0.551298
O62   O     O_2   0.614661 0.628526 0.183987 -0.564021
O63   O     O_2   0.389878 0.627386 0.815127 -0.559420
O64   O     O_2   0.114657 0.128525 0.183988 -0.564011
O65   O     O_2   0.889883 0.127385 0.815127 -0.559399
O66   O     O_3   0.919245 0.847174 0.436338 -0.606617
O67   O     O_R   0.982280 0.046460 0.557530 -0.630690
O68   O     O_3   0.080814 0.847337 0.563698 -0.606678
O69   O     O_3   0.419240 0.347176 0.436331 -0.606616
O70   O     O_3   0.580806 0.347333 0.563688 -0.606682
O71   O     O_R   0.017720 0.046460 0.442470 -0.630063
O72   O     O_R   0.924770 0.953450 0.442500 -0.612017
Zn1   Zn    Zn3+2 0.785070 0.714920 0.500000 0.997506
Zn2   Zn    Zn3+2 0.038370 0.999960 0.576800 0.974449
Zn3   Zn    Zn3+2 0.461630 0.499960 0.423200 0.976276
Zn4   Zn    Zn3+2 0.538370 0.499960 0.576800 0.974428
Zn5   Zn    Zn3+2 0.214930 0.714920 0.500000 0.998358
Zn6   Zn    Zn3+2 0.285070 0.214920 0.500000 0.997461
Zn7   Zn    Zn3+2 0.714930 0.214920 0.500000 0.998676
Zn8   Zn    Zn3+2 0.714920 0.785060 0.500000 0.968775
Zn9   Zn    Zn3+2 0.285080 0.785060 0.500000 0.966704
Zn10  Zn    Zn3+2 0.214920 0.285060 0.500000 0.968750
Zn11  Zn    Zn3+2 0.785080 0.285060 0.500000 0.966707
Zn12  Zn    Zn3+2 0.961630 0.999960 0.423200 0.976275

loop_
_geom_bond_atom_site_label_1
_geom_bond_atom_site_label_2
_ccdc_geom_bond_type
C74   H101  S    
C107  C112  S    
O2    Zn2   S    
C53   H68   S    
C136  C140  A    
C135  C139  A    
C82   H5    S    
C2    N1    A    
C90   H52   S    
O12   Zn5   S    
C31   C36   A    
C62   H89   S    
C28   O38   A    
C95   C99   S    
C52   O44   S    
C88   H51   S    
O32   Zn5   S    
C15   C154  S    
C23   O3    A    
C61   O49   D    
C162  C171  S    
C30   C122  A    
C140  H2    S    
C31   O46   S    
C75   O63   D    
C26   O31   A    
C129  H47   S    
C85   H12   S    
C59   C60   S    
O67   Zn2   S    
C24   C41   S    
C60   H87   S    
C84   H9    S    
C100  C115  S    
C1    C113  S    
C37   H42   S    
O40   Zn3   S    
C8    C157  S    
C81   O68   S    
C13   C42   S    
C85   O70   S    
C156  C173  S    
C29   O39   A    
C76   H104  S    
C32   O47   S    
C169  O26   A    
C20   C163  S    
C120  C155  S    
C149  N6    A    
C108  C113  S    
C36   H41   S    
N3    N7    A    
C53   H71   S    
C29   C147  S    
C14   C175  S    
C66   H94   S    
C60   H86   S    
C17   O40   A    
C154  H24   S    
C25   O8    A    
C64   O52   D    
C27   C145  S    
C57   C97   S    
C83   H7    S    
C164  C173  S    
C81   H112  S    
N5    N16   A    
C163  C172  S    
C68   C116  S    
C59   H84   S    
N10   N11   A    
C123  C127  A    
C100  O11   A    
N12   N13   A    
C166  N9    A    
C12   C174  S    
C170  C174  S    
C49   C133  A    
C152  C157  S    
C50   H46   S    
C80   H110  S    
C140  C145  A    
C160  H21   S    
C86   H16   S    
C33   C38   A    
C22   O2    A    
N1    N9    A    
C103  C116  S    
C1    O1    A    
C9    C158  S    
C54   H73   S    
C79   C108  S    
C35   C113  S    
O29   Zn10  S    
C20   O43   A    
C127  C131  A    
C78   H107  S    
C32   C144  A    
C64   C112  S    
C125  C129  A    
C46   C96   S    
C6    C163  S    
C41   C45   A    
C4    C161  S    
C103  C107  S    
O14   Zn1   S    
O11   Zn10  S    
C56   H78   S    
O33   Zn6   S    
C44   C75   S    
C72   H99   S    
C150  N4    A    
C12   C152  S    
O45   Zn4   S    
C19   O67   A    
C76   O64   D    
O9    Zn8   S    
C98   H61   S    
C85   C86   S    
C176  H33   S    
C148  N5    A    
O31   Zn1   S    
C51   C155  A    
C58   H82   S    
O17   Zn7   S    
C172  H29   S    
C106  O69   S    
C18   C161  S    
C78   C80   S    
C138  H91   S    
O25   Zn6   S    
C13   N11   A    
C24   N10   A    
C171  H28   S    
C168  O29   A    
C28   O33   A    
C24   N15   A    
C139  C143  A    
C16   C169  S    
O43   Zn2   S    
C73   O61   D    
C173  H30   S    
C79   C91   S    
N2    N6    A    
C120  O21   A    
C50   C144  A    
C111  O13   A    
C68   C98   S    
O34   Zn7   S    
C94   C107  S    
C86   H14   S    
C30   C34   A    
C152  H22   S    
C34   C39   A    
O8    Zn3   S    
C123  C145  A    
C84   H8    S    
C131  C136  A    
C52   H67   S    
C12   C165  S    
C90   C112  S    
C117  O18   A    
C165  O22   A    
C124  C146  A    
C20   O71   A    
C23   C93   S    
C117  C122  S    
C5    C9    S    
C93   C106  S    
O28   Zn9   S    
C66   O54   D    
C68   C90   S    
C83   C84   S    
C8    C12   S    
C87   H50   S    
C148  N2    A    
O71   Zn12  S    
C135  H58   S    
O15   Zn5   S    
C32   C37   A    
C5    C175  S    
C109  C114  S    
C29   O35   A    
C21   O72   A    
C54   H72   S    
C13   N14   A    
C26   C143  S    
C93   C97   S    
C112  C116  S    
C52   C53   S    
C46   C87   S    
C169  O30   A    
C105  C109  S    
C54   C55   S    
C49   H45   S    
O72   Zn12  S    
C142  C147  A    
C19   C164  S    
C33   C155  A    
C166  N12   A    
O6    Zn12  S    
C28   C146  S    
O24   Zn5   S    
C88   C110  S    
C154  C159  S    
C34   H40   S    
C69   H96   S    
O22   Zn1   S    
C62   C109  S    
C3    H34   S    
C77   O65   D    
C110  C115  S    
C35   C79   S    
C96   H59   S    
C56   C58   S    
C159  C163  S    
C37   C41   A    
C6    C10   S    
C91   C95   S    
C40   C44   A    
C70   H97   S    
C22   C92   S    
C55   H76   S    
C4    C174  S    
C77   H105  S    
C96   C101  S    
C3    C16   S    
C68   H56   S    
C10   C72   S    
C85   H11   S    
C101  C114  S    
N4    N8    A    
C101  H63   S    
O3    Zn3   S    
C84   H10   S    
C130  C135  A    
C57   C115  S    
C18   O56   A    
C4    H35   S    
C15   C176  S    
C45   C76   S    
C104  O66   S    
C150  N7    A    
C160  C164  S    
C3    C7    S    
C117  O14   A    
C126  C130  A    
C73   H100  S    
C98   C103  S    
C100  O23   A    
C119  O16   A    
O27   Zn8   S    
O39   Zn11  S    
C53   H70   S    
C102  C115  S    
O37   Zn9   S    
C88   C93   S    
C18   O41   A    
C82   H3    S    
C16   C156  S    
O23   Zn6   S    
C111  C116  S    
C81   H111  S    
C65   C121  S    
C97   C102  S    
C31   C133  A    
C124  C128  A    
C67   H95   S    
C99   C104  S    
C69   C125  S    
C25   C94   S    
C62   O50   D    
C87   C92   S    
C21   O5    A    
C119  C144  S    
C46   H54   S    
C59   H83   S    
O19   Zn9   S    
C156  C160  S    
C175  H32   S    
C38   H43   S    
C11   C160  S    
C90   C94   S    
C54   O46   S    
C118  O15   A    
C151  N8    A    
C141  H13   S    
C168  O25   A    
C138  C142  A    
O56   Zn3   S    
C47   C51   A    
C97   H60   S    
C157  H18   S    
C9    C14   S    
C52   H66   S    
C11   C16   S    
C105  O68   S    
O26   Zn7   S    
C6    H38   S    
O30   Zn11  S    
C51   H48   S    
O1    Zn1   S    
C86   H15   S    
C55   H74   S    
C67   O55   D    
C58   H79   S    
C170  H27   S    
C141  C146  A    
C80   H108  S    
C11   C73   S    
C174  H31   S    
C157  C161  S    
C104  C108  S    
C21   C91   S    
C137  C141  A    
C89   C114  S    
C8    C70   S    
C9    C71   S    
O35   Zn7   S    
C99   C113  S    
C87   C109  S    
O41   Zn4   S    
C35   C95   S    
C7    C164  S    
C102  H64   S    
O5    Zn2   S    
C89   O10   A    
C5    C162  S    
C132  C137  A    
C128  H36   S    
C45   C50   A    
C118  O19   A    
O4    Zn4   S    
O7    Zn4   S    
C142  H17   S    
C151  N3    A    
C2    N13   A    
C63   H90   S    
C137  H80   S    
C129  C134  A    
C92   C105  S    
C27   O32   A    
C132  C151  S    
C14   C167  S    
C10   C159  S    
C7    H39   S    
C44   C49   A    
O36   Zn8   S    
C1    O9    A    
C121  C143  A    
C139  H102  S    
C92   C96   S    
C91   C104  S    
C4    C8    S    
C156  H26   S    
C67   C124  S    
C81   C82   S    
C7    C11   S    
C80   H109  S    
C38   C42   A    
C71   O59   D    
C10   C15   S    
C48   C122  A    
C57   H55   S    
C17   O45   A    
C59   O48   S    
O10   Zn9   S    
C134  C150  S    
C33   O48   S    
C153  C158  S    
C71   H98   S    
C152  C170  S    
C126  H1    S    
C61   C108  S    
C78   H106  S    
C26   O36   A    
C2    C39   S    
C3    C173  S    
C120  O17   A    
O18   Zn8   S    
C74   O62   D    
C23   O7    A    
C65   H93   S    
C43   C48   A    
C40   C166  S    
C42   C47   A    
O42   Zn12  S    
C83   O69   S    
C43   C74   S    
C25   O4    A    
C5    H37   S    
C19   O42   A    
C56   H77   S    
C99   H62   S    
C128  C132  A    
C101  C105  S    
C159  H20   S    
C64   H92   S    
C111  O34   A    
C46   C114  S    
C58   H81   S    
C36   C40   A    
O13   Zn11  S    
O38   Zn10  S    
C39   C43   A    
C171  C175  S    
C83   H6    S    
C75   H103  S    
C35   H53   S    
C56   O47   S    
C167  O24   A    
C125  C147  A    
C48   H44   S    
C65   O53   D    
O21   Zn11  S    
C149  N16   A    
C153  C171  S    
C130  C149  S    
C165  O27   A    
C154  C172  S    
C131  C148  S    
C22   O6    A    
O20   Zn10  S    
C127  H25   S    
C118  C133  S    
C161  C170  S    
O16   Zn6   S    
C14   C153  S    
C55   H75   S    
C15   C168  S    
C47   C77   S    
C106  C110  S    
C27   O37   A    
N14   N15   A    
C63   O51   D    
C66   C123  S    
C60   H85   S    
C72   O60   D    
C61   H88   S    
C134  C138  A    
C153  H23   S    
C107  O70   S    
C158  H19   S    
C57   C88   S    
C63   C110  S    
C121  C126  A    
C167  O28   A    
C78   O66   S    
C6    C176  S    
C103  H65   S    
C136  H69   S    
C102  C106  S    
C94   C98   S    
C89   O12   A    
C17   C162  S    
C158  C162  S    
C172  C176  S    
C30   O44   S    
C119  O20   A    
C70   O58   D    
C82   H4    S    
C95   H57   S    
C79   H49   S    
C69   O57   D    
