data_mof_unit_44939.cif
_audit_creation_date              2012-10-26T19:03:01-0400
_audit_creation_method            fapswitch 2.2
_symmetry_space_group_name_H-M    P1
_symmetry_Int_Tables_number       1
_space_group_crystal_system       triclinic
_cell_length_a                    15.057662
_cell_length_b                    11.066478
_cell_length_c                    9.998274
_cell_angle_alpha                 112.031419
_cell_angle_beta                  98.094703
_cell_angle_gamma                 92.404671
_cell_volume                      1520.84349812

loop_
_atom_site_label
_atom_site_type_symbol
_atom_type_description
_atom_site_fract_x
_atom_site_fract_y
_atom_site_fract_z
_atom_type_partial_charge
C1    C     C_R   0.490037 0.253768 0.439389 0.588481
C2    C     C_2   0.483739 0.503700 0.923253 0.071889
C3    C     C_R   0.329718 0.500950 0.501540 0.580706
C4    C     C_R   0.670404 0.498853 0.498677 0.579836
C5    C     C_R   0.823994 0.614927 0.583071 -0.031063
C6    C     C_R   0.179676 0.377013 0.447295 -0.026824
C7    C     C_R   0.767060 0.499003 0.498097 0.029350
C8    C     C_R   0.233651 0.498258 0.506008 0.051254
C9    C     C_R   0.802386 0.381822 0.419370 -0.033867
C10   C     C_R   0.196906 0.616903 0.574087 -0.013095
C11   C     C_R   0.896931 0.375742 0.439616 -0.047300
C12   C     C_R   0.508576 0.746394 0.560845 0.585653
C13   C     C_R   0.106156 0.613475 0.595505 -0.042308
C14   C     C_R   0.954571 0.493855 0.518097 0.031832
C15   C     C_R   0.049019 0.494515 0.521076 0.033876
C16   C     C_R   0.918184 0.611915 0.592669 0.012380
C17   C     C_R   0.085991 0.376388 0.448998 0.016597
C18   C     C_R   0.936419 0.255756 0.385596 -0.004540
C19   C     C_R   0.070125 0.724941 0.688507 -0.003932
C20   C     C_3   0.784764 0.743776 0.656237 -0.368351
C21   C     C_3   0.221017 0.248765 0.381393 -0.376364
C22   C     C_2   0.741409 0.271729 0.303479 0.202741
C23   C     C_R   0.029014 0.258684 0.385539 -0.078052
C24   C     C_2   0.248533 0.744377 0.602209 0.196637
C25   C     C_2   0.885952 0.125250 0.346102 0.224310
C26   C     C_2   0.127568 0.837235 0.807401 0.232785
C27   C     C_3   0.560947 0.980561 0.750686 -0.382081
C28   C     C_3   0.430150 0.021714 0.252178 -0.365520
C29   C     C_2   0.394161 0.440180 0.839310 0.284931
C30   C     C_2   0.557499 0.642778 0.186011 0.260467
C31   C     C_2   0.632575 0.584103 0.926386 0.447638
C32   C     C_2   0.424890 0.315142 0.043065 0.437129
C33   C     C_R   0.977066 0.724006 0.681068 -0.080460
C34   C     C_2   0.476455 0.112430 0.403698 -0.005540
C35   C     C_2   0.518067 0.888249 0.597607 0.001873
C36   C     C_2   0.502784 0.069258 0.510773 -0.122588
C37   C     C_2   0.490000 0.931254 0.491045 -0.103205
C38   C     C_2   0.500642 0.522117 0.084385 0.072234
Cu1   Cu    Cu3+1 0.515770 0.521810 0.644910 1.038511
Cu2   Cu    Cu3+1 0.484230 0.478190 0.355090 1.034654
H1    H     H_    0.056407 0.166062 0.339305 0.170142
H2    H     H_    0.192311 0.199357 0.263242 0.178074
H3    H     H_    0.760759 0.224266 0.196818 0.123537
H4    H     H_    0.214482 0.818721 0.574953 0.124583
H5    H     H_    0.828437 0.116108 0.397102 0.146710
H6    H     H_    0.194604 0.824351 0.852733 0.155445
H7    H     H_    0.579961 0.927863 0.823758 0.190566
H8    H     H_    0.623512 0.034925 0.746573 0.116733
H9    H     H_    0.512917 0.050807 0.800310 0.137778
H10   H     H_    0.408509 0.075736 0.181755 0.191410
H11   H     H_    0.476976 0.952329 0.197520 0.216793
H12   H     H_    0.951432 0.811236 0.750717 0.171582
H13   H     H_    0.368636 0.967111 0.259425 0.127008
H14   H     H_    0.388290 0.359124 0.734445 0.110616
H15   H     H_    0.608532 0.640923 0.272369 0.135270
H16   H     H_    0.663956 0.531793 0.990227 0.028727
H17   H     H_    0.449698 0.264328 0.941717 0.012849
H18   H     H_    0.457103 0.861345 0.384867 0.188197
H19   H     H_    0.535745 0.138983 0.617133 0.141110
H20   H     H_    0.710640 0.738998 0.627480 0.141038
H21   H     H_    0.801826 0.776771 0.777054 0.187504
H22   H     H_    0.812661 0.819546 0.621279 0.126921
H23   H     H_    0.295129 0.259882 0.389739 0.138643
H24   H     H_    0.206703 0.183847 0.439357 0.129092
N1    N     N_2   0.460520 0.445420 0.137370 -0.249966
N2    N     N_2   0.539480 0.554580 0.862630 -0.246128
O1    O     O_R   0.508410 0.332340 0.577400 -0.565487
O2    O     O_2   0.327284 0.769960 0.661663 -0.487989
O3    O     O_2   0.909271 0.026075 0.258545 -0.483939
O4    O     O_2   0.100015 0.944713 0.858179 -0.486756
O5    O     O_2   0.325894 0.475758 0.889184 -0.471920
O6    O     O_2   0.549741 0.746233 0.170499 -0.522946
O7    O     O_2   0.678241 0.669608 0.910078 -0.463838
O8    O     O_2   0.365912 0.258441 0.076372 -0.468056
O9    O     O_R   0.491590 0.667660 0.422600 -0.530979
O10   O     O_R   0.481780 0.295500 0.332650 -0.449312
O11   O     O_R   0.518220 0.704500 0.667350 -0.445227
O12   O     O_R   0.383570 0.518390 0.622380 -0.483455
O13   O     O_R   0.616430 0.481610 0.377620 -0.534246
O14   O     O_R   0.356940 0.481550 0.377630 -0.464122
O15   O     O_R   0.643060 0.518450 0.622370 -0.471249
O16   O     O_2   0.671976 0.229330 0.327783 -0.495389

loop_
_geom_bond_atom_site_label_1
_geom_bond_atom_site_label_2
_ccdc_geom_bond_type
C27   H8    S    
C31   N2    S    
C11   C18   A    
C25   H5    S    
C36   H19   S    
C5    C20   S    
C33   H12   S    
C17   C23   A    
C2    C29   S    
Cu1   O11   S    
C36   C37   S    
C35   C37   D    
C32   O8    D    
C28   H11   S    
C9    C22   S    
C31   O7    D    
C29   H14   S    
C30   C38   S    
C15   C17   A    
C20   H21   S    
C19   C26   S    
C21   H24   S    
C28   H10   S    
C4    O15   A    
C5    C16   A    
Cu2   O14   S    
C31   H16   S    
C20   H20   S    
C37   H18   S    
C28   C34   S    
C18   C25   S    
C32   H17   S    
C4    C7    S    
C3    O14   A    
C1    C34   S    
C13   C19   A    
C18   C23   A    
Cu1   O12   S    
Cu1   O15   S    
C4    O13   A    
C3    C8    S    
C19   C33   A    
C11   C14   A    
C5    C7    A    
C26   H6    S    
C6    C8    A    
C27   C35   S    
C6    C21   S    
Cu2   O10   S    
C16   C33   A    
C2    C38   S    
C22   H3    S    
C38   N1    D    
C12   O11   A    
Cu2   O13   S    
C12   C35   S    
C9    C11   A    
Cu2   N1    S    
C13   C15   A    
C26   O4    D    
Cu1   N2    S    
C14   C16   A    
C25   O3    D    
C22   O16   D    
Cu1   Cu2   S    
C27   H7    S    
C7    C9    A    
C6    C17   A    
C1    O10   A    
Cu1   O1    S    
C2    N2    D    
C10   C13   A    
C30   O6    D    
C28   H13   S    
C30   H15   S    
C23   H1    S    
Cu2   O9    S    
C10   C24   S    
C24   H4    S    
C1    O1    A    
C34   C36   D    
C20   H22   S    
C21   H23   S    
C24   O2    D    
C21   H2    S    
C8    C10   A    
C12   O9    A    
C14   C15   A    
C3    O12   A    
C27   H9    S    
C32   N1    S    
C29   O5    D    
