data_mof_unit_43473.cif
_audit_creation_date              2012-12-11T17:24:13-0500
_audit_creation_method            fapswitch 2.2
_symmetry_space_group_name_H-M    P1
_symmetry_Int_Tables_number       1
_space_group_crystal_system       triclinic
_cell_length_a                    22.970621
_cell_length_b                    7.253229
_cell_length_c                    20.689014
_cell_angle_alpha                 90.114004
_cell_angle_beta                  93.888958
_cell_angle_gamma                 90.067125
_cell_volume                      3439.07394275

loop_
_atom_site_label
_atom_site_type_symbol
_atom_type_description
_atom_site_fract_x
_atom_site_fract_y
_atom_site_fract_z
_atom_type_partial_charge
O1    O     O_R   0.307200 0.614510 0.194080 -0.530151
O2    O     O_R   0.692800 0.385490 0.805920 -0.532511
O3    O     O_R   0.192800 0.114510 0.305920 -0.530608
O4    O     O_R   0.807200 0.885490 0.694080 -0.530915
O5    O     O_R   0.188140 0.283260 0.181690 -0.541943
O6    O     O_R   0.811860 0.716740 0.818310 -0.550997
O7    O     O_R   0.311860 0.783260 0.318310 -0.542384
O8    O     O_R   0.688140 0.216740 0.681690 -0.541036
C1    C     C_R   0.169532 0.453009 0.164971 0.741363
C2    C     C_R   0.830008 0.547160 0.835814 0.724433
C3    C     C_R   0.330239 0.953534 0.335224 0.742377
C4    C     C_R   0.670221 0.046366 0.663978 0.720297
O9    O     O_R   0.306460 0.284700 0.186400 -0.543681
O10   O     O_R   0.693540 0.715300 0.813600 -0.542348
O11   O     O_R   0.193540 0.784700 0.313600 -0.544379
O12   O     O_R   0.806460 0.215300 0.686400 -0.542656
O13   O     O_R   0.311970 0.115840 0.310660 -0.536700
O14   O     O_R   0.688030 0.884160 0.689340 -0.524602
O15   O     O_R   0.188030 0.615840 0.189340 -0.537984
O16   O     O_R   0.811970 0.384160 0.810660 -0.526596
C5    C     C_R   0.325040 0.453665 0.171753 0.730993
C6    C     C_R   0.674720 0.546153 0.828257 0.724476
C7    C     C_R   0.174896 0.953817 0.328180 0.729667
C8    C     C_R   0.825412 0.046148 0.671935 0.710290
O17   O     O_3   0.251670 0.448440 0.290760 -0.379411
O18   O     O_3   0.748330 0.551560 0.709240 -0.382709
O19   O     O_3   0.248330 0.948440 0.209240 -0.380202
O20   O     O_3   0.751670 0.051560 0.790760 -0.385161
V1    V     V_3+5 0.249690 0.173030 0.242440 1.372161
V2    V     V_3+5 0.750310 0.826970 0.757560 1.356880
V3    V     V_3+5 0.250310 0.673030 0.257560 1.371076
V4    V     V_3+5 0.749690 0.326970 0.742440 1.360955
H1    H     H_    0.002959 0.210244 0.408973 0.166172
H2    H     H_    0.991350 0.753503 0.583679 0.156066
H3    H     H_    0.496326 0.709241 0.090453 0.166856
H4    H     H_    0.507766 0.252300 0.915108 0.153844
C9    C     C_R   0.958076 0.132637 0.492367 0.436777
C10   C     C_R   0.035745 0.831007 0.499876 0.457777
C11   C     C_R   0.541251 0.631081 0.007159 0.439750
C12   C     C_R   0.463806 0.328564 0.999568 0.457599
C13   C     C_R   0.954071 0.002253 0.542123 -0.027454
C14   C     C_R   0.043372 0.973664 0.454122 -0.036705
C15   C     C_R   0.545376 0.500526 0.957312 -0.031528
C16   C     C_R   0.456190 0.471421 0.045427 -0.036809
C17   C     C_R   0.993745 0.854954 0.545805 -0.318472
C18   C     C_R   0.001841 0.115046 0.448485 -0.307647
C19   C     C_R   0.505550 0.353251 0.953315 -0.314462
C20   C     C_R   0.497561 0.613380 0.051023 -0.308846
C21   C     C_1   0.908672 0.017684 0.588161 0.022349
C22   C     C_1   0.090738 0.973515 0.410474 -0.015212
C23   C     C_1   0.591019 0.516494 0.911518 0.022349
C24   C     C_1   0.408932 0.471589 0.089164 -0.015741
C25   C     C_1   0.129424 0.965874 0.373272 -0.193874
C26   C     C_1   0.870691 0.032712 0.626197 -0.199151
C27   C     C_1   0.370364 0.464943 0.126506 -0.194784
C28   C     C_1   0.629224 0.532429 0.873771 -0.188213
C29   C     C_R   0.433850 0.014065 0.365385 -0.254948
C30   C     C_R   0.564927 0.026382 0.633174 -0.241622
C31   C     C_R   0.066313 0.519110 0.134404 -0.262020
C32   C     C_R   0.934728 0.504613 0.867043 -0.239564
C33   C     C_R   0.379260 0.965060 0.385083 -0.172113
C34   C     C_R   0.621583 0.038142 0.613031 -0.182600
C35   C     C_R   0.120386 0.463074 0.115160 -0.167651
C36   C     C_R   0.878915 0.541067 0.886524 -0.195887
C37   C     C_R   0.371391 0.937279 0.451350 0.425271
C38   C     C_R   0.630251 0.048721 0.545772 0.405966
C39   C     C_R   0.127823 0.427173 0.049277 0.424850
C40   C     C_R   0.871533 0.583454 0.952540 0.398698
C41   C     C_R   0.418371 0.977282 0.498693 -0.097539
C42   C     C_R   0.581261 0.041358 0.499495 -0.077289
C43   C     C_R   0.081112 0.466121 0.001551 -0.097818
C44   C     C_R   0.919839 0.565919 0.999482 -0.079633
C45   C     C_R   0.474989 0.008051 0.476872 -0.106994
C46   C     C_R   0.524142 0.023265 0.521603 -0.108840
C47   C     C_R   0.025021 0.508319 0.023044 -0.105014
C48   C     C_R   0.976111 0.525677 0.978132 -0.110247
C49   C     C_R   0.482153 0.029678 0.410108 0.016154
C50   C     C_R   0.516002 0.023085 0.588415 0.002214
C51   C     C_R   0.018269 0.539064 0.089505 0.007690
C52   C     C_R   0.983796 0.507244 0.911550 0.001958
C53   C     C_R   0.409423 0.996446 0.565953 0.323553
C54   C     C_R   0.587573 0.058189 0.431678 0.321978
C55   C     C_R   0.090098 0.475218 0.934028 0.324061
C56   C     C_R   0.913722 0.592533 0.066818 0.339851
C57   C     C_R   0.458944 0.030266 0.610149 0.278737
C58   C     C_R   0.537193 0.072898 0.388743 0.284225
C59   C     C_R   0.040678 0.504831 0.889412 0.276081
C60   C     C_R   0.964032 0.594931 0.110419 0.287399
O21   O     O_3   0.918274 0.275245 0.484743 -0.574658
C61   C     C_3   0.931864 0.413951 0.531756 0.085526
H5    H     H_    0.949614 0.533348 0.506511 0.137270
H6    H     H_    0.965895 0.373504 0.570394 0.122042
C62   C     C_3   0.876063 0.475521 0.562413 -0.310998
H7    H     H_    0.856763 0.595094 0.535174 0.180978
H8    H     H_    0.843371 0.362528 0.559261 0.209381
C63   C     C_3   0.887496 0.528973 0.633637 -0.775847
H9    H     H_    0.845746 0.565203 0.654076 0.256889
H10   H     H_    0.916797 0.649773 0.639014 0.215300
H11   H     H_    0.907405 0.412466 0.661950 0.222442
O22   O     O_3   0.068344 0.668910 0.504920 -0.581499
C64   C     C_3   0.080679 0.582649 0.445455 0.089449
H12   H     H_    0.091428 0.436774 0.457311 0.149360
H13   H     H_    0.121605 0.638428 0.427895 0.143435
C65   C     C_3   0.030479 0.578622 0.391324 -0.368056
H14   H     H_    0.992007 0.507171 0.408581 0.202486
H15   H     H_    0.015056 0.717030 0.376226 0.202318
C66   C     C_3   0.050374 0.484639 0.330503 -0.835068
H16   H     H_    0.085406 0.567021 0.309862 0.231345
H17   H     H_    0.013015 0.474197 0.293730 0.258485
H18   H     H_    0.067472 0.344424 0.341506 0.233557
O23   O     O_3   0.580582 0.775170 0.014562 -0.572981
C67   C     C_3   0.566867 0.910926 0.966795 0.084177
H19   H     H_    0.546908 0.028617 0.990865 0.139220
H20   H     H_    0.534571 0.865577 0.926975 0.121226
C68   C     C_3   0.623030 0.977651 0.938361 -0.310747
H21   H     H_    0.640310 0.098593 0.966616 0.186338
H22   H     H_    0.656611 0.867454 0.942447 0.219687
C69   C     C_3   0.613267 0.030785 0.867027 -0.783979
H23   H     H_    0.655488 0.069989 0.848269 0.257254
H24   H     H_    0.583261 0.149350 0.860799 0.214635
H25   H     H_    0.594887 0.913119 0.837886 0.225010
O24   O     O_3   0.431574 0.165367 0.994936 -0.581577
C70   C     C_3   0.419722 0.080079 0.054660 0.088543
H26   H     H_    0.408967 0.933863 0.043037 0.149252
H27   H     H_    0.378920 0.135610 0.072568 0.143978
C71   C     C_3   0.470302 0.077663 0.108398 -0.369086
H28   H     H_    0.508659 0.006244 0.090878 0.203639
H29   H     H_    0.485742 0.216642 0.123153 0.202051
C72   C     C_3   0.450999 0.984610 0.169621 -0.830494
H30   H     H_    0.416901 0.068935 0.191175 0.230816
H31   H     H_    0.488893 0.972099 0.205586 0.259088
H32   H     H_    0.432936 0.845115 0.158897 0.231913
H33   H     H_    0.438654 0.034854 0.314198 0.165609
H34   H     H_    0.559190 0.021426 0.684747 0.163247
H35   H     H_    0.061811 0.543491 0.185463 0.168545
H36   H     H_    0.940047 0.481296 0.815972 0.163837
O25   O     O_3   0.316358 0.885315 0.468449 -0.559094
C73   C     C_3   0.317580 0.703981 0.494107 0.098540
H37   H     H_    0.283455 0.697227 0.529552 0.157360
H38   H     H_    0.359868 0.666880 0.520502 0.095396
C74   C     C_3   0.302696 0.560365 0.441335 -0.350932
H39   H     H_    0.261322 0.599554 0.413913 0.226802
H40   H     H_    0.338425 0.554585 0.407821 0.201851
C75   C     C_3   0.295518 0.369044 0.470325 -0.757154
H41   H     H_    0.336761 0.325482 0.497055 0.241039
H42   H     H_    0.284478 0.268282 0.430934 0.253499
H43   H     H_    0.259763 0.369069 0.503880 0.227308
O26   O     O_3   0.686001 0.047756 0.523824 -0.575680
C76   C     C_3   0.717157 0.214957 0.535760 0.112982
H44   H     H_    0.750801 0.221750 0.499705 0.154386
H45   H     H_    0.741779 0.208181 0.583252 0.120740
C77   C     C_3   0.681124 0.394444 0.529702 -0.359245
H46   H     H_    0.658053 0.402554 0.480860 0.214445
H47   H     H_    0.648265 0.398761 0.566656 0.190008
C78   C     C_3   0.720716 0.561959 0.540522 -0.800402
H48   H     H_    0.746765 0.551106 0.587356 0.251903
H49   H     H_    0.693871 0.688548 0.541600 0.254382
H50   H     H_    0.750965 0.572399 0.501117 0.221069
O27   O     O_3   0.182559 0.370349 0.032778 -0.558871
C79   C     C_3   0.180335 0.187787 0.008000 0.099875
H51   H     H_    0.213409 0.179113 0.971410 0.159171
H52   H     H_    0.137377 0.149248 0.983270 0.093532
C80   C     C_3   0.196698 0.047009 0.060984 -0.343820
H53   H     H_    0.238514 0.088627 0.087106 0.226856
H54   H     H_    0.161817 0.041678 0.095580 0.202102
C81   C     C_3   0.203753 0.854832 0.032393 -0.761470
H55   H     H_    0.162099 0.808809 0.006986 0.238910
H56   H     H_    0.216101 0.755972 0.071801 0.253118
H57   H     H_    0.238609 0.854827 0.997710 0.227358
O28   O     O_3   0.817250 0.637043 0.971745 -0.556680
C82   C     C_3   0.804142 0.819475 0.950669 0.124036
H58   H     H_    0.766033 0.812754 0.914869 0.151353
H59   H     H_    0.840735 0.890847 0.927803 0.104020
C83   C     C_3   0.786162 0.938728 0.006737 -0.323516
H60   H     H_    0.747621 0.876333 0.028035 0.215758
H61   H     H_    0.822594 0.946184 0.044700 0.226360
C84   C     C_3   0.771042 0.133854 0.983190 -0.827881
H62   H     H_    0.810863 0.205211 0.968520 0.239447
H63   H     H_    0.752220 0.213756 0.022556 0.247199
H64   H     H_    0.738886 0.130388 0.940734 0.234922
O29   O     O_3   0.351363 0.009100 0.582470 -0.561643
C85   C     C_3   0.338560 0.953372 0.645645 0.158735
H65   H     H_    0.290296 0.958356 0.646721 0.122829
H66   H     H_    0.353620 0.055616 0.682871 0.154167
C86   C     C_3   0.356875 0.754436 0.663092 -0.344960
H67   H     H_    0.332939 0.656036 0.630000 0.170023
H68   H     H_    0.404195 0.733811 0.658499 0.197986
C87   C     C_3   0.342614 0.708437 0.732237 -0.823846
H69   H     H_    0.368385 0.797598 0.767316 0.247109
H70   H     H_    0.353511 0.562087 0.742872 0.232210
H71   H     H_    0.295358 0.728757 0.738277 0.223680
O30   O     O_3   0.642284 0.086671 0.408516 -0.553784
C88   C     C_3   0.656180 0.946700 0.364022 0.129130
H72   H     H_    0.688986 0.004464 0.332556 0.135503
H73   H     H_    0.618745 0.900933 0.331053 0.141841
C89   C     C_3   0.682730 0.779280 0.399537 -0.320151
H74   H     H_    0.722352 0.823137 0.429393 0.234389
H75   H     H_    0.650389 0.721660 0.431564 0.196217
C90   C     C_3   0.699341 0.629616 0.352205 -0.859992
H76   H     H_    0.660288 0.583615 0.321810 0.227660
H77   H     H_    0.717735 0.509104 0.379545 0.252022
H78   H     H_    0.732656 0.682406 0.320401 0.234805
O31   O     O_3   0.148233 0.482627 0.917420 -0.561705
C91   C     C_3   0.160804 0.423195 0.854533 0.157933
H79   H     H_    0.209088 0.426781 0.853515 0.123966
H80   H     H_    0.146114 0.523769 0.816767 0.153490
C92   C     C_3   0.141857 0.223859 0.838124 -0.344601
H81   H     H_    0.164107 0.126884 0.872869 0.170649
H82   H     H_    0.094186 0.206283 0.840969 0.199740
C93   C     C_3   0.158167 0.171285 0.770185 -0.826871
H83   H     H_    0.133859 0.258302 0.733403 0.246533
H84   H     H_    0.147040 0.024471 0.760462 0.233018
H85   H     H_    0.205785 0.189209 0.765845 0.223003
O32   O     O_3   0.858675 0.627639 0.088261 -0.558544
C94   C     C_3   0.842675 0.508904 0.138808 0.146520
H86   H     H_    0.794570 0.520789 0.140309 0.142239
H87   H     H_    0.860724 0.558776 0.186753 0.144831
C95   C     C_3   0.857619 0.303672 0.129295 -0.363459
H88   H     H_    0.848301 0.264809 0.077965 0.213211
H89   H     H_    0.904733 0.280554 0.141741 0.186915
C96   C     C_3   0.823034 0.179103 0.172112 -0.835447
H90   H     H_    0.832354 0.215809 0.223935 0.236392
H91   H     H_    0.835648 0.033173 0.164949 0.231113
H92   H     H_    0.775515 0.192847 0.159177 0.237374
O33   O     O_3   0.452389 0.069843 0.674707 -0.581186
C97   C     C_3   0.459047 0.262097 0.684969 0.047512
H93   H     H_    0.420262 0.336545 0.662925 0.118212
H94   H     H_    0.498695 0.317304 0.663432 0.134155
C98   C     C_3   0.464533 0.300275 0.757879 -0.291061
H95   H     H_    0.421051 0.284713 0.777763 0.187274
H96   H     H_    0.494613 0.198241 0.782293 0.203752
C99   C     C_3   0.488312 0.493557 0.772832 -0.839860
H97   H     H_    0.534846 0.502057 0.761597 0.227343
H98   H     H_    0.484929 0.525220 0.824888 0.240922
H99   H     H_    0.463253 0.598591 0.743938 0.247483
O34   O     O_3   0.542089 0.121110 0.324477 -0.585172
C100  C     C_3   0.551311 0.313551 0.319381 0.101188
H100  H     H_    0.579602 0.336016 0.278635 0.143399
H101  H     H_    0.574711 0.376200 0.363164 0.121560
C101  C     C_3   0.493197 0.412865 0.303931 -0.344245
H102  H     H_    0.470453 0.350627 0.260002 0.204399
H103  H     H_    0.464978 0.396835 0.345102 0.196858
C102  C     C_3   0.502439 0.617986 0.292122 -0.820214
H104  H     H_    0.524365 0.683605 0.335819 0.235102
H105  H     H_    0.459514 0.685419 0.281393 0.237214
H106  H     H_    0.529476 0.638659 0.250195 0.233848
O35   O     O_3   0.047214 0.538001 0.824439 -0.581479
C103  C     C_3   0.041599 0.729795 0.812690 0.049206
H107  H     H_    0.079970 0.804768 0.835753 0.117447
H108  H     H_    0.001370 0.787288 0.832260 0.136334
C104  C     C_3   0.038503 0.764289 0.739645 -0.292713
H109  H     H_    0.082740 0.748379 0.721688 0.186413
H110  H     H_    0.009237 0.660845 0.714481 0.205647
C105  C     C_3   0.015081 0.956853 0.723184 -0.842296
H111  H     H_    0.967721 0.963508 0.730768 0.228532
H112  H     H_    0.021715 0.989286 0.671898 0.243263
H113  H     H_    0.037987 0.062806 0.754004 0.246849
O36   O     O_3   0.959850 0.644438 0.174649 -0.585106
C106  C     C_3   0.958402 0.839080 0.180551 0.087757
H114  H     H_    0.928636 0.872757 0.219022 0.146122
H115  H     H_    0.940576 0.911173 0.135816 0.113347
C107  C     C_3   0.019340 0.913465 0.201298 -0.333060
H116  H     H_    0.036815 0.840224 0.245571 0.204003
H117  H     H_    0.049153 0.889431 0.162069 0.195890
C108  C     C_3   0.018034 0.119461 0.215477 -0.829811
H118  H     H_    0.002895 0.195897 0.171131 0.238460
H119  H     H_    0.062686 0.167554 0.231213 0.235130
H120  H     H_    0.988532 0.148757 0.254602 0.239489

loop_
_geom_bond_atom_site_label_1
_geom_bond_atom_site_label_2
_ccdc_geom_bond_type
O17   V3    S    
C12   C19   A    
C55   C59   A    
O31   C91   S    
O1    C5    A    
C62   H7    S    
C78   H49   S    
O13   V1    S    
C45   C46   A    
O3    C7    A    
O23   C67   S    
C53   O29   S    
C47   C48   A    
C106  C107  S    
O15   V3    S    
C107  C108  S    
C67   H20   S    
C61   H5    S    
C76   H44   S    
C104  H109  S    
O29   C85   S    
C30   H34   S    
O7    C3    A    
C82   H59   S    
O5    C1    A    
C64   H12   S    
C95   C96   S    
C87   H71   S    
C36   C40   A    
O2    V4    S    
C80   H54   S    
C10   C14   A    
C96   H92   S    
C74   H40   S    
O4    C8    A    
C86   H68   S    
O19   V1    S    
O28   C82   S    
C8    C26   S    
C21   C26   T    
C63   H11   S    
O1    V3    S    
O34   C100  S    
H4    C19   S    
C87   H70   S    
C23   C28   T    
C14   C18   A    
C31   H35   S    
O3    V1    S    
C85   H65   S    
C65   H14   S    
C10   C17   A    
C105  H112  S    
C70   H27   S    
C69   H23   S    
C40   O28   S    
C1    O15   A    
C3    O13   A    
C86   H67   S    
C80   H53   S    
C2    O16   A    
C102  H105  S    
C63   H10   S    
C102  H104  S    
C42   C46   A    
C90   H78   S    
C66   H16   S    
C77   C78   S    
C41   C45   A    
O14   V2    S    
C82   H58   S    
C55   O31   S    
C108  H118  S    
C32   H36   S    
C43   C55   A    
C103  C104  S    
C60   O36   S    
C72   H32   S    
C37   O25   S    
C84   H64   S    
O11   C7    A    
C90   H76   S    
O12   C8    A    
C96   H91   S    
C100  H100  S    
C78   H50   S    
C81   H56   S    
H1    C18   S    
C66   H17   S    
C29   H33   S    
C52   C59   A    
O10   V2    S    
C75   H43   S    
C42   C54   A    
H3    C20   S    
C13   C21   S    
C51   C60   A    
C98   H95   S    
C56   O32   S    
C7    C25   S    
O5    V1    S    
C61   H6    S    
C82   C83   S    
C35   C39   A    
C43   C47   A    
C22   C25   T    
O7    V3    S    
C103  H108  S    
C34   C38   A    
C92   H81   S    
O8    V4    S    
C79   C80   S    
C29   C49   A    
C70   H26   S    
C80   C81   S    
O26   C76   S    
C89   H75   S    
C74   C75   S    
C31   C51   A    
C5    C27   S    
C30   C50   A    
O32   C94   S    
C75   H41   S    
C86   C87   S    
C107  H117  S    
C105  H113  S    
C88   H73   S    
C54   C58   A    
O11   V3    S    
C101  C102  S    
C58   O34   S    
C70   C71   S    
C40   C44   A    
C69   H25   S    
C79   H52   S    
C94   H86   S    
O2    C6    A    
C96   H90   S    
C33   C37   A    
C92   C93   S    
C4    C34   S    
C95   H89   S    
O27   C79   S    
C91   C92   S    
O8    C4    A    
C68   C69   S    
C63   H9    S    
C101  H103  S    
O33   C97   S    
O9    C5    A    
C44   C48   A    
C97   H93   S    
H2    C17   S    
C91   H79   S    
C39   O27   S    
C59   O35   S    
C108  H119  S    
C83   C84   S    
C65   C66   S    
C44   C56   A    
C73   H38   S    
C30   C34   A    
C14   C22   S    
O4    V2    S    
C50   C57   A    
C75   H42   S    
O6    V2    S    
C104  H110  S    
C77   H47   S    
C49   C58   A    
C88   H72   S    
C62   C63   S    
C97   H94   S    
C100  H101  S    
C81   H55   S    
C66   H18   S    
C76   C77   S    
C57   O33   S    
C106  H114  S    
C93   H85   S    
C103  H107  S    
C61   C62   S    
C92   H82   S    
C72   H30   S    
O16   V4    S    
C67   H19   S    
O9    V1    S    
C68   H22   S    
C32   C52   A    
C102  H106  S    
C71   H29   S    
C94   C95   S    
C85   H66   S    
C54   O30   S    
C99   H98   S    
C1    C35   S    
C38   O26   S    
C2    C36   S    
C48   C52   A    
C91   H80   S    
C89   H74   S    
C106  H115  S    
C73   C74   S    
O6    C2    A    
C11   C15   A    
O35   C103  S    
C24   C27   T    
C29   C33   A    
C107  H116  S    
O18   V4    S    
C9    O21   S    
O12   V4    S    
C97   C98   S    
C12   O24   S    
O25   C73   S    
C89   C90   S    
C31   C35   A    
C71   C72   S    
C64   H13   S    
C6    C28   S    
C32   C36   A    
O30   C88   S    
O10   C6    A    
C105  H111  S    
C76   H45   S    
C65   H15   S    
O24   C70   S    
C98   H96   S    
C13   C17   A    
C74   H39   S    
C79   H51   S    
C88   C89   S    
C101  H102  S    
C11   O23   S    
C10   O22   S    
C16   C24   S    
C95   H88   S    
C38   C42   A    
C56   C60   A    
C15   C19   A    
C15   C23   S    
C71   H28   S    
C37   C41   A    
O20   V2    S    
C99   H97   S    
C83   H61   S    
C84   H63   S    
O36   C106  S    
C39   C43   A    
C99   H99   S    
C3    C33   S    
C9    C13   A    
C104  C105  S    
C108  H120  S    
C69   H24   S    
C94   H87   S    
C41   C53   A    
C73   H37   S    
C84   H62   S    
C98   C99   S    
C16   C20   A    
C12   C16   A    
C77   H46   S    
C81   H57   S    
C62   H8    S    
C93   H83   S    
C46   C50   A    
C100  C101  S    
C4    O14   A    
C78   H48   S    
C90   H77   S    
C45   C49   A    
C87   H69   S    
O22   C64   S    
C64   C65   S    
C93   H84   S    
C9    C18   A    
O21   C61   S    
C47   C51   A    
C85   C86   S    
C67   C68   S    
C53   C57   A    
C68   H21   S    
C11   C20   A    
C72   H31   S    
C83   H60   S    
