data_mof_unit_20791.cif
_audit_creation_date              2012-12-10T17:32:13-0500
_audit_creation_method            fapswitch 2.2
_symmetry_space_group_name_H-M    P1
_symmetry_Int_Tables_number       1
_space_group_crystal_system       triclinic
_cell_length_a                    12.334764
_cell_length_b                    13.0928
_cell_length_c                    15.073582
_cell_angle_alpha                 77.716631
_cell_angle_beta                  100.897629
_cell_angle_gamma                 116.479144
_cell_volume                      2116.69614921

loop_
_atom_site_label
_atom_site_type_symbol
_atom_type_description
_atom_site_fract_x
_atom_site_fract_y
_atom_site_fract_z
_atom_type_partial_charge
C1    C     C_R   0.855221 0.286227 0.508698 0.823465
C2    C     C_R   0.947329 0.554320 0.074864 0.118523
C3    C     C_R   0.079756 0.342264 0.083213 0.114243
C4    C     C_R   0.080789 0.346936 0.989490 0.130291
C5    C     C_R   0.036751 0.417913 0.925218 0.067804
C6    C     C_R   0.990345 0.484832 0.954113 0.015314
C7    C     C_R   0.944053 0.554544 0.888599 0.103975
C8    C     C_R   0.899057 0.622072 0.916224 -0.250654
C9    C     C_R   0.901157 0.623649 0.008877 0.161417
C10   C     C_R   0.039066 0.423914 0.831783 -0.205654
C11   C     C_R   0.993823 0.493373 0.767562 -0.090237
C12   C     C_R   0.998367 0.498611 0.670921 0.802295
C13   C     C_R   0.944658 0.557113 0.795770 -0.231620
C14   C     C_R   0.284644 0.015695 0.358370 0.180727
C15   C     C_R   0.229270 0.835511 0.462891 -0.085232
C16   C     C_R   0.810773 0.087031 0.581156 -0.210710
C17   C     C_R   0.729067 0.973829 0.604754 -0.146596
C18   C     C_R   0.607979 0.935903 0.567756 -0.166265
C19   C     C_R   0.566915 0.009695 0.501945 0.045955
C20   C     C_R   0.654726 0.120427 0.468666 0.087708
C21   C     C_R   0.442086 0.976082 0.466985 0.029743
C22   C     C_R   0.408272 0.048367 0.393803 0.115829
C23   C     C_R   0.145290 0.713912 0.485354 0.808549
C24   C     C_R   0.498908 0.148988 0.353833 -0.269934
C25   C     C_R   0.621044 0.183592 0.388291 0.121873
C26   C     C_R   0.349669 0.872175 0.502557 -0.236387
C27   C     C_R   0.196745 0.908141 0.392158 -0.238403
C28   C     C_R   0.774041 0.162390 0.515850 -0.087360
C29   C     C_R   0.346594 0.328432 0.647836 -0.300189
C30   C     C_R   0.754392 0.647089 0.375907 0.352972
C31   C     C_R   0.648474 0.662326 0.341589 0.139850
C32   C     C_R   0.544248 0.599601 0.385534 -0.321431
C33   C     C_R   0.544680 0.522537 0.465609 -0.026653
C34   C     C_R   0.998388 0.495926 0.329417 0.820428
C35   C     C_R   0.650842 0.500096 0.493681 0.229923
C36   C     C_R   0.442821 0.467079 0.518319 -0.003873
C37   C     C_R   0.444903 0.384116 0.595028 0.168021
C38   C     C_R   0.545595 0.358352 0.619145 -0.279700
C39   C     C_R   0.646637 0.415901 0.570412 -0.156109
C40   C     C_R   0.339612 0.492833 0.499730 0.005384
C41   C     C_R   0.247581 0.356716 0.625472 0.076292
C42   C     C_R   0.951525 0.556075 0.167385 -0.268630
C43   C     C_R   0.995462 0.487723 0.233473 -0.119323
C44   C     C_R   0.032973 0.411337 0.207955 0.116363
C45   C     C_R   0.034749 0.410860 0.114079 0.043415
C46   C     C_R   0.990817 0.483081 0.047867 -0.067514
Cu1   Cu    Cu3+1 0.098270 0.475420 0.521130 0.928981
Cu2   Cu    Cu3+1 0.901730 0.524580 0.478870 0.917515
H1    H     H_    0.368686 0.815653 0.560069 0.149634
H2    H     H_    0.901992 0.116807 0.616642 0.150005
H3    H     H_    0.758588 0.916203 0.654971 0.138733
H4    H     H_    0.346701 0.264017 0.706410 0.140749
H5    H     H_    0.465323 0.615205 0.356192 0.147181
H6    H     H_    0.075011 0.373710 0.808172 0.178665
H7    H     H_    0.909675 0.610911 0.745485 0.152781
H8    H     H_    0.104677 0.879248 0.359610 0.141662
N1    N     N_R   0.246280 0.438190 0.553160 -0.183330
N2    N     N_R   0.754320 0.561190 0.447410 -0.246496
O1    O     O_R   0.972510 0.318130 0.526570 -0.592627
O2    O     O_R   0.806530 0.359650 0.490890 -0.579351
O3    O     O_R   0.082980 0.479210 0.647590 -0.584118
O4    O     O_R   0.917000 0.520730 0.611900 -0.600678
O5    O     O_R   0.193470 0.640350 0.509110 -0.577436
O6    O     O_R   0.027490 0.681870 0.473430 -0.597962
O7    O     O_R   0.083000 0.479270 0.388100 -0.594099
O8    O     O_R   0.917020 0.520790 0.352410 -0.595953
H9    H     H_    0.921201 0.611959 0.188972 0.181535
H10   H     H_    0.476231 0.200521 0.293389 0.176895
N3    N     N_3   0.249586 0.089667 0.285574 -0.602140
H11   H     H_    0.261443 0.161616 0.312640 0.216288
H12   H     H_    0.156893 0.049080 0.262990 0.224149
H13   H     H_    0.549837 0.847364 0.590642 0.130865
N4    N     N_3   0.711009 0.276033 0.335468 -0.581302
H14   H     H_    0.703131 0.251400 0.272116 0.213742
H15   H     H_    0.690957 0.347778 0.323552 0.248629
H16   H     H_    0.171453 0.313744 0.665970 0.121284
H17   H     H_    0.547589 0.294586 0.677830 0.153344
N5    N     N_3   0.062660 0.330620 0.276734 -0.624402
H18   H     H_    0.993166 0.286283 0.319533 0.238473
H19   H     H_    0.145619 0.374284 0.314285 0.241289
H20   H     H_    0.331729 0.557065 0.444322 0.128502
N6    N     N_3   0.863832 0.733588 0.340946 -0.573097
H21   H     H_    0.913632 0.784859 0.391723 0.222173
H22   H     H_    0.913154 0.698458 0.319401 0.246195
N7    N     N_3   0.649531 0.747364 0.263721 -0.561936
H23   H     H_    0.581908 0.706114 0.213526 0.219341
H24   H     H_    0.626512 0.806750 0.282999 0.221803
H25   H     H_    0.719807 0.391939 0.596286 0.202687
N8    N     N_3   0.128421 0.268697 0.144016 -0.601527
H26   H     H_    0.202667 0.317331 0.186825 0.242364
H27   H     H_    0.060075 0.202200 0.180714 0.253679
N9    N     N_3   0.127344 0.278739 0.959182 -0.610294
H28   H     H_    0.076648 0.191891 0.983482 0.239511
H29   H     H_    0.217948 0.302263 0.987348 0.244442
H30   H     H_    0.863979 0.675307 0.865421 0.135843
N10   N     N_3   0.856625 0.695615 0.036196 -0.592222
H31   H     H_    0.932317 0.765402 0.060512 0.213819
H32   H     H_    0.813053 0.730176 0.979957 0.218331

loop_
_geom_bond_atom_site_label_1
_geom_bond_atom_site_label_2
_ccdc_geom_bond_type
C16   C28   A    
C21   C26   A    
C31   N7    S    
N4    H14   S    
C19   C20   A    
C13   H7    S    
C17   H3    S    
C7    C8    A    
N7    H23   S    
C2    C46   A    
C35   N2    A    
C36   C37   A    
C19   C21   A    
C16   H2    S    
C1    O1    A    
Cu1   O5    S    
C30   C31   A    
N5    H19   S    
Cu2   O6    S    
C20   C25   A    
C33   C36   A    
C18   C19   A    
N3    H12   S    
C15   C27   A    
C31   C32   A    
C16   C17   A    
N10   H32   S    
C1    C28   S    
C14   C27   A    
N8    H27   S    
C15   C23   S    
C21   C22   A    
N4    H15   S    
C34   O8    A    
C8    H30   S    
C39   H25   S    
C34   O7    A    
Cu2   O2    S    
N7    H24   S    
C18   H13   S    
C38   C39   A    
C36   C40   A    
C24   C25   A    
C26   H1    S    
N5    H18   S    
C8    C9    A    
C15   C26   A    
C20   C28   A    
C45   C46   A    
C3    C45   A    
C30   N6    S    
C35   C39   A    
C43   C44   A    
C37   C38   A    
Cu1   N1    S    
C12   O4    A    
Cu2   O4    S    
Cu1   Cu2   S    
N10   H31   S    
N9    H29   S    
C17   C18   A    
C9    N10   S    
C23   O6    A    
N6    H22   S    
C42   H9    S    
C14   N3    S    
C22   C24   A    
C1    O2    A    
C42   C43   A    
C3    C4    A    
C32   H5    S    
C44   C45   A    
C40   N1    A    
C6    C46   A    
C29   C41   A    
C27   H8    S    
C40   H20   S    
C34   C43   S    
C4    C5    A    
Cu1   O3    S    
C11   C12   S    
Cu2   N2    S    
C6    C7    A    
C38   H17   S    
C3    N8    S    
C32   C33   A    
C14   C22   A    
C44   N5    S    
C41   N1    A    
C5    C10   A    
C41   H16   S    
C12   O3    A    
C11   C13   A    
C5    C6    A    
C2    C42   A    
C30   N2    A    
C23   O5    A    
N9    H28   S    
C33   C35   A    
C25   N4    S    
N3    H11   S    
C10   H6    S    
C10   C11   A    
C24   H10   S    
Cu1   O1    S    
C7    C13   A    
N6    H21   S    
C29   C37   A    
Cu2   O8    S    
N8    H26   S    
C2    C9    A    
Cu1   O7    S    
C4    N9    S    
C29   H4    S    
