data_mof_unit_36800.cif
_audit_creation_date              2012-12-11T16:58:25-0500
_audit_creation_method            fapswitch 2.2
_symmetry_space_group_name_H-M    P1
_symmetry_Int_Tables_number       1
_space_group_crystal_system       triclinic
_cell_length_a                    16.87812
_cell_length_b                    7.248798
_cell_length_c                    16.913501
_cell_angle_alpha                 90.000016
_cell_angle_beta                  100.468929
_cell_angle_gamma                 90.0
_cell_volume                      2034.85415796

loop_
_atom_site_label
_atom_site_type_symbol
_atom_type_description
_atom_site_fract_x
_atom_site_fract_y
_atom_site_fract_z
_atom_type_partial_charge
O1    O     O_R   0.413450 0.494370 0.415710 -0.542273
O2    O     O_R   0.586550 0.994370 0.584290 -0.542274
O3    O     O_R   0.578420 0.819350 0.429360 -0.537549
O4    O     O_R   0.421580 0.319350 0.570640 -0.537549
C1    C     C_R   0.604550 0.654150 0.413688 0.719815
C2    C     C_R   0.395450 0.154150 0.586312 0.719815
O5    O     O_R   0.413570 0.823780 0.406240 -0.531883
O6    O     O_R   0.586430 0.323780 0.593760 -0.531883
O7    O     O_R   0.420530 0.998740 0.561000 -0.535674
O8    O     O_R   0.579470 0.498740 0.439000 -0.535674
C3    C     C_R   0.385741 0.655451 0.384014 0.703952
C4    C     C_R   0.614259 0.155451 0.615986 0.703952
O9    O     O_3   0.502480 0.662320 0.550800 -0.383918
O10   O     O_3   0.497520 0.162320 0.449200 -0.383919
V1    V     V_3+5 0.499540 0.935370 0.490580 1.443261
V2    V     V_3+5 0.500460 0.435370 0.509420 1.443263
C5    C     C_R   0.740430 0.001520 0.690064 0.120592
C6    C     C_R   0.259570 0.501519 0.309936 0.120592
C7    C     C_R   0.685351 0.148143 0.682186 -0.102676
C8    C     C_R   0.314648 0.648143 0.317814 -0.102676
C9    C     C_R   0.703757 0.295224 0.737222 -0.124699
C10   C     C_R   0.296242 0.795224 0.262779 -0.124699
H1    H     H_    0.665472 0.415945 0.732450 0.126006
H2    H     H_    0.334527 0.915946 0.267551 0.126006
C11   C     C_R   0.769542 0.283940 0.801931 -0.172305
C12   C     C_R   0.230458 0.783940 0.198070 -0.172304
H3    H     H_    0.779530 0.396908 0.844420 0.126229
H4    H     H_    0.220470 0.896908 0.155580 0.126229
C13   C     C_R   0.818606 0.124459 0.814147 -0.101101
C14   C     C_R   0.181394 0.624459 0.185853 -0.101101
C15   C     C_R   0.804247 0.989205 0.754284 0.085347
C16   C     C_R   0.195753 0.489205 0.245716 0.085346
C17   C     C_3   0.799499 0.783786 0.757102 -0.456367
C18   C     C_3   0.200501 0.283785 0.242898 -0.456366
C19   C     C_3   0.730111 0.796824 0.685033 -0.195581
C20   C     C_3   0.269889 0.296823 0.314966 -0.195581
H5    H     H_    0.779922 0.734172 0.812694 0.159231
H6    H     H_    0.220078 0.234171 0.187306 0.159231
H7    H     H_    0.855090 0.717279 0.743988 0.193095
H8    H     H_    0.144910 0.217279 0.256012 0.193095
H9    H     H_    0.670984 0.750416 0.697982 0.103020
H10   H     H_    0.329016 0.250415 0.302017 0.103018
C21   C     C_R   0.332025 0.134498 0.636217 -0.067095
C22   C     C_R   0.667975 0.634498 0.363783 -0.067095
C23   C     C_R   0.163093 0.134122 0.858338 -0.144771
C24   C     C_R   0.836907 0.634122 0.141662 -0.144770
C25   C     C_R   0.276554 0.310090 0.825578 -0.181185
C26   C     C_R   0.723446 0.810088 0.174421 -0.181186
C27   C     C_R   0.221652 0.273865 0.876127 -0.193806
C28   C     C_R   0.778347 0.773864 0.123873 -0.193807
C29   C     C_R   0.160762 0.027766 0.787126 0.287852
C30   C     C_R   0.839238 0.527767 0.212874 0.287853
C31   C     C_R   0.218350 0.061804 0.737217 0.116733
C32   C     C_R   0.781650 0.561805 0.262783 0.116734
C33   C     C_R   0.275492 0.206037 0.755846 0.094939
C34   C     C_R   0.724508 0.706037 0.244154 0.094939
C35   C     C_R   0.331118 0.243357 0.704712 -0.209716
C36   C     C_R   0.668882 0.743356 0.295288 -0.209717
C37   C     C_R   0.275399 0.991125 0.618546 -0.193290
C38   C     C_R   0.724601 0.491125 0.381454 -0.193290
C39   C     C_R   0.218911 0.956483 0.667594 -0.133037
C40   C     C_R   0.781090 0.456484 0.332406 -0.133038
H11   H     H_    0.375325 0.352265 0.719678 0.114481
H12   H     H_    0.624675 0.852264 0.280322 0.114481
H13   H     H_    0.274846 0.904657 0.566191 0.169475
H14   H     H_    0.725154 0.404657 0.433808 0.169476
H15   H     H_    0.320046 0.420129 0.841212 0.125828
H16   H     H_    0.679954 0.920127 0.158788 0.125828
H17   H     H_    0.176357 0.845092 0.651105 0.180247
H18   H     H_    0.823643 0.345093 0.348895 0.180248
H19   H     H_    0.224624 0.357562 0.929672 0.137778
H20   H     H_    0.775375 0.857560 0.070328 0.137777
O11   O     O_R   0.920630 0.775410 0.061150 -0.530147
O12   O     O_R   0.079370 0.275410 0.938850 -0.530148
O13   O     O_R   0.086500 0.441450 0.093690 -0.541537
O14   O     O_R   0.913500 0.941450 0.906310 -0.541537
C41   C     C_R   0.114158 0.610305 0.116027 0.681424
C42   C     C_R   0.885842 0.110305 0.883973 0.681423
O15   O     O_R   0.921670 0.445960 0.070740 -0.536103
O16   O     O_R   0.078330 0.945960 0.929260 -0.536102
O17   O     O_R   0.913380 0.271130 0.915780 -0.536260
O18   O     O_R   0.086620 0.771130 0.084220 -0.536259
C43   C     C_R   0.897213 0.615460 0.087603 0.677351
C44   C     C_R   0.102787 0.115460 0.912397 0.677351
O19   O     O_3   0.997500 0.603030 0.949220 -0.371310
O20   O     O_3   0.002500 0.103030 0.050780 -0.371310
V3    V     V_3+5 0.000470 0.329940 0.009420 1.430029
V4    V     V_3+5 0.999530 0.829940 0.990580 1.430030
O21   O     O_3   0.102264 0.895705 0.762948 -0.645599
H21   H     H_    0.053474 0.926707 0.784894 0.294417
O22   O     O_3   0.897736 0.395707 0.237052 -0.645601
H22   H     H_    0.946525 0.426705 0.215106 0.294420
C45   C     C_2   0.750900 0.717265 0.609035 0.807453
O23   O     O_2   0.752682 0.549970 0.600697 -0.564023
O24   O     O_R   0.768644 0.833778 0.548636 -0.660032
H23   H     H_    0.784580 0.763446 0.502198 0.293382
C46   C     C_2   0.249100 0.217264 0.390965 0.807452
O25   O     O_2   0.247316 0.049969 0.399301 -0.564023
O26   O     O_R   0.231358 0.333777 0.451365 -0.660032
H24   H     H_    0.215421 0.263446 0.497802 0.293382

loop_
_geom_bond_atom_site_label_1
_geom_bond_atom_site_label_2
_ccdc_geom_bond_type
C14   C16   A    
C45   O23   D    
C31   C33   A    
C20   H10   S    
O24   H23   S    
O1    C3    A    
O16   C44   A    
O2    C4    A    
C2    O7    A    
O15   V3    S    
C46   O25   D    
C25   C27   A    
O5    C3    A    
C17   H7    S    
C18   H8    S    
C7    C9    A    
O14   C42   A    
C23   C29   A    
C24   C30   A    
C40   H18   S    
C38   C40   A    
C28   H20   S    
C17   C19   S    
C14   C41   S    
C31   C39   A    
C13   C42   S    
C22   C36   A    
C15   C17   S    
C20   C46   S    
O12   V3    S    
O14   V4    S    
C18   C20   S    
C21   C37   A    
C26   C28   A    
C38   H14   S    
O6    V2    S    
C11   C13   A    
C25   H15   S    
C46   O26   S    
C30   C32   A    
C35   H11   S    
C19   C45   S    
C36   H12   S    
C32   C34   A    
C3    C8    S    
C37   C39   A    
O4    C2    A    
O22   H22   S    
O20   V3    S    
C32   C40   A    
C17   H5    S    
C29   C31   A    
C16   C18   S    
O4    V2    S    
O11   V4    S    
O26   H24   S    
C23   C27   A    
O6    C4    A    
O1    V2    S    
C26   H16   S    
O2    V1    S    
O13   C41   A    
O17   V3    S    
O13   V3    S    
C1    C22   S    
C8    C10   A    
C12   C14   A    
C2    C21   S    
C33   C35   A    
C10   C12   A    
C5    C15   A    
C10   H2    S    
C23   C44   S    
C6    C16   A    
O3    V1    S    
C25   C33   A    
O19   V4    S    
C39   H17   S    
C26   C34   A    
C9    C11   A    
C18   H6    S    
O12   C44   A    
O3    C1    A    
C11   H3    S    
C24   C28   A    
C12   H4    S    
C9    H1    S    
O7    V1    S    
C1    O8    A    
O16   V4    S    
O8    V2    S    
C29   O21   S    
O15   C43   A    
C42   O17   A    
C45   O24   S    
C41   O18   A    
C22   C38   A    
O18   V4    S    
C4    C7    S    
O5    V1    S    
C5    C7    A    
C34   C36   A    
C6    C8    A    
C19   H9    S    
C21   C35   A    
C24   C43   S    
C13   C15   A    
C27   H19   S    
O9    V2    S    
O10   V1    S    
C30   O22   S    
C5    C19   S    
O21   H21   S    
C6    C20   S    
O11   C43   A    
C37   H13   S    
