data_mof_unit_40187.cif
_audit_creation_date              2012-12-10T17:54:15-0500
_audit_creation_method            fapswitch 2.2
_symmetry_space_group_name_H-M    P1
_symmetry_Int_Tables_number       1
_space_group_crystal_system       triclinic
_cell_length_a                    27.732778
_cell_length_b                    10.704038
_cell_length_c                    9.889222
_cell_angle_alpha                 87.717262
_cell_angle_beta                  89.737772
_cell_angle_gamma                 92.160138
_cell_volume                      2931.17396693

loop_
_atom_site_label
_atom_site_type_symbol
_atom_type_description
_atom_site_fract_x
_atom_site_fract_y
_atom_site_fract_z
_atom_type_partial_charge
C1    C     C_R   0.502293 0.259551 0.503706 0.892892
C2    C     C_R   0.972405 0.391978 0.475614 0.047897
C3    C     C_R   0.977351 0.620029 0.503777 0.031061
C4    C     C_R   0.406064 0.498683 0.500422 0.870460
C5    C     C_R   0.949574 0.507795 0.488050 0.077683
C6    C     C_R   0.943599 0.284180 0.449169 -0.203672
C7    C     C_R   0.893879 0.288148 0.444255 -0.132829
C8    C     C_R   0.870960 0.399558 0.465196 -0.015631
C9    C     C_R   0.898473 0.510810 0.485504 -0.051315
C10   C     C_R   0.874803 0.624139 0.503827 -0.101261
C11   C     C_R   0.823874 0.619033 0.512294 0.526705
C12   C     C_R   0.277660 0.483771 0.381766 -0.094722
C13   C     C_R   0.820744 0.401828 0.466007 0.511534
C14   C     C_R   0.722675 0.508332 0.617228 -0.091096
C15   C     C_R   0.672519 0.505373 0.619716 -0.205700
C16   C     C_R   0.495884 0.738911 0.497624 0.885494
C17   C     C_R   0.671642 0.503212 0.374026 -0.204559
C18   C     C_R   0.721718 0.506137 0.371950 -0.090637
C19   C     C_R   0.747179 0.508687 0.493373 0.313739
C20   C     C_R   0.023147 0.387496 0.488297 0.046924
C21   C     C_R   0.051012 0.500744 0.496632 0.072715
C22   C     C_R   0.028493 0.617544 0.500474 0.056939
C23   C     C_R   0.252954 0.487620 0.504833 0.316270
C24   C     C_R   0.047132 0.273001 0.494365 -0.206898
C25   C     C_R   0.108060 0.723625 0.501494 -0.126683
C26   C     C_R   0.953052 0.731734 0.521509 -0.254017
C27   C     C_R   0.902932 0.736136 0.517642 -0.003646
C28   C     C_R   0.593949 0.500590 0.499611 0.881340
C29   C     C_R   0.058194 0.728176 0.499730 -0.205328
C30   C     C_R   0.489012 0.094496 0.763251 -0.225678
C31   C     C_R   0.466927 0.021514 0.869488 0.012681
C32   C     C_R   0.442031 0.910276 0.839783 -0.164630
C33   C     C_R   0.445496 0.863760 0.711147 -0.165934
C34   C     C_R   0.102008 0.497133 0.500595 -0.052297
C35   C     C_R   0.473758 0.928751 0.609953 0.101001
C36   C     C_R   0.488813 0.052602 0.628858 0.102252
C37   C     C_R   0.504671 0.125310 0.512255 -0.118858
C38   C     C_R   0.516532 0.067871 0.392720 -0.216722
C39   C     C_R   0.511033 0.940736 0.385248 -0.190690
C40   C     C_R   0.175241 0.380447 0.504177 0.513630
C41   C     C_R   0.490285 0.871093 0.493822 -0.115737
C42   C     C_R   0.431580 0.348517 0.146370 -0.158599
C43   C     C_R   0.395945 0.280731 0.079082 -0.236413
C44   C     C_R   0.396123 0.279068 0.938148 -0.039978
C45   C     C_R   0.124825 0.381685 0.501521 -0.023579
C46   C     C_R   0.432425 0.347764 0.866197 -0.246240
C47   C     C_R   0.466381 0.425494 0.931065 0.154910
C48   C     C_R   0.466216 0.425740 0.075560 0.222999
C49   C     C_R   0.532130 0.571659 0.068072 -0.113456
C50   C     C_R   0.532083 0.571719 0.924771 -0.099692
C51   C     C_R   0.180593 0.603427 0.505526 0.511455
C52   C     C_R   0.278092 0.493453 0.626563 -0.094618
C53   C     C_R   0.328199 0.496672 0.625309 -0.176636
C54   C     C_R   0.327772 0.487155 0.380051 -0.211991
C55   C     C_2   0.882593 0.862137 0.521079 0.986401
C56   C     C_R   0.097018 0.270454 0.500320 -0.128691
C57   C     C_2   0.470097 0.059713 0.011408 0.884228
C58   C     C_2   0.360023 0.200915 0.865761 0.926044
C59   C     C_R   0.130319 0.608980 0.503168 -0.025068
C60   C     C_R   0.353378 0.494413 0.501848 -0.025962
C61   C     C_R   0.646672 0.502739 0.497985 -0.046665
H1    H     H_    0.258742 0.496635 0.721650 0.141311
H2    H     H_    0.523780 0.896952 0.295505 0.185677
H3    H     H_    0.558331 0.630182 0.119195 0.145249
H4    H     H_    0.431457 0.335152 0.253542 0.208360
H5    H     H_    0.369486 0.224774 0.138154 0.203255
H6    H     H_    0.434442 0.335385 0.760206 0.242799
H7    H     H_    0.558247 0.630343 0.867921 0.152367
H8    H     H_    0.113708 0.180470 0.503914 0.190793
H9    H     H_    0.654087 0.505197 0.716518 0.164495
H10   H     H_    0.958372 0.195163 0.428841 0.151923
H11   H     H_    0.347112 0.501675 0.720639 0.162715
H12   H     H_    0.129146 0.810964 0.501027 0.196263
H13   H     H_    0.346345 0.484673 0.283678 0.166997
H14   H     H_    0.880857 0.026183 0.614231 0.347650
H15   H     H_    0.530768 0.121288 0.305122 0.216572
H16   H     H_    0.442221 0.042862 0.200459 0.350893
H17   H     H_    0.257956 0.479579 0.287666 0.142616
H18   H     H_    0.335054 0.141210 0.687081 0.365934
H19   H     H_    0.742555 0.509917 0.711177 0.144320
H20   H     H_    0.873394 0.202608 0.424732 0.207497
H21   H     H_    0.028366 0.182976 0.497876 0.145106
H22   H     H_    0.972229 0.819008 0.538207 0.158580
H23   H     H_    0.652588 0.501379 0.278727 0.165679
H24   H     H_    0.740842 0.506339 0.276209 0.144021
H25   H     H_    0.044352 0.820786 0.494516 0.142655
H26   H     H_    0.508751 0.178588 0.789589 0.202227
H27   H     H_    0.422560 0.854963 0.917787 0.189104
H28   H     H_    0.427580 0.774427 0.692829 0.161840
N1    N     N_R   0.201737 0.490370 0.505567 -0.360757
N2    N     N_R   0.798549 0.509954 0.490567 -0.360322
N3    N     N_R   0.499540 0.498800 0.142780 -0.122064
N4    N     N_R   0.499520 0.498720 0.857170 -0.124835
O1    O     O_R   0.500000 0.316780 0.614690 -0.648604
O2    O     O_R   0.571250 0.499990 0.614680 -0.618817
O3    O     O_R   0.571240 0.499970 0.385350 -0.619806
O4    O     O_2   0.197710 0.270717 0.505019 -0.538500
O5    O     O_2   0.855958 0.898422 0.430664 -0.570313
O6    O     O_R   0.896350 0.942026 0.623691 -0.804012
O7    O     O_2   0.500074 0.139702 0.043485 -0.656538
O8    O     O_R   0.438607 0.004184 0.109085 -0.802168
O9    O     O_2   0.328945 0.138833 0.929174 -0.593719
O10   O     O_R   0.361469 0.197829 0.724490 -0.822053
O11   O     O_2   0.794064 0.296328 0.444757 -0.534699
O12   O     O_2   0.208257 0.709884 0.507139 -0.538372
O13   O     O_2   0.799509 0.720369 0.544782 -0.512273
O14   O     O_R   0.500000 0.316750 0.385360 -0.625933
O15   O     O_R   0.428760 0.500030 0.614650 -0.647113
O16   O     O_R   0.428750 0.500010 0.385320 -0.644769
O17   O     O_R   0.500000 0.683250 0.614640 -0.621277
O18   O     O_R   0.500000 0.683220 0.385310 -0.613473
Zn1   Zn    Zn3+2 0.500000 0.500020 0.653130 0.942512
Zn2   Zn    Zn3+2 0.500000 0.499980 0.346870 0.959881

loop_
_geom_bond_atom_site_label_1
_geom_bond_atom_site_label_2
_ccdc_geom_bond_type
C10   C27   A    
C4    O16   A    
C26   H22   S    
C22   C29   A    
H16   O8    S    
C35   C36   A    
C16   O17   A    
C7    C8    A    
C39   C41   A    
C54   C60   A    
C4    O15   A    
C12   C23   A    
C26   C27   A    
C8    C13   A    
C28   O2    A    
C36   C37   A    
O2    Zn1   S    
C51   N1    A    
C30   C31   A    
C31   C32   A    
C27   C55   S    
C32   H27   S    
C18   C19   A    
C24   H21   S    
O14   Zn2   S    
C17   C61   A    
C54   H13   S    
C20   C24   A    
C45   C56   A    
C44   C58   S    
C8    C9    A    
C12   H17   S    
C42   H4    S    
C58   O9    D    
C14   H19   S    
C9    C10   A    
O16   Zn2   S    
C28   C61   S    
C49   H3    S    
C21   C22   A    
C13   N2    A    
H18   O10   S    
C2    C6    A    
C53   C60   A    
C44   C46   A    
C25   C29   A    
C40   C45   A    
C18   H24   S    
C2    C20   A    
C40   O4    S    
C1    O1    A    
C38   H15   S    
C21   C34   A    
C57   O7    D    
O15   Zn1   S    
C43   C44   A    
C5    C9    A    
C37   C38   A    
C33   H28   S    
C47   C48   A    
C51   O12   S    
C4    C60   S    
C11   O13   S    
H14   O6    S    
C17   C18   A    
C15   C61   A    
C23   N1    S    
O18   Zn2   S    
C34   C45   A    
C42   C48   A    
C13   O11   S    
C29   H25   S    
C1    O14   A    
C7    H20   S    
C49   C50   A    
C34   C59   A    
O3    Zn2   S    
C2    C5    A    
C51   C59   A    
C42   C43   A    
C49   N3    A    
C57   O8    S    
C52   C53   A    
N3    Zn2   S    
C15   H9    S    
C46   C47   A    
C47   N4    A    
C14   C19   A    
C3    C26   A    
C6    H10   S    
C3    C5    A    
C50   N4    A    
C6    C7    A    
C1    C37   S    
C24   C56   A    
C39   H2    S    
C30   C36   A    
C28   O3    A    
C17   H23   S    
C32   C33   A    
C31   C57   S    
C46   H6    S    
C52   H1    S    
C23   C52   A    
C38   C39   A    
C43   H5    S    
C55   O5    D    
O1    Zn1   S    
C33   C35   A    
C25   H12   S    
C35   C41   A    
O17   Zn1   S    
C19   N2    S    
C10   C11   A    
N4    Zn1   S    
C11   N2    A    
C20   C21   A    
C56   H8    S    
C48   N3    A    
C55   O6    S    
C14   C15   A    
C3    C22   A    
C58   O10   S    
C25   C59   A    
C40   N1    A    
C30   H26   S    
C53   H11   S    
C50   H7    S    
C16   C41   S    
C12   C54   A    
C16   O18   A    
