data_mof_unit_51965.cif
_audit_creation_date              2012-10-26T19:48:10-0400
_audit_creation_method            fapswitch 2.2
_symmetry_space_group_name_H-M    P1
_symmetry_Int_Tables_number       1
_space_group_crystal_system       triclinic
_cell_length_a                    10.734028
_cell_length_b                    9.468295
_cell_length_c                    10.61826
_cell_angle_alpha                 89.928103
_cell_angle_beta                  91.324439
_cell_angle_gamma                 90.198467
_cell_volume                      1078.86949444

loop_
_atom_site_label
_atom_site_type_symbol
_atom_type_description
_atom_site_fract_x
_atom_site_fract_y
_atom_site_fract_z
_atom_type_partial_charge
C1    C     C_R   0.259895 0.499562 0.497511 0.543247
C2    C     C_3   0.925707 0.586290 0.382678 -0.234784
C3    C     C_3   0.609778 0.085009 0.576047 0.177430
C4    C     C_3   0.611826 0.916415 0.572605 0.174293
C5    C     C_3   0.384867 0.082992 0.557084 -0.108166
C6    C     C_3   0.385818 0.916446 0.559066 -0.111345
C7    C     C_3   0.507144 0.083562 0.373317 -0.149132
C8    C     C_3   0.504678 0.916624 0.373102 -0.149574
C9    C     C_R   0.499749 0.500173 0.259492 0.549034
C10   C     C_R   0.739990 0.499888 0.497748 0.541172
C11   C     C_R   0.499699 0.499740 0.740663 0.553387
C12   C     C_3   0.499635 0.500621 0.122613 0.049237
C13   C     C_3   0.522219 0.631671 0.041179 -0.114725
C14   C     C_3   0.387709 0.456002 0.039738 -0.132065
C15   C     C_3   0.410217 0.586964 0.955950 -0.128166
C16   C     C_3   0.499355 0.498792 0.877680 0.049921
C17   C     C_3   0.611197 0.543139 0.960789 -0.125496
C18   C     C_3   0.476699 0.367693 0.959171 -0.113169
C19   C     C_3   0.588573 0.412302 0.044446 -0.127425
C20   C     C_3   0.728108 0.196976 0.757383 -0.291955
C21   C     C_3   0.748028 0.850568 0.757974 -0.310844
C22   C     C_3   0.075355 0.560535 0.620815 -0.234542
C23   C     C_3   0.070763 0.345437 0.481835 -0.231229
C24   C     C_3   0.931927 0.564084 0.619059 -0.235013
C25   C     C_3   0.928098 0.345651 0.483057 -0.231755
C26   C     C_3   0.069772 0.587869 0.383974 -0.232694
C27   C     C_3   0.122011 0.498395 0.495812 0.059578
C28   C     C_3   0.878241 0.498887 0.495614 0.055818
Cu1   Cu    Cu3+1 0.499860 0.642410 0.500060 0.890074
Cu2   Cu    Cu3+1 0.499860 0.357590 0.500060 0.885392
H1    H     H_    0.337282 0.658342 0.916516 0.089936
H2    H     H_    0.593412 0.121316 0.327646 0.101331
H3    H     H_    0.588269 0.876827 0.324453 0.102674
H4    H     H_    0.302199 0.117840 0.500321 0.105170
H5    H     H_    0.301935 0.878783 0.505524 0.110035
H6    H     H_    0.540990 0.739909 0.077175 0.097175
H7    H     H_    0.296349 0.420462 0.075379 0.088414
H8    H     H_    0.703869 0.575922 0.927310 0.084427
H9    H     H_    0.457313 0.259503 0.923693 0.099214
H10   H     H_    0.661563 0.340870 0.083691 0.089819
H11   H     H_    0.112457 0.669484 0.634962 0.108290
H12   H     H_    0.890884 0.696715 0.387482 0.111357
H13   H     H_    0.102300 0.298146 0.392098 0.108914
H14   H     H_    0.109597 0.495336 0.701709 0.102197
H15   H     H_    0.106687 0.277873 0.560473 0.110700
H16   H     H_    0.896269 0.506711 0.702428 0.087833
H17   H     H_    0.897155 0.279856 0.563126 0.108823
H18   H     H_    0.902026 0.675576 0.625132 0.118852
H19   H     H_    0.890656 0.296313 0.394817 0.108332
H20   H     H_    0.103441 0.698886 0.392051 0.113603
H21   H     H_    0.103578 0.545148 0.293365 0.098966
H22   H     H_    0.548684 0.103167 0.767828 0.225672
H23   H     H_    0.889674 0.540042 0.292593 0.100947
H24   H     H_    0.738296 0.308805 0.728781 0.172357
H25   H     H_    0.809908 0.136440 0.725958 0.101600
H26   H     H_    0.726199 0.193411 0.861865 0.108823
H27   H     H_    0.553527 0.866041 0.759506 0.240780
H28   H     H_    0.769745 0.740632 0.785658 0.137824
H29   H     H_    0.749117 0.915852 0.844748 0.122305
H30   H     H_    0.821568 0.889536 0.694699 0.107002
H31   H     H_    0.695992 0.121071 0.529039 0.105482
H32   H     H_    0.695805 0.886010 0.519142 0.103928
H33   H     H_    0.370331 0.124870 0.653185 0.112083
H34   H     H_    0.374005 0.877095 0.656468 0.100840
H35   H     H_    0.427687 0.122836 0.314092 0.125204
H36   H     H_    0.422493 0.879547 0.316321 0.121012
N1    N     N_3   0.500250 0.143650 0.502780 -0.219404
N2    N     N_3   0.500250 0.856350 0.502780 -0.221242
N3    N     N_2   0.613000 0.139247 0.704808 -0.458345
N4    N     N_2   0.625534 0.854271 0.698011 -0.449679
O1    O     O_R   0.317570 0.620260 0.500070 -0.519877
O2    O     O_R   0.317570 0.379740 0.500070 -0.519647
O3    O     O_R   0.499850 0.620240 0.316900 -0.519314
O4    O     O_R   0.499850 0.379760 0.316900 -0.516907
O5    O     O_R   0.682190 0.620260 0.500030 -0.496889
O6    O     O_R   0.682190 0.379740 0.500030 -0.515183
O7    O     O_R   0.499910 0.620280 0.683200 -0.482582
O8    O     O_R   0.499910 0.379720 0.683200 -0.479357

loop_
_geom_bond_atom_site_label_1
_geom_bond_atom_site_label_2
_ccdc_geom_bond_type
C8    H36   S    
C23   H15   S    
C14   C18   S    
C5    N1    S    
C4    N4    S    
C7    C8    S    
C25   C28   S    
C26   C27   S    
C1    O1    A    
C3    N3    S    
C21   H29   S    
C26   H20   S    
C5    C6    S    
Cu2   O4    S    
C22   H11   S    
Cu1   O3    S    
C15   C16   S    
C4    H32   S    
C23   H13   S    
C6    H5    S    
C5    H33   S    
C18   C19   S    
C10   O5    A    
C6    H34   S    
H22   N3    S    
C11   O7    A    
C10   O6    A    
C22   H14   S    
C16   C17   S    
C23   C27   S    
H27   N4    S    
C25   H17   S    
Cu2   N1    S    
C20   H26   S    
C17   H8    S    
C6    N2    S    
C9    O3    A    
C20   H25   S    
C3    H31   S    
C1    O2    A    
C24   H18   S    
C21   H30   S    
C20   H24   S    
C4    N2    S    
C18   H9    S    
Cu1   Cu2   S    
C11   O8    A    
C7    H35   S    
Cu1   N2    S    
Cu2   O6    S    
C11   C16   S    
C5    H4    S    
C2    C26   S    
C13   H6    S    
C12   C14   S    
C8    N2    S    
C22   C27   S    
C13   C15   S    
C22   C24   S    
C20   N3    S    
C9    O4    A    
C3    C4    S    
C10   C28   S    
C7    H2    S    
C3    N1    S    
C24   C28   S    
C2    H23   S    
Cu2   O2    S    
C15   H1    S    
Cu1   O5    S    
C13   C17   S    
C21   N4    S    
C24   H16   S    
C21   H28   S    
C26   H21   S    
C14   H7    S    
C2    H12   S    
C12   C19   S    
C17   C19   S    
C8    H3    S    
C23   C25   S    
C9    C12   S    
C25   H19   S    
C19   H10   S    
C7    N1    S    
Cu2   O8    S    
Cu1   O7    S    
C12   C13   S    
C16   C18   S    
C1    C27   S    
C14   C15   S    
C2    C28   S    
Cu1   O1    S    
