data_mof_unit_27230.cif
_audit_creation_date              2012-12-10T16:59:16-0500
_audit_creation_method            fapswitch 2.2
_symmetry_space_group_name_H-M    P1
_symmetry_Int_Tables_number       1
_space_group_crystal_system       triclinic
_cell_length_a                    7.930823
_cell_length_b                    8.493463
_cell_length_c                    27.634514
_cell_angle_alpha                 93.427683
_cell_angle_beta                  84.348313
_cell_angle_gamma                 90.325107
_cell_volume                      1849.10249783

loop_
_atom_site_label
_atom_site_type_symbol
_atom_type_description
_atom_site_fract_x
_atom_site_fract_y
_atom_site_fract_z
_atom_type_partial_charge
C1    C     C_R   0.539907 0.791957 0.495454 0.956402
C2    C     C_R   0.460423 0.207590 0.503739 0.921572
C3    C     C_R   0.460869 0.526946 0.899695 -0.092239
C4    C     C_R   0.485211 0.535041 0.102449 -0.087365
C5    C     C_R   0.571766 0.625076 0.871504 -0.103166
C6    C     C_R   0.412777 0.413827 0.129957 -0.120820
C7    C     C_R   0.644587 0.759586 0.895334 0.141038
C8    C     C_R   0.352983 0.276770 0.105869 0.150739
C9    C     C_R   0.357782 0.415986 0.876722 0.000659
C10   C     C_R   0.578845 0.654940 0.125514 0.014082
C11   C     C_R   0.494988 0.491592 0.647025 -0.081135
C12   C     C_R   0.503729 0.515995 0.353374 -0.087458
C13   C     C_R   0.557390 0.652496 0.024605 0.079092
C14   C     C_R   0.346401 0.434014 0.978928 0.091269
C15   C     C_R   0.367832 0.417930 0.029327 -0.049771
C16   C     C_R   0.543429 0.658122 0.974180 -0.068899
C17   C     C_R   0.470366 0.534192 0.051875 0.034633
C18   C     C_R   0.452590 0.538312 0.951092 0.048995
C19   C     C_R   0.668754 0.754838 0.047783 -0.241944
C20   C     C_R   0.217693 0.358175 0.954812 -0.249853
C21   C     C_R   0.673831 0.761109 0.097615 -0.184802
C22   C     C_R   0.228976 0.340245 0.904489 -0.174847
C23   C     C_R   0.499166 0.499466 0.593975 0.884852
C24   C     C_R   0.500650 0.501032 0.406070 0.866779
C25   C     C_R   0.605411 0.786552 0.946421 0.102566
C26   C     C_R   0.309906 0.284287 0.057166 0.139870
C27   C     C_2   0.543111 0.948936 0.482697 -0.016481
C28   C     C_2   0.460016 0.050438 0.515958 -0.070519
C29   C     C_R   0.591161 0.590859 0.820343 0.523577
C30   C     C_R   0.410638 0.430462 0.181045 0.521154
C31   C     C_R   0.377161 0.392165 0.826277 0.500991
C32   C     C_R   0.581830 0.661121 0.176025 0.504670
C33   C     C_R   0.635255 0.423338 0.717092 -0.089179
C34   C     C_R   0.359672 0.595208 0.285376 -0.099387
C35   C     C_R   0.637468 0.434679 0.667044 -0.321090
C36   C     C_R   0.359954 0.576282 0.334876 -0.306261
C37   C     C_R   0.348179 0.536612 0.678006 0.429658
C38   C     C_R   0.650300 0.477350 0.321474 0.421880
C39   C     C_R   0.348912 0.526067 0.728209 -0.225271
C40   C     C_R   0.647868 0.497470 0.271645 -0.223839
C41   C     C_R   0.491337 0.470439 0.747675 0.272610
C42   C     C_R   0.502981 0.554507 0.253821 0.282293
H1    H     H_    0.239837 0.564956 0.752634 0.146783
H2    H     H_    0.756455 0.463993 0.246269 0.139096
H3    H     H_    0.247246 0.608944 0.358639 0.180586
H4    H     H_    0.750686 0.398466 0.644042 0.179552
H5    H     H_    0.246754 0.637679 0.271279 0.151892
H6    H     H_    0.746410 0.381460 0.732237 0.161336
H7    H     H_    0.755621 0.847335 0.113988 0.184314
H8    H     H_    0.134153 0.269793 0.887510 0.186082
H9    H     H_    0.754931 0.830272 0.027593 0.178342
H10   H     H_    0.104394 0.315283 0.973837 0.176837
N1    N     N_R   0.493070 0.478240 0.799388 -0.339192
N2    N     N_R   0.494985 0.551692 0.202545 -0.343482
N3    N     N_2   0.950320 0.457960 0.486880 -0.039493
N4    N     N_2   0.049680 0.542040 0.513120 -0.037557
O1    O     O_R   0.389250 0.738570 0.503220 -0.638274
O2    O     O_R   0.610750 0.261430 0.496780 -0.612002
O3    O     O_R   0.678390 0.711630 0.494810 -0.642280
O4    O     O_R   0.321610 0.288370 0.505190 -0.650218
O5    O     O_R   0.355440 0.513440 0.575450 -0.559379
O6    O     O_R   0.644560 0.486560 0.424550 -0.570023
O7    O     O_R   0.644590 0.486500 0.567040 -0.676187
O8    O     O_R   0.355410 0.513500 0.432960 -0.669241
O9    O     O_2   0.703102 0.670023 0.791068 -0.584064
O10   O     O_2   0.322241 0.328691 0.209395 -0.565577
O11   O     O_2   0.669396 0.775661 0.198590 -0.570511
O12   O     O_2   0.280727 0.284114 0.803987 -0.571985
Zn1   Zn    Zn3+2 0.306940 0.517990 0.505620 0.933868
Zn2   Zn    Zn3+2 0.693060 0.482010 0.494380 0.932504
O13   O     O_3   0.207365 0.593565 0.659022 -0.782229
H11   H     H_    0.116752 0.618200 0.685734 0.339586
O14   O     O_3   0.792039 0.417218 0.339184 -0.780808
H12   H     H_    0.882231 0.397896 0.311997 0.337958
C43   C     C_3   0.026671 0.375221 0.442853 -0.137407
C44   C     C_3   0.932966 0.223732 0.431524 -0.809756
H13   H     H_    0.915216 0.154019 0.464409 0.254612
H14   H     H_    0.809856 0.248414 0.418352 0.317977
H15   H     H_    0.008241 0.152455 0.402070 0.217490
H16   H     H_    0.028674 0.452677 0.411827 0.198317
H17   H     H_    0.153504 0.334604 0.446936 0.228147
C45   C     C_3   0.972506 0.625832 0.556956 -0.128506
C46   C     C_3   0.066511 0.777134 0.568652 -0.836796
H18   H     H_    0.991406 0.848936 0.598004 0.223068
H19   H     H_    0.187259 0.749066 0.582354 0.312336
H20   H     H_    0.087433 0.847832 0.536041 0.252774
H21   H     H_    0.846052 0.666643 0.552679 0.228198
H22   H     H_    0.968862 0.548491 0.588049 0.198703
C47   C     C_3   0.756492 0.877932 0.867721 -0.320650
C48   C     C_3   0.654507 0.992671 0.841259 -0.741400
H23   H     H_    0.562910 0.929775 0.819168 0.283533
H24   H     H_    0.583088 0.077168 0.867648 0.233795
H25   H     H_    0.742356 0.061288 0.816769 0.245517
H26   H     H_    0.835417 0.946512 0.891949 0.193017
H27   H     H_    0.855866 0.817074 0.842599 0.238568
C49   C     C_3   0.378956 0.117188 0.127633 -0.346498
C50   C     C_3   0.217603 0.044816 0.152427 -0.718262
H28   H     H_    0.129439 0.136918 0.170000 0.282362
H29   H     H_    0.252118 0.966952 0.180812 0.251469
H30   H     H_    0.150635 0.970406 0.126113 0.227713
H31   H     H_    0.440887 0.031780 0.099555 0.172721
H32   H     H_    0.474566 0.128746 0.154448 0.233236
C51   C     C_3   0.560991 0.954546 0.967110 -0.368927
C52   C     C_3   0.709184 0.068800 0.972818 -0.921145
H33   H     H_    0.831380 0.005974 0.972649 0.252277
H34   H     H_    0.719918 0.151660 0.943077 0.264230
H35   H     H_    0.685547 0.141376 0.007611 0.256478
H36   H     H_    0.471569 0.006927 0.944075 0.207518
H37   H     H_    0.487468 0.949838 0.003156 0.194912
C53   C     C_3   0.206043 0.145912 0.037950 -0.387107
C54   C     C_3   0.017821 0.164865 0.056344 -0.878688
H38   H     H_    0.000765 0.186398 0.096449 0.271145
H39   H     H_    0.958493 0.265587 0.040834 0.255747
H40   H     H_    0.949079 0.055015 0.047043 0.239481
H41   H     H_    0.227117 0.119428 0.998368 0.189875
H42   H     H_    0.247348 0.032526 0.050096 0.198866
C55   C     C_3   0.565125 0.973670 0.427916 -0.479358
C56   C     C_3   0.725816 0.895911 0.402088 -0.790258
H43   H     H_    0.834505 0.913190 0.424163 0.261134
H44   H     H_    0.706264 0.767741 0.395576 0.267564
H45   H     H_    0.757388 0.946684 0.366197 0.258792
H46   H     H_    0.453823 0.921968 0.411213 0.208081
H47   H     H_    0.567429 0.099735 0.419785 0.215881
C57   C     C_3   0.442710 0.027342 0.570683 -0.452378
C58   C     C_3   0.611584 0.052557 0.592357 -0.847921
H48   H     H_    0.706308 0.964640 0.575607 0.252483
H49   H     H_    0.661140 0.172725 0.586182 0.275616
H50   H     H_    0.593511 0.038273 0.632214 0.261164
H51   H     H_    0.347772 0.111601 0.589662 0.224295
H52   H     H_    0.398087 0.908314 0.579094 0.224677

loop_
_geom_bond_atom_site_label_1
_geom_bond_atom_site_label_2
_ccdc_geom_bond_type
N3    N4    D    
C49   H32   S    
C8    C26   A    
O14   H12   S    
C14   C18   A    
C54   H38   S    
C34   C42   A    
C44   H15   S    
C55   H46   S    
C52   H34   S    
C50   H28   S    
C39   C41   A    
C30   N2    A    
C19   C21   A    
C44   H14   S    
C1    O3    A    
C2    O4    A    
C9    C22   A    
C45   H21   S    
C7    C47   S    
O6    Zn2   S    
C3    C18   A    
C32   N2    A    
C47   H26   S    
C11   C37   A    
C53   C54   S    
C56   H43   S    
C8    C49   S    
C58   H50   S    
C51   H36   S    
C12   C36   A    
C43   H16   S    
C26   C53   S    
C22   H8    S    
N3    C43   S    
C23   O7    A    
C24   O8    A    
C49   H31   S    
C21   H7    S    
C52   H33   S    
C50   H29   S    
C5    C29   A    
C27   C55   S    
C10   C21   A    
C31   O12   S    
C13   C19   A    
C14   C20   A    
C44   H13   S    
C4    C6    A    
C5    C7    A    
O2    Zn2   S    
C15   C26   A    
C6    C8    A    
C56   H45   S    
C47   H27   S    
C43   C44   S    
C3    C9    A    
C1    O1    A    
C48   H24   S    
C46   H18   S    
O7    Zn2   S    
C40   H2    S    
C49   C50   S    
C2    O2    A    
C57   H52   S    
C36   H3    S    
C54   H39   S    
O8    Zn1   S    
C31   N1    A    
C41   N1    S    
C30   O10   S    
C32   O11   S    
C29   O9    S    
C4    C17   A    
C16   C18   A    
C46   H19   S    
C20   C22   A    
N4    Zn1   S    
C37   O13   S    
C58   H48   S    
C4    C10   A    
C53   H42   S    
C51   C52   S    
C50   H30   S    
C48   H25   S    
C1    C27   S    
O5    Zn1   S    
C16   C25   A    
C15   C17   A    
C24   O6    A    
C6    C30   A    
C25   C51   S    
C11   C23   S    
C3    C5    A    
C39   H1    S    
C28   C57   S    
N4    C45   S    
C43   H17   S    
C12   C24   S    
C7    C25   A    
C13   C17   A    
C51   H37   S    
C33   C41   A    
C11   C35   A    
C55   H47   S    
O13   H11   S    
C20   H10   S    
C55   C56   S    
C42   N2    S    
C38   C40   A    
C48   H23   S    
C29   N1    A    
O4    Zn1   S    
C19   H9    S    
C45   H22   S    
C40   C42   A    
C33   C35   A    
C57   H51   S    
C54   H40   S    
C34   C36   A    
C12   C38   A    
C56   H44   S    
N3    Zn2   S    
C9    C31   A    
O3    Zn2   S    
C10   C32   A    
C23   O5    A    
C46   H20   S    
C37   C39   A    
C45   C46   S    
C13   C16   A    
C27   C28   D    
C58   H49   S    
C33   H6    S    
C14   C15   A    
C2    C28   S    
C34   H5    S    
O1    Zn1   S    
C47   C48   S    
C35   H4    S    
C53   H41   S    
C52   H35   S    
C57   C58   S    
C38   O14   S    
