data_mof_unit_22793.cif
_audit_creation_date              2012-12-10T17:17:19-0500
_audit_creation_method            fapswitch 2.2
_symmetry_space_group_name_H-M    P1
_symmetry_Int_Tables_number       1
_space_group_crystal_system       triclinic
_cell_length_a                    27.735479
_cell_length_b                    12.99262
_cell_length_c                    11.65904
_cell_angle_alpha                 99.907604
_cell_angle_beta                  93.304064
_cell_angle_gamma                 90.294028
_cell_volume                      4131.39008853

loop_
_atom_site_label
_atom_site_type_symbol
_atom_type_description
_atom_site_fract_x
_atom_site_fract_y
_atom_site_fract_z
_atom_type_partial_charge
C1    C     C_R   0.499361 0.299042 0.478588 0.836561
C2    C     C_R   0.500762 0.700959 0.521400 0.845854
C3    C     C_R   0.102323 0.503341 0.524764 -0.046325
C4    C     C_R   0.899863 0.508609 0.532938 -0.047605
C5    C     C_R   0.128823 0.418442 0.553382 -0.100845
C6    C     C_R   0.874444 0.601904 0.533388 -0.098252
C7    C     C_R   0.105210 0.339927 0.598175 -0.166403
C8    C     C_R   0.900012 0.696860 0.548084 -0.168650
C9    C     C_R   0.126197 0.584252 0.483164 -0.014559
C10   C     C_R   0.874217 0.413338 0.522390 -0.018659
C11   C     C_R   0.354468 0.505177 0.503866 -0.150056
C12   C     C_R   0.645800 0.497160 0.497974 -0.172362
C13   C     C_R   0.976245 0.416901 0.549661 0.097312
C14   C     C_R   0.026199 0.597300 0.517318 0.099603
C15   C     C_R   0.976496 0.604676 0.539715 -0.073158
C16   C     C_R   0.027325 0.420777 0.567533 -0.073396
C17   C     C_R   0.950955 0.510281 0.541586 0.034342
C18   C     C_R   0.051900 0.507256 0.537124 0.034881
C19   C     C_R   0.949921 0.321936 0.529651 -0.093601
C20   C     C_R   0.050108 0.672512 0.466593 -0.097045
C21   C     C_R   0.899699 0.320163 0.518185 -0.119295
C22   C     C_R   0.099459 0.667041 0.451324 -0.121756
C23   C     C_R   0.407456 0.502724 0.501303 0.862210
C24   C     C_R   0.592625 0.497650 0.498827 0.862065
C25   C     C_R   0.055297 0.342040 0.610454 0.371813
C26   C     C_R   0.950547 0.700149 0.556416 0.368412
C27   C     C_R   0.500999 0.814377 0.533817 -0.060033
C28   C     C_R   0.499225 0.185628 0.466168 -0.061399
C29   C     C_R   0.497899 0.014892 0.344074 -0.147024
C30   C     C_R   0.502381 0.985116 0.655913 -0.151448
C31   C     C_R   0.497780 0.123066 0.355088 -0.131397
C32   C     C_R   0.502495 0.876945 0.644899 -0.120533
C33   C     C_R   0.500729 0.139424 0.566255 -0.208137
C34   C     C_R   0.499507 0.860578 0.433731 -0.208695
C35   C     C_R   0.500844 0.031371 0.555976 0.149349
C36   C     C_R   0.499422 0.968632 0.444009 0.150081
C37   C     C_R   0.456817 0.395445 0.022577 0.348479
C38   C     C_R   0.543037 0.604862 0.977437 0.352057
C39   C     C_R   0.461045 0.407122 0.145015 0.023713
C40   C     C_R   0.538916 0.592955 0.854977 0.024791
C41   C     C_R   0.517878 0.545511 0.157430 0.147900
C42   C     C_R   0.482009 0.454713 0.842587 0.138429
C43   C     C_R   0.515480 0.538381 0.034299 -0.122430
C44   C     C_R   0.484400 0.461876 0.965722 -0.124340
C45   C     C_R   0.179032 0.417206 0.542666 0.598500
C46   C     C_R   0.823719 0.598445 0.523780 0.593742
C47   C     C_R   0.176342 0.579694 0.473412 0.564311
C48   C     C_R   0.823541 0.413453 0.514123 0.566949
C49   C     C_R   0.280129 0.564480 0.592813 -0.171018
C50   C     C_R   0.721658 0.447702 0.410110 -0.132480
C51   C     C_R   0.330558 0.569077 0.593939 0.349562
C52   C     C_R   0.671072 0.442132 0.404246 0.402838
C53   C     C_R   0.326971 0.440979 0.413922 -0.243693
C54   C     C_R   0.672175 0.553206 0.595737 -0.249646
C55   C     C_R   0.276732 0.437893 0.413986 -0.066485
C56   C     C_R   0.722394 0.556089 0.600966 -0.069046
C57   C     C_R   0.253291 0.499458 0.503587 0.280545
C58   C     C_R   0.747391 0.503707 0.508171 0.249085
Cu1   Cu    Cu3+1 0.503580 0.507730 0.615930 1.023863
Cu2   Cu    Cu3+1 0.496420 0.492270 0.384070 1.024789
H1    H     H_    0.344496 0.391836 0.344233 0.186047
H2    H     H_    0.653836 0.595521 0.668585 0.191661
H3    H     H_    0.496815 0.967571 0.257770 0.184560
H4    H     H_    0.503471 0.032437 0.742217 0.182745
H5    H     H_    0.256005 0.387713 0.344512 0.166946
H6    H     H_    0.741977 0.598872 0.677623 0.175305
H7    H     H_    0.741522 0.407218 0.339086 0.205464
H8    H     H_    0.261191 0.611977 0.661028 0.185409
H9    H     H_    0.880973 0.245309 0.504966 0.205834
H10   H     H_    0.116517 0.727898 0.414241 0.201292
H11   H     H_    0.967902 0.247906 0.518268 0.202953
H12   H     H_    0.030623 0.734277 0.434506 0.197535
H13   H     H_    0.498387 0.812686 0.347676 0.187315
H14   H     H_    0.501821 0.187311 0.652312 0.185668
N1    N     N_R   0.201657 0.497582 0.504255 -0.462719
N2    N     N_R   0.799318 0.505193 0.514887 -0.458862
N3    N     N_R   0.508960 0.519350 0.790140 -0.228721
N4    N     N_R   0.491040 0.480650 0.209860 -0.229582
O1    O     O_R   0.502540 0.354460 0.582000 -0.601360
O2    O     O_R   0.497460 0.645540 0.418000 -0.601891
O3    O     O_R   0.496500 0.341410 0.386200 -0.573970
O4    O     O_R   0.503500 0.658590 0.613800 -0.569848
O5    O     O_R   0.433290 0.506540 0.597890 -0.522672
O6    O     O_R   0.566710 0.493460 0.402110 -0.518960
O7    O     O_R   0.427240 0.493490 0.402090 -0.595932
O8    O     O_R   0.572760 0.506510 0.597910 -0.599810
O9    O     O_2   0.205152 0.337323 0.572075 -0.496038
O10   O     O_2   0.798975 0.687450 0.522480 -0.504356
O11   O     O_2   0.798667 0.322780 0.506860 -0.501947
O12   O     O_2   0.199735 0.656976 0.434337 -0.509537
H15   H     H_    0.503616 0.842409 0.723192 0.191104
H16   H     H_    0.496659 0.157604 0.276796 0.188114
H17   H     H_    0.458595 0.398100 0.787147 0.195649
H18   H     H_    0.541276 0.602171 0.212861 0.196981
H19   H     H_    0.559627 0.643007 0.810496 0.175935
H20   H     H_    0.440342 0.357039 0.189475 0.177417
S1    S     S_3+6 0.417046 0.297194 0.944948 -0.001837
O13   O     O_2   0.379093 0.346946 0.876021 -0.247244
O14   O     O_2   0.445144 0.221493 0.862900 -0.325070
O15   O     O_3   0.390063 0.232267 0.037306 -0.538760
H21   H     H_    0.369272 0.178702 0.986617 0.398191
S2    S     S_3+6 0.582531 0.703681 0.055049 -0.003289
O16   O     O_2   0.554241 0.778886 0.137175 -0.323962
O17   O     O_2   0.620728 0.654527 0.123885 -0.246843
O18   O     O_3   0.609197 0.769105 0.962663 -0.543039
H22   H     H_    0.629943 0.822784 0.013314 0.395282
H23   H     H_    0.125973 0.278384 0.628452 0.230016
H24   H     H_    0.880606 0.769717 0.557516 0.229502
S3    S     S_3+6 0.641861 0.360608 0.282172 0.036030
O19   O     O_2   0.604002 0.293735 0.322074 -0.295142
O20   O     O_2   0.618485 0.427489 0.202261 -0.259291
O21   O     O_3   0.682137 0.282690 0.208702 -0.509644
H25   H     H_    0.663134 0.241891 0.141370 0.387735
S4    S     S_3+6 0.361441 0.659376 0.705766 0.050131
O22   O     O_2   0.385200 0.601150 0.793935 -0.212531
O23   O     O_2   0.399439 0.718253 0.655395 -0.310142
O24   O     O_3   0.322745 0.745200 0.773762 -0.481758
H26   H     H_    0.312465 0.789064 0.715421 0.358940
S5    S     S_3+6 0.033088 0.260096 0.703719 0.026317
O25   O     O_2   0.022883 0.152458 0.635136 -0.261380
O26   O     O_2   0.070911 0.252278 0.799409 -0.239198
O27   O     O_3   0.982703 0.308827 0.764872 -0.512698
H27   H     H_    0.970813 0.253749 0.805747 0.394397
S6    S     S_3+6 0.977710 0.823983 0.613932 0.034120
O28   O     O_2   0.982502 0.885626 0.517137 -0.272791
O29   O     O_2   0.945902 0.882909 0.702049 -0.229851
O30   O     O_3   0.032276 0.810679 0.680162 -0.508137
H28   H     H_    0.046030 0.882489 0.699714 0.401945

loop_
_geom_bond_atom_site_label_1
_geom_bond_atom_site_label_2
_ccdc_geom_bond_type
C38   C40   A    
C29   H3    S    
C49   H8    S    
C30   H4    S    
C42   H17   S    
C8    C26   A    
C14   C18   A    
C19   H11   S    
C35   C36   A    
Cu1   O4    S    
Cu1   N3    S    
C37   S1    S    
S4    O22   D    
C58   N2    S    
C29   C36   A    
Cu2   N4    S    
C26   S6    S    
C30   C35   A    
C3    C18   A    
C19   C21   A    
Cu1   O5    S    
S3    O20   D    
C9    C22   A    
C32   H15   S    
C1    O3    A    
C8    H24   S    
C49   C57   A    
S2    O18   S    
C48   N2    A    
S1    O14   D    
C53   H1    S    
C49   C51   A    
C1    C28   S    
C50   C52   A    
C2    C27   S    
C50   H7    S    
C11   C53   A    
C38   S2    S    
S5    O26   D    
Cu1   Cu2   S    
C27   C34   A    
C29   C31   A    
C41   C43   A    
C42   C44   A    
C25   S5    S    
C46   N2    A    
O21   H25   S    
C12   C52   A    
S1    O13   D    
C46   O10   S    
C53   C55   A    
C10   C21   A    
C54   C56   A    
C51   S4    S    
C13   C19   A    
C50   C58   A    
C39   N4    A    
C14   C20   A    
C11   C51   A    
C4    C6    A    
S3    O21   S    
Cu1   O1    S    
C41   N4    A    
C5    C7    A    
C15   C26   A    
C6    C8    A    
C54   H2    S    
C5    C45   A    
C21   H9    S    
C43   C44   A    
C3    C9    A    
Cu2   O3    S    
C41   H18   S    
C14   C15   A    
S5    O25   D    
S2    O17   D    
C23   O5    A    
S6    O30   S    
C4    C17   A    
C20   C22   A    
C28   C33   A    
C9    C47   A    
C48   O11   S    
C55   C57   A    
C10   C48   A    
C1    O1    A    
C47   O12   S    
C7    H23   S    
C2    O4    A    
C40   H19   S    
C4    C10   A    
O30   H28   S    
S1    O15   S    
S6    O29   D    
S5    O27   S    
C16   C25   A    
C15   C17   A    
Cu2   O2    S    
C6    C46   A    
C45   O9    S    
C27   C32   A    
C55   H5    S    
C28   C31   A    
C3    C5    A    
S4    O23   D    
Cu2   O7    S    
O18   H22   S    
C12   C24   S    
C7    C25   A    
C13   C17   A    
C45   N1    A    
C57   N1    S    
C37   C44   A    
C24   O6    A    
Cu1   O8    S    
C47   N1    A    
C38   C43   A    
C37   C39   A    
O24   H26   S    
C30   C32   A    
Cu2   O6    S    
C52   S3    S    
C56   H6    S    
C11   C23   S    
O15   H21   S    
C33   C35   A    
C56   C58   A    
C34   C36   A    
S2    O16   D    
C39   H20   S    
S4    O24   S    
C2    O2    A    
C34   H13   S    
C33   H14   S    
C42   N3    A    
C16   C18   A    
C31   H16   S    
C23   O7    A    
C13   C16   A    
C40   N3    A    
C20   H12   S    
O27   H27   S    
S3    O19   D    
C24   O8    A    
C22   H10   S    
C12   C54   A    
S6    O28   D    
