data_mof_unit_45202.cif
_audit_creation_date              2012-12-10T16:59:15-0500
_audit_creation_method            fapswitch 2.2
_symmetry_space_group_name_H-M    P1
_symmetry_Int_Tables_number       1
_space_group_crystal_system       triclinic
_cell_length_a                    7.740985
_cell_length_b                    8.557178
_cell_length_c                    27.713212
_cell_angle_alpha                 90.946711
_cell_angle_beta                  86.191531
_cell_angle_gamma                 93.677144
_cell_volume                      1827.7869789

loop_
_atom_site_label
_atom_site_type_symbol
_atom_type_description
_atom_site_fract_x
_atom_site_fract_y
_atom_site_fract_z
_atom_type_partial_charge
C1    C     C_R   0.545882 0.794828 0.498735 0.975876
C2    C     C_R   0.454118 0.205172 0.501265 0.975875
C3    C     C_R   0.519295 0.495747 0.897803 -0.049580
C4    C     C_R   0.480705 0.504252 0.102197 -0.049581
C5    C     C_R   0.563212 0.634584 0.871950 -0.021543
C6    C     C_R   0.436787 0.365415 0.128050 -0.021543
C7    C     C_R   0.600603 0.774110 0.896843 -0.141138
C8    C     C_R   0.399396 0.225889 0.103156 -0.141138
C9    C     C_R   0.483428 0.355068 0.872213 -0.022089
C10   C     C_R   0.516572 0.644931 0.127787 -0.022088
C11   C     C_R   0.509783 0.498097 0.646432 -0.038518
C12   C     C_R   0.490217 0.501903 0.353568 -0.038517
C13   C     C_R   0.534989 0.643547 0.025508 0.047820
C14   C     C_R   0.465011 0.356452 0.974492 0.047820
C15   C     C_R   0.453859 0.358850 0.025775 0.047817
C16   C     C_R   0.546141 0.641149 0.974225 0.047818
C17   C     C_R   0.489707 0.502240 0.050922 0.072025
C18   C     C_R   0.510293 0.497759 0.949078 0.072025
C19   C     C_R   0.567168 0.783077 0.052569 -0.226403
C20   C     C_R   0.432832 0.216921 0.947431 -0.226403
C21   C     C_R   0.558364 0.783278 0.102635 -0.140144
C22   C     C_R   0.441637 0.216720 0.897365 -0.140143
C23   C     C_R   0.502901 0.499736 0.593921 0.874116
C24   C     C_R   0.497099 0.500263 0.406079 0.874116
C25   C     C_R   0.592796 0.777663 0.946905 -0.226617
C26   C     C_R   0.407203 0.222336 0.053095 -0.226616
C27   C     C_2   0.570144 0.958290 0.498003 -0.371723
C28   C     C_2   0.429856 0.041710 0.501997 -0.371723
C29   C     C_R   0.566999 0.630746 0.821436 0.506450
C30   C     C_R   0.433000 0.369253 0.178564 0.506450
C31   C     C_R   0.488757 0.356488 0.821695 0.507081
C32   C     C_R   0.511243 0.643511 0.178305 0.507080
C33   C     C_R   0.676651 0.495523 0.717201 -0.093264
C34   C     C_R   0.323348 0.504465 0.282799 -0.093263
C35   C     C_R   0.670427 0.497272 0.667232 -0.210496
C36   C     C_R   0.329571 0.502716 0.332768 -0.210496
C37   C     C_R   0.355754 0.496811 0.676222 -0.204329
C38   C     C_R   0.644247 0.503199 0.323778 -0.204330
C39   C     C_R   0.362464 0.494493 0.726128 -0.099777
C40   C     C_R   0.637537 0.505517 0.273872 -0.099776
C41   C     C_R   0.522701 0.493964 0.746513 0.323135
C42   C     C_R   0.477299 0.506035 0.253487 0.323134
H1    H     H_    0.230373 0.497110 0.661056 0.161188
H2    H     H_    0.769629 0.502909 0.338944 0.161187
H3    H     H_    0.635977 0.882057 0.877691 0.193324
H4    H     H_    0.364022 0.117942 0.122309 0.193324
H5    H     H_    0.600038 0.895438 0.036502 0.140711
H6    H     H_    0.399963 0.104561 0.963498 0.140711
H7    H     H_    0.702606 0.009421 0.494190 0.180846
H8    H     H_    0.297393 0.990579 0.505810 0.180846
N1    N     N_R   0.528450 0.493322 0.797679 -0.361749
N2    N     N_R   0.471550 0.506677 0.202320 -0.361749
N3    N     N_2   0.950320 0.457960 0.486880 -0.175755
N4    N     N_2   0.049680 0.542040 0.513120 -0.175755
O1    O     O_R   0.389250 0.738570 0.503220 -0.611088
O2    O     O_R   0.610750 0.261430 0.496780 -0.611088
O3    O     O_R   0.678390 0.711630 0.494810 -0.629376
O4    O     O_R   0.321610 0.288370 0.505190 -0.629376
O5    O     O_R   0.355440 0.513440 0.575450 -0.621167
O6    O     O_R   0.644560 0.486560 0.424550 -0.621166
O7    O     O_R   0.644590 0.486500 0.567040 -0.630295
O8    O     O_R   0.355410 0.513500 0.432960 -0.630295
O9    O     O_2   0.606598 0.763270 0.796179 -0.532404
O10   O     O_2   0.393401 0.236729 0.203821 -0.532405
O11   O     O_2   0.546142 0.777247 0.203341 -0.530951
O12   O     O_2   0.453858 0.222752 0.796659 -0.530950
Zn1   Zn    Zn3+2 0.306940 0.517990 0.505620 0.950371
Zn2   Zn    Zn3+2 0.693060 0.482010 0.494380 0.950371
H9    H     H_    0.014079 0.383216 0.463422 0.191381
H10   H     H_    0.985920 0.616784 0.536578 0.191381
H11   H     H_    0.243527 0.493632 0.749058 0.136185
H12   H     H_    0.756476 0.506387 0.250942 0.136186
H13   H     H_    0.209003 0.501456 0.354996 0.159389
H14   H     H_    0.790994 0.498524 0.645004 0.159391
H15   H     H_    0.199458 0.504675 0.266800 0.134865
H16   H     H_    0.800539 0.495305 0.733199 0.134864
H17   H     H_    0.585535 0.892992 0.121582 0.194301
H18   H     H_    0.414466 0.107007 0.878418 0.194300
H19   H     H_    0.624860 0.890411 0.962757 0.141524
H20   H     H_    0.375140 0.109589 0.037242 0.141524

loop_
_geom_bond_atom_site_label_1
_geom_bond_atom_site_label_2
_ccdc_geom_bond_type
C31   O12   S    
C29   O9    S    
C35   H14   S    
C30   O10   S    
C8    C26   A    
C14   C18   A    
C34   C42   A    
N3    H9    S    
C39   C41   A    
N3    N4    D    
C23   O5    A    
O8    Zn1   S    
C7    H3    S    
C19   C21   A    
C19   H5    S    
C9    C22   A    
C3    C18   A    
C11   C37   A    
N3    Zn2   S    
C32   N2    A    
O5    Zn1   S    
C28   H8    S    
C12   C36   A    
C34   H15   S    
C40   C42   A    
C5    C29   A    
C10   C21   A    
C13   C19   A    
C14   C20   A    
C22   H18   S    
C4    C6    A    
C5    C7    A    
C15   C26   A    
C6    C8    A    
N4    Zn1   S    
O2    Zn2   S    
C26   H20   S    
C37   H1    S    
C38   H2    S    
C3    C9    A    
C1    O3    A    
C33   H16   S    
N4    H10   S    
C24   O6    A    
C20   H6    S    
C4    C17   A    
C6    C30   A    
C20   C22   A    
O3    Zn2   S    
C4    C10   A    
C29   N1    A    
C16   C25   A    
C15   C17   A    
C30   N2    A    
C24   O8    A    
C40   H12   S    
C25   H19   S    
C31   N1    A    
C3    C5    A    
O1    Zn1   S    
C2    O4    A    
C12   C24   S    
C7    C25   A    
C13   C17   A    
C33   C41   A    
C11   C35   A    
C1    O1    A    
C37   C39   A    
C2    O2    A    
C38   C40   A    
O7    Zn2   S    
C11   C23   S    
C33   C35   A    
C34   C36   A    
C12   C38   A    
C8    H4    S    
C36   H13   S    
C9    C31   A    
C10   C32   A    
O4    Zn1   S    
C23   O7    A    
O6    Zn2   S    
C16   C18   A    
C13   C16   A    
C21   H17   S    
C27   C28   D    
C1    C27   S    
C39   H11   S    
C14   C15   A    
C2    C28   S    
C41   N1    S    
C27   H7    S    
C42   N2    S    
C32   O11   S    
