data_mof_unit_19175.cif
_audit_creation_date              2012-10-26T20:16:29-0400
_audit_creation_method            fapswitch 2.2
_symmetry_space_group_name_H-M    P1
_symmetry_Int_Tables_number       1
_space_group_crystal_system       triclinic
_cell_length_a                    10.768474
_cell_length_b                    15.841226
_cell_length_c                    17.137454
_cell_angle_alpha                 95.127857
_cell_angle_beta                  90.992821
_cell_angle_gamma                 91.310137
_cell_volume                      2910.39450428

loop_
_atom_site_label
_atom_site_type_symbol
_atom_type_description
_atom_site_fract_x
_atom_site_fract_y
_atom_site_fract_z
_atom_type_partial_charge
C1    C     C_R   0.497414 0.490438 0.348640 0.558904
C2    C     C_R   0.525531 0.473963 0.098893 0.187322
C3    C     C_R   0.573519 0.411381 0.142228 -0.114938
C4    C     C_R   0.262500 0.500589 0.497467 0.553159
C5    C     C_R   0.561844 0.417181 0.223278 -0.193723
C6    C     C_R   0.538983 0.445235 0.857959 -0.062949
C7    C     C_R   0.531380 0.439022 0.776103 0.241979
C8    C     C_R   0.518654 0.522953 0.901850 0.185056
C9    C     C_R   0.508644 0.512535 0.737359 0.012055
C10   C     C_R   0.490952 0.590066 0.781678 -0.200590
C11   C     C_R   0.495139 0.594849 0.863070 -0.116978
C12   C     C_R   0.062357 0.453956 0.430109 0.039565
C13   C     C_R   0.421382 0.756343 0.477078 0.422994
C14   C     C_R   0.437518 0.843591 0.464998 0.240109
C15   C     C_R   0.540858 0.889643 0.500997 0.171526
C16   C     C_R   0.502997 0.509352 0.651333 0.560621
C17   C     C_R   0.630866 0.843904 0.538532 -0.174820
C18   C     C_R   0.617677 0.755546 0.541025 -0.042387
C19   C     C_R   0.569349 0.163190 0.541941 0.224863
C20   C     C_R   0.569607 0.251415 0.536278 0.040441
C21   C     C_R   0.480575 0.111095 0.497284 0.216360
C22   C     C_R   0.398258 0.239061 0.447602 0.001615
C23   C     C_R   0.128778 0.501187 0.492017 0.023682
C24   C     C_R   0.394381 0.150693 0.450728 -0.139909
C25   C     C_R   0.737447 0.499111 0.498077 0.534168
C26   C     C_R   0.123164 0.410541 0.366487 -0.111138
C27   C     C_R   0.055169 0.366175 0.305438 -0.120063
C28   C     C_R   0.925990 0.364857 0.306048 -0.104943
C29   C     C_R   0.864062 0.407763 0.367795 -0.093463
C30   C     C_R   0.931095 0.452267 0.430877 0.031937
C31   C     C_3   0.219413 0.736541 0.507130 -0.052328
C32   C     C_3   0.453396 0.306646 0.738875 -0.064120
C33   C     C_R   0.066958 0.547365 0.551851 -0.162772
C34   C     C_R   0.938911 0.545949 0.552441 -0.143547
C35   C     C_R   0.870993 0.497666 0.493612 0.016019
C36   C     C_R   0.501019 0.485674 0.262591 -0.016394
C37   C     C_R   0.447654 0.547665 0.218564 0.167558
C38   C     C_R   0.461467 0.541475 0.137551 -0.060579
Cu1   Cu    Cu3+1 0.493970 0.415220 0.496180 0.960151
Cu2   Cu    Cu3+1 0.506030 0.584780 0.503820 1.048026
H1    H     H_    0.118244 0.583284 0.599208 0.111689
H2    H     H_    0.223207 0.411898 0.362209 0.135452
H3    H     H_    0.323233 0.113116 0.417367 0.166816
H4    H     H_    0.102949 0.333533 0.256987 0.126275
H5    H     H_    0.873462 0.331175 0.258082 0.122601
H6    H     H_    0.763770 0.406655 0.364761 0.131806
H7    H     H_    0.892324 0.581569 0.599862 0.125549
H8    H     H_    0.559847 0.388929 0.886674 0.154180
H9    H     H_    0.621267 0.358339 0.113107 0.140160
H10   H     H_    0.197324 0.561696 0.293740 0.328380
H11   H     H_    0.663918 0.023985 0.688810 0.367088
H12   H     H_    0.602407 0.368482 0.255469 0.135894
H13   H     H_    0.179300 0.973586 0.409829 0.368554
H14   H     H_    0.199818 0.805244 0.511524 0.157683
H15   H     H_    0.244897 0.717479 0.566186 0.084998
H16   H     H_    0.131924 0.702312 0.487371 0.162708
H17   H     H_    0.469609 0.248060 0.700354 0.184412
H18   H     H_    0.366172 0.334408 0.717842 0.120180
H19   H     H_    0.442317 0.287909 0.799407 0.119136
H20   H     H_    0.472369 0.647107 0.753466 0.146212
H21   H     H_    0.420384 0.589027 0.104331 0.185162
H22   H     H_    0.479057 0.654909 0.896295 0.150692
H23   H     H_    0.635870 0.292027 0.570738 0.199154
H24   H     H_    0.712738 0.876601 0.564862 0.164895
H25   H     H_    0.690497 0.721915 0.568316 0.147638
H26   H     H_    0.330760 0.268587 0.412007 0.138428
N1    N     N_2   0.537830 0.465122 0.016325 -0.240044
N2    N     N_2   0.515227 0.531172 0.984734 -0.232283
N3    N     N_R   0.515100 0.712130 0.509560 -0.247368
N4    N     N_2   0.561149 0.979348 0.497129 -0.112434
N5    N     N_2   0.464638 0.021873 0.503885 -0.109901
N6    N     N_R   0.484890 0.287850 0.490450 -0.268179
O1    O     O_R   0.494360 0.420530 0.382500 -0.534085
O2    O     O_2   0.285962 0.672401 0.199289 -0.256803
O3    O     O_3   0.260701 0.595932 0.325920 -0.467413
O4    O     O_2   0.776258 0.078363 0.564703 -0.261715
O5    O     O_2   0.728826 0.192710 0.664774 -0.264465
O6    O     O_3   0.597873 0.052602 0.660940 -0.514088
O7    O     O_2   0.409604 0.945545 0.348601 -0.254569
O8    O     O_2   0.265570 0.823914 0.345963 -0.155369
O9    O     O_3   0.232433 0.949934 0.449883 -0.549964
O10   O     O_3   0.312316 0.714674 0.452117 -0.428334
O11   O     O_3   0.556244 0.362673 0.734219 -0.533051
O12   O     O_R   0.504550 0.563720 0.388950 -0.401756
O13   O     O_R   0.314550 0.428390 0.496780 -0.519062
O14   O     O_R   0.324740 0.571580 0.503230 -0.445401
O15   O     O_R   0.495450 0.436280 0.611050 -0.460519
O16   O     O_R   0.505640 0.579470 0.617500 -0.530020
O17   O     O_R   0.675260 0.428420 0.496770 -0.513081
O18   O     O_R   0.685450 0.571610 0.503220 -0.515750
O19   O     O_2   0.446746 0.697654 0.301409 -0.179167
S1    S     S_3+6 0.359291 0.631997 0.260859 0.076440
S2    S     S_3+6 0.673643 0.122360 0.609275 0.016449
S3    S     S_3+6 0.335513 0.890344 0.398580 0.063717

loop_
_geom_bond_atom_site_label_1
_geom_bond_atom_site_label_2
_ccdc_geom_bond_type
C7    O11   S    
Cu2   O12   S    
C19   C20   A    
C32   H18   S    
C11   H22   S    
C3    H9    S    
C18   H25   S    
C12   C23   A    
C25   O18   A    
C29   C30   A    
C31   O10   S    
C6    H8    S    
C30   C35   A    
C21   N5    S    
C36   C37   A    
C19   C21   A    
C9    C16   S    
C17   H24   S    
C4    O14   A    
O6    S2    S    
Cu2   O14   S    
C5    C36   A    
H13   O9    S    
C34   C35   A    
O2    S1    D    
C15   N4    S    
C22   H26   S    
C27   H4    S    
C23   C33   A    
C16   O15   A    
Cu1   N6    S    
C5    H12   S    
N4    N5    D    
Cu1   O15   S    
C31   H16   S    
C9    C10   A    
C19   S2    S    
C38   H21   S    
C18   N3    A    
C13   C14   A    
C32   H17   S    
C22   N6    A    
C33   C34   A    
C28   H5    S    
Cu2   N3    S    
N1    N2    D    
O7    S3    D    
C2    N1    S    
O19   S1    D    
C4    C23   S    
C6    C8    A    
C4    O13   A    
C13   O10   S    
C12   C26   A    
C1    O12   A    
C10   H20   S    
C37   C38   A    
O4    S2    D    
C2    C38   A    
C17   C18   A    
C26   C27   A    
O3    S1    S    
C25   C35   S    
C31   H15   S    
C8    N2    S    
C22   C24   A    
Cu1   O13   S    
O8    S3    D    
Cu1   Cu2   S    
C26   H2    S    
C15   C17   A    
C32   O11   S    
C28   C29   A    
C37   S1    S    
C12   C30   A    
C3    C5    A    
C6    C7    A    
C25   O17   A    
C29   H6    S    
C1    O1    A    
Cu2   O16   S    
C20   H23   S    
C2    C3    A    
H11   O6    S    
C33   H1    S    
H10   O3    S    
O9    S3    S    
C13   N3    A    
C8    C11   A    
O5    S2    D    
C14   S3    S    
Cu1   O1    S    
C31   H14   S    
C10   C11   A    
C7    C9    A    
C21   C24   A    
C27   C28   A    
C16   O16   A    
C24   H3    S    
C14   C15   A    
C20   N6    A    
C34   H7    S    
C32   H19   S    
Cu2   O18   S    
Cu1   O17   S    
C1    C36   S    
