data_mof_unit_55640.cif
_audit_creation_date              2012-12-11T14:43:38-0500
_audit_creation_method            fapswitch 2.2
_symmetry_space_group_name_H-M    P1
_symmetry_Int_Tables_number       1
_space_group_crystal_system       triclinic
_cell_length_a                    20.845987
_cell_length_b                    7.099251
_cell_length_c                    16.488253
_cell_angle_alpha                 90.000359
_cell_angle_beta                  93.157392
_cell_angle_gamma                 90.000113
_cell_volume                      2436.40721328

loop_
_atom_site_label
_atom_site_type_symbol
_atom_type_description
_atom_site_fract_x
_atom_site_fract_y
_atom_site_fract_z
_atom_type_partial_charge
O1    O     O_R   0.564840 0.505290 0.579830 -0.520164
O2    O     O_R   0.435160 0.005290 0.420170 -0.520159
O3    O     O_R   0.556720 0.179930 0.409350 -0.533678
O4    O     O_R   0.443280 0.679930 0.590650 -0.533679
C1    C     C_R   0.569917 0.345236 0.381170 0.710509
C2    C     C_R   0.430082 0.845236 0.618829 0.710502
O5    O     O_R   0.572280 0.175810 0.578530 -0.545784
O6    O     O_R   0.427720 0.675810 0.421470 -0.545783
O7    O     O_R   0.450830 0.001920 0.590540 -0.543208
O8    O     O_R   0.549170 0.501920 0.409460 -0.543212
C3    C     C_R   0.590031 0.344510 0.604808 0.776276
C4    C     C_R   0.409968 0.844509 0.395194 0.776273
O9    O     O_3   0.460130 0.338030 0.503750 -0.378492
O10   O     O_3   0.539870 0.838030 0.496250 -0.378496
V1    V     V_3+5 0.507400 0.064560 0.499310 1.534148
V2    V     V_3+5 0.492600 0.564560 0.500690 1.534142
C5    C     C_R   0.141530 0.905733 0.170610 -0.164103
C6    C     C_R   0.858469 0.405729 0.829392 -0.164103
C7    C     C_R   0.357554 0.857825 0.330854 -0.200850
C8    C     C_R   0.642444 0.357825 0.669149 -0.200855
C9    C     C_R   0.318686 0.977747 0.198587 -0.155585
C10   C     C_R   0.681313 0.477754 0.801414 -0.155599
C11   C     C_R   0.368992 0.946688 0.256885 0.628741
C12   C     C_R   0.631007 0.446693 0.743116 0.628748
C13   C     C_R   0.294968 0.796957 0.345002 -0.216518
C14   C     C_R   0.705029 0.296941 0.655004 -0.216523
C15   C     C_R   0.243507 0.833291 0.287680 0.022258
C16   C     C_R   0.756491 0.333279 0.712325 0.022255
C17   C     C_R   0.255642 0.924030 0.213684 -0.029867
C18   C     C_R   0.744356 0.424033 0.786318 -0.029865
C19   C     C_R   0.204789 0.958474 0.155703 -0.161054
C20   C     C_R   0.795211 0.458483 0.844298 -0.161059
C21   C     C_R   0.129305 0.820872 0.245791 -0.168270
C22   C     C_R   0.870693 0.320859 0.754213 -0.168275
C23   C     C_R   0.180037 0.783866 0.303468 0.636559
C24   C     C_R   0.819960 0.283847 0.696537 0.636565
H1    H     H_    0.214819 0.021651 0.098116 0.166591
H2    H     H_    0.785183 0.521676 0.901884 0.166581
H3    H     H_    0.328957 0.046189 0.141996 0.202012
H4    H     H_    0.671043 0.546200 0.858005 0.202006
H5    H     H_    0.286264 0.726609 0.401596 0.205382
H6    H     H_    0.713733 0.226573 0.598414 0.205399
C25   C     C_R   0.383341 0.919651 0.833781 -0.100892
C26   C     C_R   0.616653 0.419756 0.166221 -0.100889
H7    H     H_    0.407750 0.949527 0.892178 0.192658
H8    H     H_    0.592243 0.449685 0.107829 0.192659
C27   C     C_R   0.390040 0.857889 0.690055 -0.115660
C28   C     C_R   0.609957 0.357891 0.309943 -0.115655
C29   C     C_R   0.079719 0.821784 0.740233 -0.042144
C30   C     C_R   0.920276 0.321730 0.259758 -0.042134
C31   C     C_R   0.115417 0.755207 0.677647 -0.113525
C32   C     C_R   0.884575 0.255095 0.322332 -0.113535
C33   C     C_R   0.181796 0.768736 0.682269 -0.100465
C34   C     C_R   0.818196 0.268634 0.317707 -0.100464
C35   C     C_R   0.215118 0.864028 0.746714 0.062509
C36   C     C_R   0.784877 0.363993 0.253275 0.062522
C37   C     C_R   0.179358 0.929603 0.813265 -0.054391
C38   C     C_R   0.820638 0.429608 0.186731 -0.054395
C39   C     C_R   0.283883 0.882573 0.749334 -0.033741
C40   C     C_R   0.716113 0.382566 0.250659 -0.033734
C41   C     C_R   0.316065 0.926029 0.824869 -0.001487
C42   C     C_R   0.683929 0.426097 0.175131 -0.001491
C43   C     C_R   0.281290 0.990894 0.889341 0.574122
C44   C     C_R   0.718706 0.490985 0.110665 0.574109
C45   C     C_R   0.214624 0.010875 0.880813 -0.214484
C46   C     C_R   0.785374 0.510927 0.119190 -0.214495
C47   C     C_R   0.322115 0.866730 0.679986 -0.079603
C48   C     C_R   0.677883 0.366689 0.320009 -0.079608
C49   C     C_R   0.420157 0.882534 0.767708 -0.100486
C50   C     C_R   0.579838 0.382602 0.232292 -0.100475
C51   C     C_R   0.110703 0.902550 0.810404 -0.091100
C52   C     C_R   0.889294 0.402544 0.189593 -0.091101
H9    H     H_    0.206488 0.694484 0.636201 0.146231
H10   H     H_    0.793502 0.194340 0.363762 0.146219
H11   H     H_    0.091820 0.683931 0.626046 0.159424
H12   H     H_    0.908169 0.183767 0.373923 0.159418
O11   O     O_R   0.950790 0.256670 0.090520 -0.538643
O12   O     O_R   0.049210 0.756670 0.909480 -0.538643
O13   O     O_R   0.927720 0.590370 0.921470 -0.522418
O14   O     O_R   0.072280 0.090370 0.078530 -0.522416
C53   C     C_R   0.910269 0.420982 0.894853 0.715117
C54   C     C_R   0.089730 0.920983 0.105147 0.715122
O15   O     O_R   0.943270 0.586180 0.090640 -0.533884
O16   O     O_R   0.056730 0.086180 0.909360 -0.533881
O17   O     O_R   0.064850 0.759970 0.079840 -0.539564
O18   O     O_R   0.935150 0.259970 0.920160 -0.539565
C55   C     C_R   0.928269 0.417183 0.116819 0.673761
C56   C     C_R   0.071730 0.917183 0.883180 0.673764
O19   O     O_3   0.039850 0.428050 0.996240 -0.362173
O20   O     O_3   0.960150 0.928050 0.003760 -0.362173
V3    V     V_3+5 0.992610 0.701540 0.000700 1.528706
V4    V     V_3+5 0.007390 0.201540 0.999300 1.528711
C57   C     C_1   0.294337 0.900328 0.598777 0.267227
N1    N     N_1   0.272166 0.929405 0.534128 -0.324113
C58   C     C_1   0.705667 0.400218 0.401223 0.267221
N2    N     N_1   0.727845 0.429238 0.465875 -0.324101
C59   C     C_1   0.010825 0.793932 0.733192 0.343056
N3    N     N_1   0.955758 0.771632 0.727607 -0.320053
C60   C     C_1   0.989169 0.293887 0.266804 0.343058
N4    N     N_1   0.044236 0.271596 0.272392 -0.320061
C61   C     C_1   0.187253 0.141120 0.936359 0.373515
N5    N     N_1   0.167382 0.250196 0.980680 -0.310433
C62   C     C_1   0.812751 0.641159 0.063645 0.373528
N6    N     N_1   0.832626 0.750225 0.019323 -0.310422
C63   C     C_1   0.064365 0.776357 0.265672 0.437511
N7    N     N_1   0.012260 0.742237 0.281608 -0.345100
C64   C     C_1   0.935632 0.276346 0.734331 0.437512
N8    N     N_1   0.987737 0.242230 0.718393 -0.345097
F1    F     F_    0.167280 0.701022 0.375193 -0.663960
F2    F     F_    0.832716 0.200993 0.624814 -0.663950
F3    F     F_    0.429330 0.001501 0.240790 -0.677719
F4    F     F_    0.570669 0.501498 0.759212 -0.677725
C65   C     C_1   0.489348 0.889881 0.779679 0.406456
N9    N     N_1   0.544705 0.897342 0.789270 -0.268254
C66   C     C_1   0.510647 0.389959 0.220324 0.406444
N10   N     N_1   0.455289 0.397425 0.210735 -0.268277
F5    F     F_    0.313108 0.053453 0.958566 -0.690889
F6    F     F_    0.686889 0.553596 0.041446 -0.690876

loop_
_geom_bond_atom_site_label_1
_geom_bond_atom_site_label_2
_ccdc_geom_bond_type
O15   C55   A    
C43   C45   A    
O11   V4    S    
O4    V2    S    
C57   N1    T    
C35   C39   A    
C15   C17   A    
C58   N2    T    
O1    C3    A    
C45   C61   S    
O2    C4    A    
C2    O7    A    
C59   N3    T    
O17   V3    S    
O5    C3    A    
C49   C65   S    
C30   C60   S    
C61   N5    T    
C22   C64   S    
C31   H11   S    
C43   F5    S    
C66   N10   T    
O12   V3    S    
C6    C53   S    
C44   F6    S    
C40   C42   A    
C5    C54   S    
C41   C43   A    
C30   C52   A    
C27   C49   A    
C42   C44   A    
C39   C47   A    
C34   H10   S    
C38   C46   A    
C8    C12   A    
C32   C34   A    
C29   C31   A    
C12   F4    S    
C30   C32   A    
C64   N8    T    
C26   C50   A    
C20   H2    S    
O19   V3    S    
O13   V3    S    
C53   O18   A    
C23   F1    S    
O5    V1    S    
O6    V2    S    
C5    C21   A    
C27   C47   A    
C26   H8    S    
C33   C35   A    
C1    C28   S    
C34   C36   A    
C3    C8    S    
C39   C41   A    
C48   C58   S    
C2    C27   S    
C21   C63   S    
O4    C2    A    
C13   H5    S    
O13   C53   A    
C15   C23   A    
C9    C17   A    
C28   C48   A    
C36   C40   A    
C31   C33   A    
C44   C46   A    
O14   V4    S    
C7    C11   A    
C25   H7    S    
O20   V4    S    
C60   N4    T    
C9    H3    S    
O6    C4    A    
C10   H4    S    
O1    V2    S    
C37   C51   A    
O19   V4    S    
O2    V1    S    
C6    C22   A    
O11   C55   A    
O14   C54   A    
C35   C37   A    
C24   F2    S    
C5    C19   A    
C10   C12   A    
C6    C20   A    
O15   V3    S    
O3    C1    A    
C52   C55   S    
O3    V1    S    
C25   C41   A    
C65   N9    T    
O12   C56   A    
C10   C18   A    
C46   C62   S    
C33   H9    S    
O16   C56   A    
C28   C50   A    
C32   H12   S    
C50   C66   S    
C13   C15   A    
C54   O17   A    
C11   F3    S    
C63   N7    T    
C14   C16   A    
C40   C48   A    
C26   C42   A    
C9    C11   A    
O7    V1    S    
C1    O8    A    
C17   C19   A    
O8    V2    S    
C18   C20   A    
C38   C52   A    
O20   V3    S    
C8    C14   A    
C4    C7    S    
C16   C18   A    
C21   C23   A    
C36   C38   A    
C22   C24   A    
C14   H6    S    
C7    C13   A    
C29   C59   S    
C51   C56   S    
C19   H1    S    
C16   C24   A    
C25   C49   A    
C29   C51   A    
O9    V2    S    
C62   N6    T    
C47   C57   S    
O10   V1    S    
O18   V4    S    
O16   V4    S    
C37   C45   A    
