data_mof_unit_45956.cif
_audit_creation_date              2013-03-05T16:49:57-0500
_audit_creation_method            fapswitch 2.2
_symmetry_space_group_name_H-M    P1
_symmetry_Int_Tables_number       1
_space_group_crystal_system       triclinic
_cell_length_a                    27.367935
_cell_length_b                    10.893071
_cell_length_c                    26.450249
_cell_angle_alpha                 91.767743
_cell_angle_beta                  91.639075
_cell_angle_gamma                 87.641549
_cell_volume                      7871.9917419

loop_
_atom_site_label
_atom_site_type_symbol
_atom_site_description
_atom_site_fract_x
_atom_site_fract_y
_atom_site_fract_z
_atom_type_partial_charge
O1    O     O_R   0.500000 0.319660 0.542350 -0.535942
O2    O     O_R   0.500000 0.680340 0.457650 -0.596772
O3    O     O_R   0.500000 0.319630 0.457650 -0.555824
O4    O     O_R   0.500000 0.680370 0.542350 -0.588211
C1    C     C_R   0.502577 0.261502 0.499159 0.895406
C2    C     C_R   0.501671 0.737943 0.500892 0.782774
O5    O     O_R   0.430260 0.500030 0.542340 -0.599825
O6    O     O_R   0.569740 0.499970 0.457660 -0.600005
O7    O     O_R   0.430270 0.500010 0.457650 -0.497108
O8    O     O_R   0.569730 0.499990 0.542350 -0.546614
C3    C     C_R   0.406865 0.503282 0.499691 0.861188
C4    C     C_R   0.593125 0.502285 0.500739 0.885530
Cu1   Cu    Cu3+1 0.500000 0.500020 0.550150 1.040487
Cu2   Cu    Cu3+1 0.500000 0.499980 0.449850 1.041600
O9    O     O_2   0.410610 0.442786 0.788661 -0.451722
O10   O     O_2   0.592264 0.519295 0.210380 -0.428829
C5    C     C_R   0.409679 0.550043 0.057397 -0.183444
C6    C     C_R   0.577051 0.614727 0.943430 -0.183230
H1    H     H_    0.440012 0.627394 0.619186 0.209513
H2    H     H_    0.552869 0.636089 0.382723 0.212739
C7    C     C_R   0.180598 0.443779 0.538540 0.690524
C8    C     C_R   0.821712 0.617152 0.529487 0.678278
O11   O     O_2   0.207272 0.336881 0.537551 -0.412761
O12   O     O_2   0.795358 0.722699 0.521925 -0.412376
N1    N     N_R   0.199396 0.546198 0.519404 -0.465196
N2    N     N_R   0.802114 0.507754 0.515532 -0.469296
C9    C     C_R   0.171654 0.652835 0.514215 0.645029
C10   C     C_R   0.830139 0.400857 0.513681 0.662153
C11   C     C_R   0.271133 0.477473 0.468069 0.371057
C12   C     C_R   0.725793 0.506069 0.461826 0.437929
C13   C     C_R   0.322169 0.463086 0.464884 -0.207445
C14   C     C_R   0.674436 0.506220 0.458944 -0.188845
C15   C     C_R   0.332457 0.589644 0.540887 -0.167460
C16   C     C_R   0.671694 0.505267 0.550288 -0.153120
C17   C     C_R   0.281968 0.601173 0.545344 -0.109195
C18   C     C_R   0.722419 0.504511 0.553521 -0.132147
C19   C     C_R   0.250891 0.544467 0.509639 0.206756
C20   C     C_R   0.749847 0.504116 0.509724 0.194263
C21   C     C_R   0.102194 0.550510 0.545962 -0.133073
C22   C     C_R   0.900485 0.514987 0.542179 -0.134825
C23   C     C_R   0.133111 0.447993 0.557231 -0.184532
C24   C     C_R   0.869626 0.620194 0.549570 -0.185460
C25   C     C_R   0.115289 0.353486 0.586661 0.338602
C26   C     C_R   0.887648 0.723294 0.577295 0.365739
C27   C     C_R   0.121015 0.656793 0.524982 -0.121940
C28   C     C_R   0.881403 0.402848 0.523206 -0.130794
C29   C     C_R   0.353130 0.519509 0.500920 -0.110027
C30   C     C_R   0.647081 0.504598 0.503101 -0.101008
H3    H     H_    0.355471 0.634144 0.569347 0.189000
H4    H     H_    0.651739 0.507090 0.584904 0.216274
H5    H     H_    0.266829 0.651996 0.577485 0.185311
H6    H     H_    0.740691 0.505157 0.590395 0.187548
C31   C     C_R   0.982115 0.417810 0.551012 0.075453
C32   C     C_R   0.020656 0.649432 0.549754 0.023216
C33   C     C_R   0.970531 0.640551 0.561010 -0.105534
C34   C     C_R   0.032341 0.429916 0.564347 -0.089229
C35   C     C_R   0.950827 0.523783 0.552538 0.059532
C36   C     C_R   0.051969 0.544370 0.554570 0.037605
C37   C     C_R   0.963940 0.308833 0.529653 -0.125854
C38   C     C_R   0.038737 0.753398 0.527949 -0.116817
C39   C     C_R   0.914511 0.299851 0.514855 0.405829
C40   C     C_R   0.088024 0.759363 0.515258 0.412940
H7    H     H_    0.373419 0.549824 0.040285 0.155677
H8    H     H_    0.611257 0.641837 0.960778 0.156890
O13   O     O_2   0.807944 0.294432 0.503881 -0.394099
O14   O     O_2   0.193455 0.752819 0.498580 -0.419970
C41   C     C_R   0.063773 0.336919 0.586345 0.264049
C42   C     C_R   0.939276 0.739000 0.579647 0.229534
H9    H     H_    0.655802 0.508472 0.422409 0.196144
H10   H     H_    0.337361 0.403733 0.435543 0.254444
H11   H     H_    0.989130 0.232182 0.521881 0.228547
H12   H     H_    0.013513 0.828430 0.518456 0.234024
H13   H     H_    0.526701 0.171274 0.259312 0.206985
H14   H     H_    0.609871 0.776431 0.714091 0.235006
C43   C     C_R   0.479770 0.106123 0.314372 -0.082836
C44   C     C_R   0.603680 0.767569 0.633731 -0.184789
H15   H     H_    0.450250 0.091159 0.287070 0.206908
H16   H     H_    0.635988 0.707668 0.630072 0.188282
C45   C     C_R   0.473561 0.082972 0.365037 -0.080755
C46   C     C_R   0.578893 0.809901 0.590779 -0.158764
H17   H     H_    0.438953 0.049176 0.376378 0.189669
H18   H     H_    0.593351 0.783904 0.554087 0.156328
C47   C     C_R   0.511713 0.099574 0.400892 -0.031957
C48   C     C_R   0.536532 0.886749 0.594622 -0.056882
C49   C     C_R   0.558271 0.134532 0.384651 0.316704
C50   C     C_R   0.519352 0.923438 0.643557 0.315964
C51   C     C_R   0.562650 0.167826 0.333271 0.246582
C52   C     C_R   0.547800 0.887919 0.687128 0.357590
C53   C     C_R   0.523486 0.150569 0.298808 -0.239254
C54   C     C_R   0.588622 0.807134 0.681390 -0.203083
C55   C     C_R   0.500160 0.929117 0.455808 -0.163581
C56   C     C_R   0.515688 0.068643 0.543826 -0.113275
H19   H     H_    0.495632 0.875253 0.420934 0.191547
H20   H     H_    0.524658 0.122566 0.577459 0.223883
C57   C     C_R   0.505242 0.871231 0.502182 -0.069387
C58   C     C_R   0.507199 0.127070 0.497770 -0.083806
C59   C     C_R   0.516312 0.941186 0.546857 0.111073
C60   C     C_R   0.504512 0.054779 0.452484 0.090207
H21   H     H_    0.374179 0.452244 0.875141 0.201537
H22   H     H_    0.624967 0.551852 0.124258 0.206574
H23   H     H_    0.375379 0.472010 0.965651 0.153693
H24   H     H_    0.620969 0.568899 0.034126 0.156509
C61   C     C_R   0.461811 0.561196 0.189285 0.574259
C62   C     C_R   0.526395 0.584065 0.811348 0.615680
O15   O     O_2   0.420588 0.575955 0.215994 -0.511772
O16   O     O_2   0.563764 0.624015 0.784908 -0.514970
N3    N     N_R   0.506555 0.547428 0.214195 -0.429923
N4    N     N_R   0.485800 0.539806 0.786075 -0.429986
C63   C     C_R   0.548609 0.540065 0.186758 0.658755
C64   C     C_R   0.447720 0.499254 0.813006 0.647557
C65   C     C_R   0.533894 0.604554 0.304210 0.366430
C66   C     C_R   0.454930 0.586386 0.697164 0.357996
C67   C     C_R   0.531437 0.581528 0.356261 -0.133602
C68   C     C_R   0.463456 0.575305 0.644884 -0.099598
C69   C     C_R   0.471139 0.434873 0.340491 0.537348
C70   C     C_R   0.530105 0.432854 0.658323 0.575857
C71   C     C_R   0.478704 0.440812 0.288329 -0.352302
C72   C     C_R   0.523587 0.445025 0.710709 -0.256170
C73   C     C_R   0.508082 0.529415 0.268852 0.190894
C74   C     C_R   0.486877 0.522618 0.731210 0.144673
C75   C     C_R   0.500973 0.556939 0.107743 -0.041959
C76   C     C_R   0.489964 0.552482 0.892596 -0.043873
C77   C     C_R   0.458191 0.559185 0.135897 -0.038903
C78   C     C_R   0.530017 0.586166 0.864745 -0.034459
C79   C     C_R   0.412683 0.558512 0.110177 -0.116332
C80   C     C_R   0.573006 0.619797 0.890762 -0.094390
C81   C     C_R   0.546622 0.551989 0.133565 -0.059713
C82   C     C_R   0.447754 0.512623 0.866399 -0.054504
N5    N     N_R   0.500000 0.499970 0.374520 -0.254306
N6    N     N_R   0.500000 0.500030 0.625480 -0.263275
H25   H     H_    0.457481 0.385144 0.261994 0.203610
H26   H     H_    0.548031 0.394606 0.736331 0.221595
H27   H     H_    0.379015 0.561353 0.130815 0.197820
H28   H     H_    0.604319 0.647485 0.870390 0.201837
C83   C     C_R   0.450250 0.534044 0.974243 0.039072
C84   C     C_R   0.541190 0.569680 0.026046 0.037176
C85   C     C_R   0.537457 0.580419 0.972401 0.037463
C86   C     C_R   0.452137 0.547210 0.028102 0.038602
C87   C     C_R   0.492508 0.556135 0.946591 0.086429
C88   C     C_R   0.498086 0.558324 0.053792 0.085290
C89   C     C_R   0.407889 0.496892 0.946919 -0.179745
C90   C     C_R   0.586605 0.567384 0.053039 -0.178248
C91   C     C_R   0.407135 0.483744 0.894169 -0.096662
C92   C     C_R   0.589226 0.556003 0.105567 -0.088758
S1    S     S_3+6 0.038797 0.206996 0.615227 0.116421
O17   O     O_2   0.044579 0.098860 0.579037 -0.180161
O18   O     O_2   0.064176 0.174319 0.664253 -0.164068
O19   O     O_3   0.979272 0.232941 0.627821 -0.509125
H29   H     H_    0.969965 0.160703 0.646652 0.425119
S2    S     S_3+6 0.964662 0.874611 0.608479 0.090965
O20   O     O_2   0.958447 0.975311 0.571095 -0.193184
O21   O     O_2   0.939871 0.917494 0.656035 -0.196366
O22   O     O_3   0.024398 0.853376 0.623934 -0.464121
H30   H     H_    0.025633 0.789331 0.649779 0.362393
S3    S     S_3+6 0.610351 0.124458 0.427143 0.068438
O23   O     O_2   0.657404 0.105189 0.399672 -0.124539
O24   O     O_2   0.612255 0.241579 0.458390 -0.308693
O25   O     O_3   0.606389 0.005964 0.465934 -0.540775
H31   H     H_    0.627769 0.025934 0.495652 0.389081
S4    S     S_3+6 0.462290 0.007636 0.649441 0.080396
O26   O     O_2   0.437546 0.976330 0.697021 -0.149021
O27   O     O_2   0.470736 0.143164 0.651017 -0.247700
O28   O     O_3   0.424857 0.974100 0.599812 -0.534492
H32   H     H_    0.395809 0.030411 0.603953 0.391034
S5    S     S_3+6 0.615513 0.231392 0.309389 0.100445
O29   O     O_2   0.652901 0.130058 0.298178 -0.143357
O30   O     O_2   0.603040 0.296479 0.261182 -0.257054
O31   O     O_3   0.639178 0.332122 0.351720 -0.458226
H33   H     H_    0.612615 0.395332 0.356938 0.331293
S6    S     S_3+6 0.536665 0.946433 0.749327 0.097656
O32   O     O_2   0.499156 0.870919 0.772778 -0.209920
O33   O     O_2   0.583098 0.938003 0.781036 -0.271570
O34   O     O_3   0.516493 0.094315 0.748710 -0.427270
H34   H     H_    0.509690 0.116868 0.784458 0.376413
S7    S     S_3+6 0.414561 0.376280 0.356403 0.028484
O35   O     O_2   0.418488 0.299836 0.402616 -0.288637
O36   O     O_2   0.379964 0.484852 0.365656 -0.299501
O37   O     O_3   0.391264 0.289758 0.308420 -0.534098
H35   H     H_    0.371053 0.347396 0.287510 0.386273
S8    S     S_3+6 0.580230 0.332274 0.641255 0.028399
O38   O     O_2   0.584287 0.300411 0.586076 -0.290350
O39   O     O_2   0.626432 0.390512 0.659973 -0.308369
O40   O     O_3   0.575388 0.200921 0.672140 -0.490338
H36   H     H_    0.603951 0.148153 0.661838 0.379080
S9    S     S_3+6 0.155387 0.282015 0.632847 0.129688
O41   O     O_2   0.157864 0.145235 0.623100 -0.164074
O42   O     O_2   0.206227 0.329245 0.633206 -0.230908
O43   O     O_3   0.133607 0.314692 0.690768 -0.468475
H37   H     H_    0.154754 0.265056 0.714066 0.394192
S10   S     S_3+6 0.847643 0.809052 0.619190 0.119822
O44   O     O_2   0.847454 0.943233 0.607519 -0.160037
O45   O     O_2   0.796010 0.766960 0.616440 -0.258535
O46   O     O_3   0.867979 0.788301 0.679063 -0.473879
H38   H     H_    0.847286 0.845296 0.700028 0.391909
S11   S     S_3+6 0.402684 0.674818 0.716598 0.076440
O47   O     O_2   0.361426 0.590476 0.723288 -0.218195
O48   O     O_2   0.412887 0.743450 0.765634 -0.210840
O49   O     O_3   0.385234 0.774586 0.671673 -0.509431
H39   H     H_    0.354093 0.813594 0.683445 0.397782
S12   S     S_3+6 0.565314 0.735285 0.287139 0.058010
O50   O     O_2   0.618402 0.699569 0.280298 -0.184243
O51   O     O_2   0.543968 0.787772 0.239085 -0.265781
O52   O     O_3   0.560954 0.843030 0.333904 -0.557884
H40   H     H_    0.587562 0.899450 0.328093 0.399232
S13   S     S_3+6 0.758861 0.508467 0.405513 0.115755
O53   O     O_2   0.799601 0.596522 0.411624 -0.206742
O54   O     O_2   0.780573 0.381831 0.394357 -0.190442
O55   O     O_3   0.721760 0.552437 0.356919 -0.458033
H41   H     H_    0.716566 0.476932 0.335975 0.410529
S14   S     S_3+6 0.234153 0.409633 0.419848 0.097995
O56   O     O_2   0.225281 0.279372 0.432976 -0.156919
O57   O     O_2   0.185817 0.479177 0.414177 -0.253740
O58   O     O_3   0.263089 0.407984 0.364573 -0.446937
H42   H     H_    0.268169 0.495540 0.358034 0.369120
S15   S     S_3+6 0.898143 0.161919 0.482164 0.125334
O59   O     O_2   0.867321 0.089070 0.515493 -0.161045
O60   O     O_2   0.869709 0.192078 0.434369 -0.171621
O61   O     O_3   0.948366 0.076154 0.466782 -0.491221
H43   H     H_    0.936055 0.995540 0.455134 0.395890
S16   S     S_3+6 0.104489 0.895622 0.485688 0.123075
O62   O     O_2   0.140071 0.962966 0.519641 -0.167309
O63   O     O_2   0.127649 0.863087 0.435928 -0.192115
O64   O     O_3   0.054994 0.988816 0.474809 -0.487099
H44   H     H_    0.068158 0.067308 0.464454 0.395152

loop_
_geom_bond_atom_site_label_1
_geom_bond_atom_site_label_2
_geom_bond_distance
_ccdc_geom_bond_type
C83   C86   1.427034 A    
C12   C14   1.405361 A    
O52   H40   0.990306 S    
S10   O44   1.502955 D    
S3    O24   1.500483 D    
C14   C30   1.406148 A    
N4    C74   1.458475 S    
C3    C29   1.475129 S    
O64   H44   0.990614 S    
C84   C88   1.418685 A    
C61   C77   1.412325 A    
S1    O19   1.682870 S    
S16   O63   1.503359 D    
C33   C42   1.428553 A    
C31   C37   1.402474 A    
C11   S14   1.768275 S    
S7    O36   1.502795 D    
C32   C38   1.401024 A    
O58   H42   0.990640 S    
C83   C87   1.418634 A    
C85   C87   1.420213 A    
C10   C28   1.419246 A    
S5    O29   1.502528 D    
C43   C45   1.387694 A    
C67   N5    1.369642 A    
O1    C1    1.291395 A    
C48   C59   1.494412 S    
S13   O55   1.683989 S    
C75   C88   1.427437 A    
C65   C73   1.416399 A    
C17   C19   1.399335 A    
C44   H16   1.081855 S    
C76   C87   1.427288 A    
C75   C81   1.406463 A    
C66   S11   1.770538 S    
C71   C73   1.400572 A    
S14   O56   1.502171 D    
C32   C36   1.407982 A    
H2    C67   1.080137 S    
C50   C52   1.426688 A    
S9    O42   1.502861 D    
C11   C19   1.414390 A    
S6    O32   1.500853 D    
C38   H12   1.078860 S    
C15   H3    1.083437 S    
C27   C40   1.432197 A    
C56   C58   1.400883 A    
C37   H11   1.079287 S    
C12   C20   1.411279 A    
C38   C40   1.403859 A    
C49   S3    1.791612 S    
O4    Cu1   1.981687 S    
C69   S7    1.765591 S    
S10   O46   1.682285 S    
N1    C19   1.439299 S    
H23   C89   1.078839 S    
C63   C81   1.416240 A    
C13   H10   1.076354 S    
S9    O41   1.503336 D    
C65   C67   1.410996 A    
O28   H32   0.990433 S    
C34   C36   1.411654 A    
O55   H41   0.990230 S    
C69   C71   1.404833 A    
C47   C60   1.484437 S    
C58   C60   1.414866 A    
O10   C63   1.346373 S    
S10   O45   1.502565 D    
Cu1   N6    1.992494 S    
C5    C86   1.413744 A    
C23   C25   1.419909 A    
C18   H6    1.083187 S    
S8    O40   1.681105 S    
C4    C30   1.477445 S    
C21   C27   1.420822 A    
S11   O49   1.680977 S    
C26   S10   1.794624 S    
C25   C41   1.428485 A    
C9    C27   1.421441 A    
C22   C24   1.407418 A    
S5    O30   1.501991 D    
C13   C29   1.401708 A    
Cu1   Cu2   2.652949 S    
S3    O25   1.682323 S    
C68   N6    1.368193 A    
O9    C64   1.346873 S    
O2    C2    1.288059 A    
C24   C26   1.420012 A    
O2    Cu2   1.969137 S    
N3    C73   1.464119 S    
S16   O62   1.503680 D    
S1    O18   1.499097 D    
S8    O39   1.502395 D    
C56   C59   1.392552 A    
S1    O17   1.500879 D    
S7    O37   1.683721 S    
S13   O54   1.503503 D    
C7    O11   1.348634 S    
C52   C54   1.402190 A    
C37   C39   1.403925 A    
C52   S6    1.775874 S    
C49   C51   1.426926 A    
C46   C48   1.405983 A    
S4    O28   1.682394 S    
O37   H35   0.990657 S    
C42   S2    1.797540 S    
O19   H29   0.990002 S    
C46   H18   1.083716 S    
H22   C92   1.083220 S    
S15   O61   1.682400 S    
C66   C74   1.414725 A    
O7    Cu2   1.925332 S    
C31   C35   1.408963 A    
N2    C20   1.436330 S    
S9    O43   1.682329 S    
C28   C39   1.428657 A    
H1    C68   1.079130 S    
C6    C80   1.396935 A    
S13   O53   1.502487 D    
C21   C36   1.404330 A    
S2    O22   1.682204 S    
O43   H37   0.990670 S    
C89   C91   1.397838 A    
C40   S16   1.778966 S    
C6    C85   1.414056 A    
C22   C28   1.420006 A    
S15   O59   1.503060 D    
C5    C79   1.396547 A    
O40   H36   0.990607 S    
C41   S1    1.797218 S    
S2    O21   1.499067 D    
C65   S12   1.770285 S    
C55   H19   1.084676 S    
C8    C24   1.401941 A    
O7    C3    1.297887 A    
O5    C3    1.281818 A    
S7    O35   1.498997 D    
C83   C89   1.415214 A    
O6    C4    1.290899 A    
C79   H27   1.083215 S    
C56   H20   1.078797 S    
C61   O15   1.349578 S    
C72   H26   1.084091 S    
C43   H15   1.082114 S    
C80   H28   1.083244 S    
O49   H39   0.990513 S    
O3    Cu2   1.981689 S    
O8    C4    1.290439 A    
C70   C72   1.403637 A    
C7    C23   1.402143 A    
C66   C68   1.409645 A    
O4    C2    1.282780 A    
O31   H33   0.990115 S    
C47   C49   1.426337 A    
S4    O27   1.502801 D    
C2    C57   1.458499 S    
S5    O31   1.678793 S    
S14   O57   1.503151 D    
C33   C35   1.410969 A    
C17   H5    1.083116 S    
O25   H31   0.990553 S    
C15   C29   1.403628 A    
C8    O12   1.348998 S    
C26   C42   1.429606 A    
C16   C30   1.401167 A    
C76   C78   1.405292 A    
S14   O58   1.681795 S    
C62   N4    1.376703 A    
C1    C58   1.464060 S    
S8    O38   1.495921 D    
C78   C80   1.401982 A    
C69   N5    1.379465 A    
C31   C34   1.419725 A    
H21   C91   1.083245 S    
C70   S8    1.779697 S    
C7    N1    1.364736 A    
C32   C33   1.419830 A    
O6    Cu2   1.913899 S    
C22   C35   1.403623 A    
N2    C10   1.368102 A    
C44   C46   1.387802 A    
C48   C50   1.429520 A    
C84   C85   1.427718 A    
O3    C1    1.283012 A    
O8    Cu1   1.925330 S    
C16   H4    1.078691 S    
C57   C59   1.418367 A    
C14   H9    1.080165 S    
C86   C88   1.419994 A    
N1    C9    1.369646 A    
C34   C41   1.428546 A    
H24   C90   1.078778 S    
C45   H17   1.083698 S    
S4    O26   1.500974 D    
H14   C54   1.082243 S    
S15   O60   1.503325 D    
C62   O16   1.349337 S    
O22   H30   0.990614 S    
H13   C53   1.082307 S    
C11   C13   1.403725 A    
C9    O14   1.344855 S    
C5    H7    1.078934 S    
C45   C47   1.403798 A    
C12   S13   1.766292 S    
C6    H8    1.078862 S    
O61   H43   0.990594 S    
N3    C63   1.376362 A    
S6    O33   1.503619 D    
S12   O50   1.503085 D    
S12   O52   1.682003 S    
C18   C20   1.398091 A    
C15   C17   1.390341 A    
N4    C64   1.374203 A    
C10   O13   1.345566 S    
C16   C18   1.388147 A    
C81   C92   1.401926 A    
C84   C90   1.415266 A    
C55   C60   1.384601 A    
C76   C82   1.407148 A    
C71   H25   1.081688 S    
C82   C91   1.401407 A    
C72   C74   1.396708 A    
C75   C77   1.404439 A    
C77   C79   1.402146 A    
C51   S5    1.770092 S    
C55   C57   1.397224 A    
S11   O47   1.502396 D    
O1    Cu1   1.969138 S    
O5    Cu1   1.913899 S    
C70   N6    1.384781 A    
C21   C23   1.407196 A    
S12   O51   1.502856 D    
O46   H38   0.990678 S    
C8    N2    1.363145 A    
C43   C53   1.386900 A    
C44   C54   1.387916 A    
S3    O23   1.500721 D    
C51   C53   1.401868 A    
C25   S9    1.792890 S    
S2    O20   1.500617 D    
C61   N3    1.378759 A    
C39   S15   1.777334 S    
C62   C78   1.412568 A    
O34   H34   0.990461 S    
C50   S4    1.786473 S    
Cu2   N5    1.992494 S    
S16   O64   1.682491 S    
C90   C92   1.398233 A    
C64   C82   1.415260 A    
S11   O48   1.501930 D    
S6    O34   1.681652 S    
