data_mof_unit_36475.cif
_audit_creation_date              2012-12-10T19:09:02-0500
_audit_creation_method            fapswitch 2.2
_symmetry_space_group_name_H-M    P1
_symmetry_Int_Tables_number       1
_space_group_crystal_system       triclinic
_cell_length_a                    17.675739
_cell_length_b                    10.879583
_cell_length_c                    9.564501
_cell_angle_alpha                 90.437358
_cell_angle_beta                  89.97944
_cell_angle_gamma                 90.126952
_cell_volume                      1839.23999602

loop_
_atom_site_label
_atom_site_type_symbol
_atom_type_description
_atom_site_fract_x
_atom_site_fract_y
_atom_site_fract_z
_atom_type_partial_charge
C1    C     C_R   0.498532 0.262597 0.498970 0.895438
C2    C     C_R   0.884123 0.478652 0.488726 0.099278
C3    C     C_1   0.965140 0.482654 0.490923 0.063983
C4    C     C_1   0.032945 0.485595 0.494194 0.132303
C5    C     C_R   0.155438 0.434351 0.606709 -0.019924
C6    C     C_R   0.234292 0.442806 0.604972 -0.309257
C7    C     C_R   0.272473 0.507130 0.499866 -0.101636
C8    C     C_R   0.230733 0.567859 0.394462 -0.109247
C9    C     C_R   0.151702 0.552290 0.389440 0.348325
C10   C     C_R   0.114073 0.489353 0.497296 -0.001583
C11   C     C_R   0.486746 0.063394 0.617631 0.102847
C12   C     C_R   0.355672 0.503963 0.499995 0.869477
C13   C     C_R   0.494422 0.129587 0.494978 -0.159940
C14   C     C_R   0.498577 0.061806 0.367385 0.416451
C15   C     C_R   0.495406 0.932268 0.371020 -0.234448
C16   C     C_R   0.493937 0.869324 0.499025 -0.136895
C17   C     C_R   0.487942 0.939316 0.620233 -0.014773
C18   C     C_3   0.487931 0.934054 0.776383 -0.261348
C19   C     C_3   0.487509 0.076623 0.773185 -0.265495
C20   C     C_R   0.566688 0.498030 0.072915 0.131547
C21   C     C_R   0.434321 0.491741 0.074058 -0.020988
C22   C     C_R   0.434328 0.491793 0.925880 -0.002750
C23   C     C_R   0.498254 0.737074 0.500405 0.862046
C24   C     C_R   0.566313 0.496823 0.925881 0.173499
C25   C     C_3   0.631673 0.582968 0.914002 0.183357
C26   C     C_3   0.631343 0.589642 0.074536 -0.156437
C27   C     C_R   0.643944 0.496844 0.500089 0.841373
C28   C     C_R   0.846036 0.587779 0.459904 -0.186584
C29   C     C_R   0.767739 0.592057 0.465359 -0.248841
C30   C     C_R   0.726252 0.487505 0.500682 -0.009852
C31   C     C_R   0.763497 0.375109 0.529427 -0.052486
C32   C     C_R   0.843587 0.370289 0.522147 -0.048079
Cu1   Cu    Cu3+1 0.500000 0.499980 0.640670 1.031672
Cu2   Cu    Cu3+1 0.500000 0.500020 0.359330 1.023376
H1    H     H_    0.877189 0.670597 0.434455 0.157138
H2    H     H_    0.495583 0.881746 0.273264 0.186706
H3    H     H_    0.541322 0.897326 0.819647 0.205647
H4    H     H_    0.541466 0.117936 0.809845 0.163157
H5    H     H_    0.380798 0.486504 0.127992 0.137397
H6    H     H_    0.380791 0.486794 0.871916 0.142401
H7    H     H_    0.680763 0.533058 0.867081 0.094376
H8    H     H_    0.739223 0.677684 0.442645 0.167250
H9    H     H_    0.266546 0.397290 0.685898 0.182193
N1    N     N_R   0.500470 0.500930 0.147930 -0.195301
N2    N     N_R   0.500480 0.500890 0.852020 -0.160601
O1    O     O_R   0.500000 0.319640 0.618810 -0.547639
O2    O     O_R   0.500010 0.319680 0.381230 -0.542454
O3    O     O_R   0.391250 0.499990 0.618840 -0.596727
O4    O     O_R   0.391260 0.500020 0.381250 -0.579543
O5    O     O_R   0.499990 0.680320 0.618770 -0.547598
O6    O     O_R   0.500000 0.680360 0.381190 -0.563905
O7    O     O_R   0.608740 0.499980 0.618750 -0.561496
O8    O     O_R   0.608750 0.500010 0.381160 -0.554241
C33   C     C_2   0.417939 0.872521 0.832388 0.448029
H10   H     H_    0.362679 0.893843 0.789486 0.093015
O9    O     O_2   0.422986 0.797805 0.926393 -0.554908
C34   C     C_2   0.418506 0.138365 0.834687 0.377169
H11   H     H_    0.410992 0.139474 0.947261 0.100186
O10   O     O_2   0.371325 0.187511 0.760580 -0.558193
O11   O     O_3   0.610093 0.693450 0.847610 -0.558688
C35   C     C_3   0.672725 0.750526 0.782039 0.066906
H12   H     H_    0.650813 0.806348 0.694241 0.162968
H13   H     H_    0.713362 0.684551 0.734122 0.135734
C36   C     C_3   0.713768 0.836738 0.883113 -0.832917
H14   H     H_    0.741859 0.783223 0.966522 0.244658
H15   H     H_    0.757620 0.889490 0.825841 0.221921
H16   H     H_    0.673146 0.902361 0.931188 0.247264
C37   C     C_2   0.705180 0.541222 0.132363 0.382922
H17   H     H_    0.753541 0.602413 0.141212 0.097149
O12   O     O_2   0.712444 0.433709 0.165233 -0.562745
C38   C     C_2   0.608143 0.712960 0.135067 0.424184
H18   H     H_    0.556960 0.756844 0.097893 0.124928
O13   O     O_2   0.645958 0.764555 0.224913 -0.622706
C39   C     C_2   0.719674 0.261230 0.559389 0.276153
H19   H     H_    0.738545 0.173413 0.517865 0.074615
O14   O     O_2   0.663776 0.263396 0.634166 -0.561378
C40   C     C_2   0.883925 0.253511 0.554523 0.395016
H20   H     H_    0.858551 0.186789 0.624107 0.059833
O15   O     O_2   0.945074 0.229124 0.501925 -0.506879
C41   C     C_2   0.120074 0.366280 0.724504 0.387265
H21   H     H_    0.155717 0.328057 0.805704 0.070276
O16   O     O_2   0.051809 0.351491 0.733488 -0.533388
C42   C     C_2   0.266597 0.653259 0.293119 0.402062
H22   H     H_    0.241271 0.667508 0.191295 0.101674
O17   O     O_2   0.322358 0.713768 0.324696 -0.537323
O18   O     O_3   0.110111 0.608826 0.285496 -0.587002
C43   C     C_3   0.099725 0.524039 0.174461 0.031843
H23   H     H_    0.067990 0.441335 0.209839 0.167963
H24   H     H_    0.155080 0.494573 0.129748 0.122720
C44   C     C_3   0.054203 0.584799 0.059297 -0.729032
H25   H     H_    0.084856 0.666779 0.019979 0.247100
H26   H     H_    0.045663 0.519012 0.971396 0.225414
H27   H     H_    0.998068 0.613504 0.100218 0.250467
O19   O     O_3   0.502307 0.122602 0.240495 -0.561944
C45   C     C_3   0.562773 0.078219 0.157244 0.018766
H28   H     H_    0.540618 0.010327 0.080026 0.156765
H29   H     H_    0.608993 0.034495 0.218927 0.168843
C46   C     C_3   0.597598 0.185339 0.079393 -0.727082
H30   H     H_    0.623114 0.250163 0.155927 0.290837
H31   H     H_    0.642207 0.151826 0.006843 0.209307
H32   H     H_    0.553451 0.234243 0.019142 0.229064

loop_
_geom_bond_atom_site_label_1
_geom_bond_atom_site_label_2
_ccdc_geom_bond_type
C8    C9    A    
C43   H23   S    
Cu1   O1    S    
C29   H8    S    
C8    C42   S    
Cu1   N2    S    
C45   H28   S    
C12   O3    A    
C12   O4    A    
C34   H11   S    
C45   C46   S    
C7    C8    A    
C40   H20   S    
C19   C34   S    
Cu1   O7    S    
C11   C19   S    
Cu2   O6    S    
C39   O14   D    
C42   H22   S    
C24   N2    A    
C28   C29   A    
C18   H3    S    
C30   C31   A    
C1    O1    A    
C34   O10   D    
C15   C16   A    
C2    C32   A    
C18   C19   S    
C35   H13   S    
C32   C40   S    
C37   H17   S    
C23   O6    A    
C20   C24   A    
C28   H1    S    
C16   C17   A    
C25   O11   S    
C9    C10   A    
C21   C22   A    
C27   C30   S    
C26   C38   S    
O19   C45   S    
C20   N1    A    
Cu1   Cu2   S    
C40   O15   D    
C7    C12   S    
C33   O9    D    
C39   H19   S    
C36   H16   S    
Cu2   N1    S    
C24   C25   S    
C41   O16   D    
C25   H7    S    
C38   O13   D    
O18   C43   S    
C1    O2    A    
C23   O5    A    
C25   C26   S    
O11   C35   S    
C36   H15   S    
C35   C36   S    
C29   C30   A    
C19   H4    S    
C9    O18   S    
C21   N1    A    
C44   H26   S    
C31   C32   A    
C21   H5    S    
C22   H6    S    
C45   H29   S    
C17   C18   S    
C5    C41   S    
C42   O17   D    
C16   C23   S    
C46   H31   S    
C6    H9    S    
C43   H24   S    
C1    C13   S    
C4    C10   S    
C3    C4    T    
C15   H2    S    
C27   O7    A    
C44   H27   S    
C33   H10   S    
C11   C17   A    
Cu2   O4    S    
C41   H21   S    
C31   C39   S    
C27   O8    A    
C6    C7    A    
C46   H32   S    
C26   C37   S    
C36   H14   S    
C2    C3    S    
Cu1   O5    S    
C38   H18   S    
C11   C13   A    
C44   H25   S    
C5    C6    A    
C20   C26   S    
C35   H12   S    
C18   C33   S    
C5    C10   A    
C22   N2    A    
Cu2   O8    S    
C37   O12   D    
C46   H30   S    
C43   C44   S    
Cu1   O3    S    
C14   C15   A    
C2    C28   A    
Cu2   O2    S    
C13   C14   A    
C14   O19   S    
