data_mof_unit_52538.cif
_audit_creation_date              2013-03-05T16:31:07-0500
_audit_creation_method            fapswitch 2.2
_symmetry_space_group_name_H-M    P1
_symmetry_Int_Tables_number       1
_space_group_crystal_system       triclinic
_cell_length_a                    10.888474
_cell_length_b                    10.831956
_cell_length_c                    9.542137
_cell_angle_alpha                 89.452695
_cell_angle_beta                  88.666195
_cell_angle_gamma                 91.033367
_cell_volume                      1124.88885432

loop_
_atom_site_label
_atom_site_type_symbol
_atom_site_description
_atom_site_fract_x
_atom_site_fract_y
_atom_site_fract_z
_atom_type_partial_charge
O1    O     O_R   0.500000 0.319640 0.618810 -0.594337
O2    O     O_R   0.500010 0.319680 0.381230 -0.586494
C1    C     C_R   0.502488 0.262511 0.500191 0.780564
O3    O     O_R   0.319640 0.499980 0.618820 -0.599617
O4    O     O_R   0.319650 0.500020 0.381230 -0.569489
C2    C     C_R   0.262133 0.499308 0.502228 0.789999
Cu1   Cu    Cu3+1 0.499990 0.499980 0.640670 0.957400
Cu2   Cu    Cu3+1 0.500010 0.500020 0.359330 0.938311
O5    O     O_R   0.499990 0.680320 0.618770 -0.573248
O6    O     O_R   0.500000 0.680360 0.381190 -0.594766
O7    O     O_R   0.680350 0.499980 0.618770 -0.556963
O8    O     O_R   0.680360 0.500020 0.381180 -0.583611
C3    C     C_R   0.502331 0.737566 0.499823 0.811659
C4    C     C_R   0.737294 0.499360 0.498156 0.826110
C5    C     C_R   0.112753 0.347268 0.703055 -0.165170
H1    H     H_    0.209185 0.347366 0.722179 0.157353
C6    C     C_R   0.043285 0.263708 0.785105 -0.153418
H2    H     H_    0.087413 0.207058 0.862627 0.135097
C7    C     C_R   0.918993 0.248216 0.762500 -0.110285
H3    H     H_    0.865943 0.179285 0.821772 0.152482
C8    C     C_R   0.862873 0.320806 0.662743 -0.126029
H4    H     H_    0.766721 0.301371 0.645731 0.140753
C9    C     C_R   0.929955 0.413884 0.585950 0.061847
C10   C     C_R   0.058414 0.422566 0.599400 0.062566
C11   C     C_R   0.127708 0.503675 0.507711 -0.159953
C12   C     C_R   0.067826 0.585968 0.415742 0.176533
C13   C     C_R   0.938778 0.580329 0.407398 0.153225
C14   C     C_R   0.871031 0.495734 0.494435 -0.150787
C15   C     C_R   0.458830 0.062068 0.613384 0.061389
C16   C     C_R   0.509857 0.129440 0.501013 -0.074295
C17   C     C_R   0.569676 0.066575 0.391779 -0.204312
H5    H     H_    0.613543 0.116847 0.305034 0.161306
C18   C     C_R   0.568940 0.937446 0.391809 -0.212126
H6    H     H_    0.612175 0.890102 0.305001 0.153127
C19   C     C_R   0.509971 0.870821 0.502019 -0.049711
C20   C     C_R   0.463616 0.934880 0.618045 0.119861
C21   C     C_3   0.341548 0.924255 0.695215 -0.074090
C22   C     C_3   0.330891 0.064217 0.674661 -0.063001
H7    H     H_    0.353550 0.899180 0.807329 0.141200
H8    H     H_    0.325486 0.115603 0.774897 0.134568
C23   C     C_R   0.581531 0.573145 0.070763 0.216610
N1    N     N_R   0.500790 0.500930 0.147930 -0.183227
C24   C     C_R   0.428150 0.419269 0.077305 -0.057095
H9    H     H_    0.368092 0.355646 0.135458 0.141317
C25   C     C_R   0.428469 0.419013 0.928444 -0.081302
H10   H     H_    0.369609 0.354384 0.875225 0.124351
N2    N     N_R   0.500790 0.500890 0.852020 -0.218388
C26   C     C_R   0.582248 0.572340 0.923215 0.241693
C27   C     C_3   0.594901 0.709718 0.915448 0.125843
C28   C     C_3   0.592631 0.710688 0.074649 -0.590569
H11   H     H_    0.515029 0.756194 0.869267 0.112754
H12   H     H_    0.679853 0.743182 0.120924 0.218980
H13   H     H_    0.508731 0.754094 0.118965 0.192841
C29   C     C_3   0.139089 0.684053 0.330184 -0.831604
H14   H     H_    0.100617 0.776397 0.351305 0.220694
H15   H     H_    0.236920 0.694701 0.355905 0.234872
H16   H     H_    0.133557 0.663261 0.216730 0.245122
C30   C     C_3   0.237454 0.106101 0.565642 -0.794476
H17   H     H_    0.142379 0.088142 0.605851 0.252699
H18   H     H_    0.250532 0.205829 0.542761 0.211304
H19   H     H_    0.250290 0.058258 0.464066 0.238546
N3    N     N_R   0.713385 0.750071 0.853530 0.154900
O9    O     O_R   0.814991 0.698050 0.889579 -0.369200
O10   O     O_R   0.717548 0.838356 0.760144 -0.380147
C31   C     C_3   0.871221 0.663969 0.306573 -0.780322
H20   H     H_    0.827920 0.606491 0.225123 0.251294
H21   H     H_    0.800091 0.716687 0.364586 0.221419
H22   H     H_    0.928717 0.732734 0.248011 0.232873
C32   C     C_3   0.244198 0.841630 0.627689 -0.794115
H23   H     H_    0.262615 0.743462 0.651592 0.243446
H24   H     H_    0.151727 0.862932 0.671474 0.259074
H25   H     H_    0.245165 0.854863 0.512709 0.226164

loop_
_geom_bond_atom_site_label_1
_geom_bond_atom_site_label_2
_geom_bond_distance
_ccdc_geom_bond_type
C15   C22   1.498856 S    
C1    C16   1.445045 S    
C28   H12   1.109613 S    
C24   H9    1.081687 S    
C17   C18   1.398593 A    
C5    C6    1.392330 A    
C21   C22   1.533658 S    
C13   C31   1.525723 S    
C21   C32   1.532433 S    
O4    Cu2   1.970089 S    
C23   N1    1.364199 A    
N3    O10   1.300347 A    
C19   C20   1.401170 A    
Cu2   O8    1.979595 S    
C16   C17   1.404396 A    
C9    C10   1.409102 A    
C31   H22   1.103611 S    
C17   H5    1.083244 S    
C30   H19   1.110613 S    
C8    C9    1.421752 A    
C6    H2    1.083105 S    
C11   C12   1.422151 A    
Cu1   Cu2   2.684576 S    
C21   H7    1.112464 S    
C22   H8    1.112128 S    
O1    Cu1   1.966522 S    
C9    C14   1.411407 A    
C31   H20   1.108916 S    
Cu1   O7    1.970089 S    
C24   C25   1.420405 A    
C15   C20   1.379948 A    
C12   C13   1.409499 A    
C15   C16   1.390575 A    
O3    Cu1   1.979593 S    
C26   C27   1.492939 S    
C12   C29   1.523683 S    
O3    C2    1.289297 A    
C5    C10   1.422269 A    
C7    C8    1.388476 A    
C23   C26   1.407880 A    
Cu2   N1    2.016956 S    
C3    C19   1.444693 S    
O2    C1    1.288938 A    
C32   H23   1.108210 S    
C25   N2    1.369015 A    
O4    C2    1.300511 A    
C18   C19   1.405842 A    
O7    C4    1.294667 A    
C29   H15   1.102964 S    
C28   H13   1.111647 S    
C31   H21   1.111036 S    
N1    C24   1.368624 A    
C30   H18   1.106066 S    
C5    H1    1.069890 S    
C2    C11   1.465030 S    
N2    C26   1.364013 A    
C25   H10   1.079104 S    
C23   C28   1.493462 S    
C32   H25   1.104905 S    
C18   H6    1.081400 S    
C10   C11   1.427346 A    
Cu1   O5    1.962595 S    
C27   C28   1.518883 S    
C27   H11   1.110571 S    
C13   C14   1.416380 A    
C32   H24   1.110057 S    
O5    C3    1.287643 A    
C29   H14   1.109812 S    
C20   C21   1.506441 S    
C6    C7    1.382868 A    
C27   N3    1.464155 S    
C4    C14   1.457047 S    
C30   H17   1.108852 S    
C8    H4    1.080461 S    
C22   C30   1.542722 S    
C29   H16   1.110664 S    
Cu2   O6    1.966522 S    
O2    Cu2   1.962596 S    
N3    O9    1.302437 A    
C7    H3    1.082686 S    
O8    C4    1.289377 A    
O1    C1    1.295135 A    
O6    C3    1.296241 A    
Cu1   N2    2.017071 S    
