data_mof_unit_27372.cif
_audit_creation_date              2013-03-05T15:47:37-0500
_audit_creation_method            fapswitch 2.2
_symmetry_space_group_name_H-M    P1
_symmetry_Int_Tables_number       1
_space_group_crystal_system       triclinic
_cell_length_a                    10.800132
_cell_length_b                    12.960371
_cell_length_c                    11.839416
_cell_angle_alpha                 99.100285
_cell_angle_beta                  94.961006
_cell_angle_gamma                 91.728444
_cell_volume                      1628.5980216

loop_
_atom_site_label
_atom_site_type_symbol
_atom_site_description
_atom_site_fract_x
_atom_site_fract_y
_atom_site_fract_z
_atom_type_partial_charge
O1    O     O_R   0.506570 0.354460 0.582000 -0.583433
O2    O     O_R   0.490940 0.341410 0.386200 -0.583694
C1    C     C_R   0.496043 0.299692 0.479385 0.792695
O3    O     O_R   0.327470 0.506530 0.597920 -0.582832
O4    O     O_R   0.311840 0.493480 0.402120 -0.595239
C2    C     C_R   0.263250 0.508225 0.499644 0.765486
Cu1   Cu    Cu3+1 0.509250 0.507730 0.615930 0.940708
Cu2   Cu    Cu3+1 0.490750 0.492270 0.384070 0.945843
O5    O     O_R   0.509060 0.658590 0.613800 -0.558709
O6    O     O_R   0.493430 0.645540 0.418000 -0.616485
O7    O     O_R   0.688160 0.506520 0.597880 -0.592257
O8    O     O_R   0.672530 0.493470 0.402080 -0.543425
C3    C     C_R   0.509853 0.699963 0.520806 0.799721
C4    C     C_R   0.738101 0.494652 0.501480 0.796524
H1    H     H_    0.094136 0.441660 0.321234 0.160710
C5    C     C_R   0.135427 0.639713 0.686873 0.000461
C6    C     C_R   0.088054 0.655382 0.794630 -0.156732
H2    H     H_    0.132969 0.711257 0.865069 0.186406
C7    C     C_R   0.986242 0.594726 0.814297 -0.205819
H3    H     H_    0.960439 0.598138 0.901214 0.162820
C8    C     C_R   0.921683 0.526283 0.723570 0.192074
C9    C     C_R   0.953488 0.526687 0.609482 0.082106
C10   C     C_R   0.074386 0.564215 0.597296 -0.027114
C11   C     C_R   0.129459 0.520734 0.497523 -0.114942
C12   C     C_R   0.054473 0.472685 0.399892 -0.191196
H4    H     H_    0.870363 0.431609 0.324353 0.188300
C13   C     C_R   0.927148 0.463166 0.402878 -0.139405
C14   C     C_R   0.874291 0.489878 0.506779 -0.126561
C15   C     C_R   0.528788 0.812720 0.532328 -0.056456
C16   C     C_R   0.491334 0.186317 0.470324 -0.022271
C17   C     C_R   0.381925 0.021301 0.398047 -0.168002
C18   C     C_R   0.394029 0.128422 0.401233 -0.255104
C19   C     C_R   0.578268 0.137051 0.537405 0.100880
C20   C     C_R   0.556780 0.030241 0.546219 0.022824
C21   C     C_R   0.462317 0.971936 0.469532 0.135546
C22   C     C_R   0.448324 0.864622 0.464736 -0.305411
C23   C     C_R   0.623044 0.868604 0.610843 0.132541
C24   C     C_R   0.627831 0.979117 0.626262 -0.009074
H5    H     H_    0.375207 0.820506 0.406556 0.148780
H6    H     H_    0.307669 0.977265 0.341539 0.145471
H7    H     H_    0.326680 0.166316 0.350404 0.148612
N1    N     N_R   0.523180 0.519350 0.790130 -0.204051
N2    N     N_R   0.476820 0.480650 0.209890 -0.208942
C25   C     C_R   0.402268 0.391638 0.021843 -0.296740
C26   C     C_R   0.404352 0.402540 0.140834 0.374658
C27   C     C_R   0.547038 0.549511 0.158917 0.107662
C28   C     C_R   0.539990 0.544833 0.035218 -0.023880
C29   C     C_R   0.466270 0.462638 0.966928 -0.021911
C30   C     C_R   0.455775 0.452311 0.844459 0.334002
C31   C     C_R   0.592799 0.600137 0.853968 0.043638
C32   C     C_R   0.601539 0.617382 0.975408 0.071886
H8    H     H_    0.641601 0.652747 0.809152 0.147793
H9    H     H_    0.349208 0.324829 0.973032 0.162300
C33   C     C_2   0.688854 0.040618 0.734959 0.364080
H10   H     H_    0.643206 0.107660 0.776969 0.078224
O9    O     O_2   0.790007 0.019259 0.777352 -0.547441
C34   C     C_3   0.700486 0.194952 0.583193 -0.862436
H11   H     H_    0.726213 0.251763 0.527166 0.213918
H12   H     H_    0.692357 0.237175 0.671051 0.236966
H13   H     H_    0.778345 0.140998 0.583149 0.248716
C35   C     C_3   0.364970 0.367874 0.777828 -0.764195
H14   H     H_    0.399683 0.289504 0.786839 0.195076
H15   H     H_    0.272203 0.376633 0.811235 0.195632
H16   H     H_    0.344534 0.368269 0.686848 0.275633
C36   C     C_3   0.671851 0.716859 0.033679 -0.853051
H17   H     H_    0.696661 0.767877 0.971212 0.226586
H18   H     H_    0.613259 0.763671 0.093234 0.225630
H19   H     H_    0.760850 0.698700 0.078589 0.264566
C37   C     C_3   0.331835 0.319144 0.185940 -0.799562
H20   H     H_    0.248149 0.290909 0.126434 0.187186
H21   H     H_    0.390943 0.251324 0.191991 0.228629
H22   H     H_    0.295600 0.346089 0.268509 0.255816
C38   C     C_2   0.637896 0.622607 0.232669 0.456073
H23   H     H_    0.610236 0.698585 0.272154 0.062386
O10   O     O_2   0.746949 0.600794 0.244025 -0.566960
C39   C     C_2   0.237571 0.711131 0.665347 0.442783
H24   H     H_    0.256826 0.716411 0.578020 0.026049
O11   O     O_2   0.299932 0.766133 0.744582 -0.544254
C40   C     C_3   0.849149 0.436153 0.755384 -0.802982
H25   H     H_    0.764881 0.462823 0.795904 0.244568
H26   H     H_    0.824343 0.376292 0.679113 0.233207
H27   H     H_    0.907545 0.398084 0.817442 0.221377
C41   C     C_3   0.720705 0.812283 0.674870 -0.742916
H28   H     H_    0.814828 0.843667 0.663652 0.254901
H29   H     H_    0.706310 0.823278 0.767589 0.239779
H30   H     H_    0.722030 0.727627 0.641721 0.205255

loop_
_geom_bond_atom_site_label_1
_geom_bond_atom_site_label_2
_geom_bond_distance
_ccdc_geom_bond_type
C1    C16   1.455288 S    
C38   H23   1.083378 S    
C7    H3    1.083741 S    
Cu2   N2    2.035847 S    
Cu1   Cu2   2.710038 S    
C17   C18   1.384766 A    
Cu1   O7    1.962574 S    
C15   C22   1.390445 A    
H4    C13   1.083375 S    
C3    C15   1.452628 S    
C7    C8    1.399486 A    
C39   O11   1.221480 D    
O4    C2    1.298503 A    
O7    C4    1.293499 A    
C34   H12   1.108059 S    
C17   H6    1.084106 S    
C37   H21   1.109556 S    
C20   C21   1.418603 A    
C32   C36   1.511207 S    
Cu1   N1    2.036083 S    
C35   H15   1.110995 S    
O5    C3    1.299188 A    
O1    Cu1   1.962204 S    
C27   C28   1.451432 A    
C25   H9    1.080083 S    
C28   C29   1.409776 A    
C5    C6    1.402796 A    
C36   H18   1.109366 S    
C31   H8    1.079517 S    
C10   C11   1.413454 A    
Cu2   O8    1.955699 S    
C9    C14   1.431685 A    
C8    C9    1.422983 A    
C38   O10   1.220608 D    
C35   H14   1.110830 S    
O3    Cu1   1.955700 S    
C6    H2    1.083055 S    
C33   O9    1.220392 D    
C30   C35   1.519878 S    
C26   C37   1.506868 S    
C11   C12   1.399909 A    
O3    C2    1.305672 A    
C40   H26   1.101406 S    
C34   H13   1.109731 S    
C28   C32   1.442816 A    
O1    C1    1.300460 A    
C21   C22   1.386130 A    
C20   C24   1.424585 A    
C37   H22   1.094155 S    
C23   C24   1.413741 A    
O4    Cu2   1.962574 S    
C41   H28   1.109928 S    
C24   C33   1.490961 S    
C18   H7    1.082481 S    
C36   H19   1.107635 S    
C2    C11   1.457392 S    
C8    C40   1.501680 S    
C31   C32   1.414100 A    
C39   H24   1.084245 S    
N2    C26   1.373158 A    
N1    C31   1.355273 A    
C29   C30   1.429130 A    
C41   H29   1.109455 S    
O8    C4    1.317648 A    
C5    C10   1.424314 A    
C17   C21   1.398984 A    
C25   C26   1.391579 A    
Cu1   O5    1.959408 S    
C33   H10   1.084885 S    
C19   C34   1.512329 S    
C16   C19   1.409815 A    
C5    C39   1.483357 S    
C22   H5    1.085852 S    
O2    Cu2   1.959407 S    
O6    C3    1.301535 A    
C40   H27   1.111004 S    
C12   C13   1.380937 A    
O2    C1    1.300968 A    
C35   H16   1.081522 S    
C16   C18   1.395044 A    
C34   H11   1.110568 S    
C6    C7    1.389725 A    
C19   C20   1.418284 A    
C37   H20   1.111526 S    
N2    C27   1.394456 A    
H1    C12   1.083213 S    
N1    C30   1.384997 A    
C40   H25   1.104507 S    
C41   H30   1.106214 S    
Cu2   O6    1.962204 S    
C36   H17   1.110972 S    
C15   C23   1.415567 A    
C13   C14   1.399151 A    
C9    C10   1.406678 A    
C23   C41   1.517608 S    
C4    C14   1.470361 S    
C27   C38   1.468636 S    
C25   C29   1.405656 A    
