data_mof_unit_59079.cif
_audit_creation_date              2012-12-10T16:54:32-0500
_audit_creation_method            fapswitch 2.2
_symmetry_space_group_name_H-M    P1
_symmetry_Int_Tables_number       1
_space_group_crystal_system       triclinic
_cell_length_a                    15.079284
_cell_length_b                    10.926592
_cell_length_c                    9.727774
_cell_angle_alpha                 90.23113
_cell_angle_beta                  90.378334
_cell_angle_gamma                 90.407362
_cell_volume                      1602.70967358

loop_
_atom_site_label
_atom_site_type_symbol
_atom_type_description
_atom_site_fract_x
_atom_site_fract_y
_atom_site_fract_z
_atom_type_partial_charge
C1    C     C_R   0.496814 0.265606 0.499861 0.837423
C2    C     C_R   0.906936 0.596319 0.434601 0.032389
C3    C     C_R   0.953412 0.322041 0.652574 0.387465
C4    C     C_R   0.046402 0.328453 0.661367 0.339067
C5    C     C_R   0.094046 0.415955 0.583173 -0.054771
C6    C     C_R   0.047337 0.508065 0.511169 -0.134462
C7    C     C_R   0.094076 0.601676 0.439580 0.003503
C8    C     C_R   0.045422 0.695641 0.373513 0.409297
C9    C     C_R   0.953749 0.688965 0.367158 -0.139326
C10   C     C_R   0.186750 0.408625 0.569281 0.355103
C11   C     C_R   0.232889 0.502361 0.500142 -0.250266
C12   C     C_R   0.329294 0.500798 0.499700 0.780841
C13   C     C_R   0.187462 0.599005 0.435577 0.339565
C14   C     C_2   0.486655 0.932501 0.394259 -0.164009
C15   C     C_2   0.517146 0.866876 0.501094 0.279398
C16   C     C_2   0.494493 0.065943 0.388393 -0.114167
C17   C     C_2   0.486702 0.134099 0.501981 -0.211091
C18   C     C_2   0.446805 0.430674 0.920762 0.524560
C19   C     C_2   0.441847 0.437945 0.078877 0.419815
C20   C     C_R   0.503855 0.734555 0.500295 0.674879
C21   C     C_R   0.670867 0.500897 0.500505 0.851719
C22   C     C_R   0.814068 0.595530 0.430200 0.312077
C23   C     C_R   0.767443 0.504438 0.502692 -0.227126
C24   C     C_R   0.812448 0.417794 0.582350 0.363756
C25   C     C_R   0.906267 0.414746 0.582774 -0.079133
C26   C     C_R   0.953511 0.506567 0.510274 -0.097486
Cu1   Cu    Cu3+1 0.500020 0.500020 0.638630 1.049577
Cu2   Cu    Cu3+1 0.499980 0.499980 0.361370 1.032374
H1    H     H_    0.503492 0.108127 0.288474 0.172360
H2    H     H_    0.558414 0.522916 0.110005 0.226594
N1    N     N_2   0.499020 0.498660 0.846910 -0.044232
N2    N     N_2   0.499000 0.498630 0.153040 -0.266918
O1    O     O_R   0.500020 0.321960 0.617040 -0.522920
O2    O     O_R   0.499980 0.321920 0.382900 -0.563406
O3    O     O_R   0.370270 0.499990 0.617090 -0.539270
O4    O     O_R   0.370240 0.499950 0.382940 -0.497254
O5    O     O_R   0.500020 0.678080 0.617100 -0.588437
O6    O     O_R   0.499980 0.678040 0.382960 -0.584531
O7    O     O_R   0.629760 0.500050 0.617060 -0.567018
O8    O     O_R   0.629730 0.500010 0.382910 -0.579730
O9    O     O_3   0.771277 0.686955 0.357642 -0.713327
H3    H     H_    0.711098 0.699398 0.394769 0.327673
O10   O     O_3   0.565828 0.922616 0.605502 -0.706567
H4    H     H_    0.588591 0.859116 0.668762 0.336905
H5    H     H_    0.470432 0.093069 0.600146 0.213688
O11   O     O_3   0.393643 0.348356 0.850108 -0.708413
H6    H     H_    0.334707 0.347225 0.894176 0.318743
O12   O     O_3   0.529939 0.601912 0.905437 -0.697518
H7    H     H_    0.569349 0.639299 0.836306 0.372868
O13   O     O_3   0.376795 0.374472 0.148304 -0.684175
H8    H     H_    0.364654 0.296967 0.098658 0.306304
O14   O     O_3   0.762623 0.337079 0.658832 -0.647143
H9    H     H_    0.781425 0.348973 0.755913 0.361268
O15   O     O_3   0.907512 0.225705 0.711744 -0.680106
H10   H     H_    0.948884 0.160896 0.741447 0.380703
O16   O     O_3   0.088494 0.250603 0.751569 -0.680557
H11   H     H_    0.131702 0.300486 0.805400 0.364109
O17   O     O_3   0.229971 0.305164 0.616306 -0.678073
H12   H     H_    0.286028 0.293134 0.565865 0.330157
O18   O     O_3   0.232742 0.687817 0.362492 -0.678159
H13   H     H_    0.291661 0.702684 0.404973 0.316549
O19   O     O_3   0.084720 0.796712 0.315314 -0.655596
H14   H     H_    0.120877 0.836123 0.388860 0.357700
H15   H     H_    0.919211 0.760640 0.312346 0.225557
H16   H     H_    0.455688 0.887245 0.306401 0.151200

loop_
_geom_bond_atom_site_label_1
_geom_bond_atom_site_label_2
_ccdc_geom_bond_type
C24   O14   S    
C11   C12   S    
C24   C25   A    
C2    C22   A    
C6    C7    A    
C12   O4    A    
C9    H15   S    
C20   O6    A    
O9    H3    S    
C1    C17   S    
C21   O7    A    
Cu2   O6    S    
O10   H4    S    
C14   C15   D    
O13   H8    S    
C16   H1    S    
Cu2   O2    S    
C5    C10   A    
C2    C26   A    
C13   O18   S    
C6    C26   A    
Cu1   O1    S    
C12   O3    A    
H2    N2    S    
C20   O5    A    
C11   C13   A    
C19   O13   S    
O19   H14   S    
C21   O8    A    
Cu1   O5    S    
C5    C6    A    
C19   N2    D    
C18   O11   S    
Cu2   N2    S    
O12   H7    S    
C10   O17   S    
C14   H16   S    
C17   H5    S    
C1    O2    A    
N1    O12   S    
C21   C23   S    
C15   C20   S    
C3    O15   S    
C14   C16   S    
O17   H12   S    
C22   O9    S    
C7    C8    A    
C10   C11   A    
C1    O1    A    
C23   C24   A    
C15   O10   S    
C3    C4    A    
C7    C13   A    
C3    C25   A    
O14   H9    S    
Cu2   O4    S    
C18   C19   S    
O11   H6    S    
C8    O19   S    
Cu1   Cu2   S    
O16   H11   S    
Cu2   O8    S    
O15   H10   S    
C8    C9    A    
C18   N1    D    
Cu1   O3    S    
C25   C26   A    
C22   C23   A    
C2    C9    A    
Cu1   N1    S    
O18   H13   S    
C4    O16   S    
C16   C17   D    
Cu1   O7    S    
C4    C5    A    
