data_mof_unit_15686.cif
_audit_creation_date              2012-12-10T17:37:18-0500
_audit_creation_method            fapswitch 2.2
_symmetry_space_group_name_H-M    P1
_symmetry_Int_Tables_number       1
_space_group_crystal_system       triclinic
_cell_length_a                    12.319679
_cell_length_b                    13.043025
_cell_length_c                    15.836823
_cell_angle_alpha                 77.195975
_cell_angle_beta                  101.682626
_cell_angle_gamma                 116.552573
_cell_volume                      2204.08294981

loop_
_atom_site_label
_atom_site_type_symbol
_atom_type_description
_atom_site_fract_x
_atom_site_fract_y
_atom_site_fract_z
_atom_type_partial_charge
C1    C     C_R   0.854583 0.285409 0.507776 0.819231
C2    C     C_3   0.004205 0.514505 0.913824 -0.144372
C3    C     C_3   0.099781 0.597141 0.030039 -0.357597
C4    C     C_3   0.999156 0.499961 0.083532 -0.154555
C5    C     C_3   0.999353 0.608348 0.956395 0.336655
C6    C     C_3   0.899194 0.512736 0.010600 0.327459
C7    C     C_1   0.004919 0.509290 0.823502 0.068409
C8    C     C_1   0.999129 0.500808 0.174890 0.033273
C9    C     C_R   0.272279 0.030551 0.393241 -0.177074
C10   C     C_R   0.228113 0.837009 0.470396 -0.058244
C11   C     C_R   0.812427 0.076025 0.558270 0.407073
C12   C     C_R   0.000459 0.500466 0.659860 0.799713
C13   C     C_R   0.736911 0.957239 0.558245 0.427115
C14   C     C_R   0.613404 0.924057 0.523123 -0.377333
C15   C     C_R   0.566968 0.007434 0.485612 0.020901
C16   C     C_R   0.650237 0.124154 0.467089 -0.055848
C17   C     C_R   0.439902 0.977457 0.463756 0.061817
C18   C     C_R   0.398553 0.059916 0.412174 0.044179
C19   C     C_R   0.484437 0.169398 0.379432 0.416880
C20   C     C_R   0.608344 0.200407 0.406948 -0.226560
C21   C     C_R   0.352729 0.868720 0.495418 -0.226561
C22   C     C_R   0.187562 0.919057 0.420985 -0.199675
C23   C     C_R   0.145140 0.714269 0.487837 0.797623
C24   C     C_R   0.772298 0.160408 0.508991 -0.252828
C25   C     C_R   0.347143 0.326770 0.638758 -0.299461
C26   C     C_R   0.758776 0.645902 0.382252 0.091456
C27   C     C_R   0.661279 0.676849 0.355261 -0.248734
C28   C     C_R   0.557655 0.621055 0.398935 -0.199915
C29   C     C_R   0.550404 0.533259 0.470860 -0.000045
C30   C     C_R   0.652780 0.504261 0.496050 0.292639
C31   C     C_R   0.446343 0.473873 0.519025 -0.037789
C32   C     C_R   0.446675 0.386297 0.590271 0.169742
C33   C     C_R   0.546648 0.359014 0.613388 -0.271678
C34   C     C_R   0.000162 0.500609 0.339972 0.805956
C35   C     C_R   0.647359 0.416847 0.567659 -0.179574
C36   C     C_R   0.341505 0.497618 0.500477 0.009882
C37   C     C_R   0.247402 0.354258 0.617194 0.106036
C38   C     C_3   0.002800 0.405793 0.040674 0.316594
C39   C     C_3   0.904222 0.418810 0.968060 0.276851
C40   C     C_1   0.003253 0.504463 0.748831 -0.170266
C41   C     C_1   0.999620 0.501028 0.250371 -0.189360
C42   C     C_3   0.101759 0.502138 0.987191 0.412108
Cu1   Cu    Cu3+1 0.098270 0.475420 0.519690 0.945771
Cu2   Cu    Cu3+1 0.901730 0.524580 0.480310 0.917723
H1    H     H_    0.554268 0.834016 0.521744 0.152237
H2    H     H_    0.670467 0.284214 0.377933 0.188022
H3    H     H_    0.547500 0.292321 0.668029 0.155965
H4    H     H_    0.346700 0.259619 0.693270 0.140081
H5    H     H_    0.333612 0.562992 0.447754 0.125592
H6    H     H_    0.838684 0.689628 0.347800 0.122269
H7    H     H_    0.665985 0.744257 0.300183 0.143963
H8    H     H_    0.180705 0.669971 0.056439 0.174283
H9    H     H_    0.238565 0.092468 0.354971 0.167018
N1    N     N_R   0.246280 0.438200 0.549540 -0.181703
N2    N     N_R   0.754330 0.561180 0.450980 -0.205406
O1    O     O_R   0.972510 0.318130 0.524770 -0.527948
O2    O     O_R   0.806530 0.359650 0.491510 -0.607523
O3    O     O_R   0.082970 0.479240 0.637550 -0.578180
O4    O     O_R   0.916990 0.520750 0.604290 -0.603566
O5    O     O_R   0.193470 0.640350 0.508490 -0.588015
O6    O     O_R   0.027490 0.681870 0.475230 -0.584775
O7    O     O_R   0.083010 0.479250 0.395710 -0.576573
O8    O     O_R   0.917030 0.520760 0.362450 -0.583809
O9    O     O_3   0.805179 0.330488 0.926889 -0.610098
C43   C     C_3   0.721666 0.252842 0.985789 0.118640
H10   H     H_    0.631697 0.255212 0.961012 0.156749
H11   H     H_    0.746139 0.274362 0.053315 0.142844
C44   C     C_3   0.708131 0.129984 0.987635 -0.354849
H12   H     H_    0.671902 0.104765 0.921517 0.223949
H13   H     H_    0.798973 0.127602 0.005734 0.244472
C45   C     C_3   0.621849 0.042657 0.052667 -0.956347
H14   H     H_    0.657675 0.064918 0.119581 0.252322
H15   H     H_    0.613911 0.954544 0.052162 0.261402
H16   H     H_    0.529587 0.041954 0.034704 0.261101
H17   H     H_    0.379889 0.806602 0.540283 0.152591
O10   O     O_3   0.930015 0.110395 0.601893 -0.578519
C46   C     C_3   0.926624 0.084001 0.693519 0.064196
H18   H     H_    0.016121 0.084053 0.724228 0.161243
H19   H     H_    0.856182 0.996117 0.714587 0.148273
C47   C     C_3   0.908180 0.175266 0.728267 -0.410860
H20   H     H_    0.980745 0.262131 0.709161 0.239812
H21   H     H_    0.818116 0.175510 0.699745 0.200478
C48   C     C_3   0.913463 0.151388 0.827460 -0.871969
H22   H     H_    0.839444 0.065898 0.848429 0.245053
H23   H     H_    0.901526 0.219786 0.850415 0.297218
H24   H     H_    0.003315 0.152120 0.857860 0.261662
O11   O     O_3   0.792490 0.881039 0.591160 -0.612602
C49   C     C_3   0.713174 0.764095 0.617459 0.061391
H25   H     H_    0.769991 0.714405 0.633883 0.174712
H26   H     H_    0.644298 0.724367 0.563594 0.145843
C50   C     C_3   0.656476 0.749172 0.699808 -0.415786
H27   H     H_    0.730460 0.786279 0.752156 0.205912
H28   H     H_    0.596979 0.795809 0.686849 0.220009
C51   C     C_3   0.580585 0.621565 0.731732 -0.891098
H29   H     H_    0.502202 0.584088 0.682005 0.269343
H30   H     H_    0.544633 0.613385 0.792951 0.252209
H31   H     H_    0.637479 0.572154 0.745070 0.250920
H32   H     H_    0.170534 0.308633 0.654488 0.139186
O12   O     O_3   0.013138 0.300135 0.074806 -0.600611
C52   C     C_3   0.964568 0.248801 0.155091 0.053527
H33   H     H_    0.913249 0.154123 0.153743 0.160540
H34   H     H_    0.897607 0.278052 0.166799 0.128021
C53   C     C_3   0.068602 0.267127 0.230119 -0.362487
H35   H     H_    0.127980 0.228142 0.220020 0.211724
H36   H     H_    0.125504 0.361199 0.230964 0.220380
C54   C     C_3   0.019671 0.211549 0.318092 -0.847388
H37   H     H_    0.959837 0.248982 0.329836 0.249150
H38   H     H_    0.097226 0.227929 0.371015 0.271783
H39   H     H_    0.966765 0.116406 0.319994 0.242446
H40   H     H_    0.484961 0.648482 0.375179 0.133547
H41   H     H_    0.719132 0.389757 0.591239 0.205189
O13   O     O_3   0.789447 0.503356 0.033427 -0.633482
C55   C     C_3   0.748415 0.583569 0.979171 0.094396
H42   H     H_    0.646913 0.542130 0.972236 0.147687
H43   H     H_    0.772904 0.604999 0.911739 0.143975
C56   C     C_3   0.792121 0.691636 0.022542 -0.287325
H44   H     H_    0.751699 0.666283 0.084739 0.207741
H45   H     H_    0.893010 0.729360 0.038528 0.253539
C57   C     C_3   0.755178 0.783578 0.964006 -0.938580
H46   H     H_    0.803038 0.817256 0.904795 0.255102
H47   H     H_    0.780907 0.856939 0.999774 0.255723
H48   H     H_    0.655009 0.746915 0.944314 0.253277
O14   O     O_3   0.007257 0.721367 0.922897 -0.608228
C58   C     C_3   0.978028 0.738350 0.831484 0.062843
H49   H     H_    0.932098 0.797693 0.816074 0.152360
H50   H     H_    0.911310 0.657976 0.804901 0.125835
C59   C     C_3   0.094868 0.798145 0.786723 -0.358238
H51   H     H_    0.154383 0.881757 0.811274 0.223057
H52   H     H_    0.146263 0.743504 0.802737 0.227037
C60   C     C_3   0.066089 0.822002 0.687874 -0.874151
H53   H     H_    0.005326 0.740019 0.661610 0.262227
H54   H     H_    0.152158 0.862720 0.657196 0.254074
H55   H     H_    0.020748 0.882016 0.670531 0.287250
O15   O     O_3   0.207053 0.496140 0.970798 -0.587075
C61   C     C_3   0.289901 0.501371 0.047782 0.118477
H56   H     H_    0.316688 0.428857 0.055439 0.158352
H57   H     H_    0.251270 0.490585 0.108795 0.130765
C62   C     C_3   0.404052 0.615911 0.038723 -0.369406
H58   H     H_    0.447290 0.621634 0.981695 0.222441
H59   H     H_    0.377957 0.689550 0.027169 0.218395
C63   C     C_3   0.496256 0.625780 0.120406 -0.930077
H60   H     H_    0.454748 0.619878 0.178391 0.261110
H61   H     H_    0.576713 0.710705 0.112329 0.256840
H62   H     H_    0.527450 0.555678 0.131169 0.262819
H63   H     H_    0.091025 0.896161 0.401572 0.155528
O16   O     O_3   0.448719 0.251798 0.327014 -0.610296
C64   C     C_3   0.418322 0.229917 0.239691 0.022528
H64   H     H_    0.348293 0.262645 0.208404 0.162688
H65   H     H_    0.376435 0.135804 0.233769 0.129917
C65   C     C_3   0.530381 0.295108 0.189939 -0.321825
H66   H     H_    0.571385 0.388539 0.196310 0.233764
H67   H     H_    0.599947 0.260683 0.217875 0.203699
C66   C     C_3   0.495655 0.281732 0.093682 -0.932708
H68   H     H_    0.462926 0.189667 0.085752 0.252714
H69   H     H_    0.576623 0.335023 0.058495 0.279458
H70   H     H_    0.423170 0.311696 0.064263 0.250997

loop_
_geom_bond_atom_site_label_1
_geom_bond_atom_site_label_2
_ccdc_geom_bond_type
C61   C62   S    
O11   C49   S    
C3    C42   S    
C16   C24   A    
C2    C7    S    
C64   H64   S    
C4    C8    S    
C26   N2    A    
C61   H56   S    
C46   H18   S    
C10   C22   A    
C39   O9    S    
C26   C27   A    
C30   C35   A    
C28   C29   A    
C64   H65   S    
C1    O1    A    
C38   C42   S    
C11   O10   S    
C63   H61   S    
C38   C39   S    
C3    H8    S    
C9    C22   A    
C57   H48   S    
C54   H37   S    
Cu2   O4    S    
C15   C16   A    
C11   C24   A    
C34   O7    A    
C56   H44   S    
C61   H57   S    
C18   C19   A    
O13   C55   S    
Cu1   O3    S    
C25   C37   A    
C55   H42   S    
C12   O4    A    
C2    C39   S    
C48   H22   S    
C44   H12   S    
C43   H11   S    
C65   C66   S    
C7    C40   T    
C49   C50   S    
C66   H69   S    
C31   C36   A    
C55   C56   S    
C12   O3    A    
C25   C32   A    
C46   H19   S    
Cu2   O8    S    
C13   C14   A    
C34   C41   S    
C47   C48   S    
C37   H32   S    
C27   H7    S    
C14   H1    S    
C57   H47   S    
C10   C21   A    
C23   O5    A    
Cu2   O6    S    
C19   O16   S    
O14   C58   S    
C64   C65   S    
C8    C41   T    
C4    C6    S    
C63   H62   S    
C50   H27   S    
C45   H15   S    
C38   O12   S    
C51   H31   S    
C28   H40   S    
C52   C53   S    
C17   C21   A    
C12   C40   S    
C60   H54   S    
Cu1   Cu2   S    
C59   H52   S    
C29   C30   A    
C1    O2    A    
C50   H28   S    
Cu1   O1    S    
Cu1   N1    S    
C31   C32   A    
C22   H63   S    
Cu2   O2    S    
C16   C20   A    
C43   C44   S    
C13   O11   S    
C52   H34   S    
C17   C18   A    
C53   H36   S    
O10   C46   S    
C66   H70   S    
C51   H30   S    
C25   H4    S    
C62   H59   S    
Cu1   O5    S    
C58   C59   S    
C37   N1    A    
C47   H21   S    
C48   H23   S    
C4    C38   S    
C33   H3    S    
C65   H67   S    
C2    C5    S    
C9    H9    S    
C59   H51   S    
C53   H35   S    
C35   H41   S    
C58   H50   S    
O16   C64   S    
C46   C47   S    
C15   C17   A    
C21   H17   S    
C6    C39   S    
C6    O13   S    
C49   H26   S    
C47   H20   S    
C3    C5    S    
C62   C63   S    
C45   H16   S    
C57   H46   S    
C56   C57   S    
O15   C61   S    
C10   C23   S    
C30   N2    A    
C5    O14   S    
C65   H66   S    
O12   C52   S    
C42   O15   S    
O9    C43   S    
C19   C20   A    
C26   H6    S    
C60   H53   S    
C59   C60   S    
C45   H14   S    
C29   C31   A    
C63   H60   S    
C32   C33   A    
C50   C51   S    
C11   C13   A    
Cu2   N2    S    
C5    C6    S    
C54   H38   S    
C2    C42   S    
C44   C45   S    
C34   O8    A    
C33   C35   A    
C56   H45   S    
C53   C54   S    
C51   H29   S    
C36   N1    A    
C62   H58   S    
C60   H55   S    
C9    C18   A    
C23   O6    A    
C48   H24   S    
C49   H25   S    
C1    C24   S    
C44   H13   S    
C43   H10   S    
C27   C28   A    
C14   C15   A    
C52   H33   S    
C66   H68   S    
C20   H2    S    
C36   H5    S    
C3    C4    S    
Cu1   O7    S    
C58   H49   S    
C55   H43   S    
C54   H39   S    
