data_mof_unit_31885.cif
_audit_creation_date              2013-03-05T16:12:26-0500
_audit_creation_method            fapswitch 2.2
_symmetry_space_group_name_H-M    P1
_symmetry_Int_Tables_number       1
_space_group_crystal_system       triclinic
_cell_length_a                    10.715365
_cell_length_b                    9.930821
_cell_length_c                    23.316528
_cell_angle_alpha                 90.129171
_cell_angle_beta                  91.90791
_cell_angle_gamma                 89.975598
_cell_volume                      2479.78510448

loop_
_atom_site_label
_atom_site_type_symbol
_atom_site_description
_atom_site_fract_x
_atom_site_fract_y
_atom_site_fract_z
_atom_type_partial_charge
O1    O     O_R   0.316770 0.614620 0.500000 -0.632240
O2    O     O_R   0.683230 0.385380 0.500000 -0.628731
O3    O     O_R   0.683230 0.614620 0.500000 -0.661266
O4    O     O_R   0.316770 0.385380 0.500000 -0.652843
C1    C     C_R   0.260157 0.500054 0.500199 0.900660
C2    C     C_R   0.739901 0.500060 0.500895 0.916095
O5    O     O_R   0.499970 0.614690 0.416160 -0.626718
O6    O     O_R   0.500030 0.385310 0.583840 -0.656266
O7    O     O_R   0.500030 0.614690 0.583840 -0.587353
O8    O     O_R   0.499970 0.385310 0.416160 -0.641739
C3    C     C_R   0.503640 0.499691 0.389594 0.924731
C4    C     C_R   0.497998 0.500151 0.610305 0.935675
Zn1   Zn    Zn3+2 0.500000 0.653120 0.500000 0.972137
Zn2   Zn    Zn3+2 0.500000 0.346880 0.500000 0.947537
C5    C     C_R   0.607168 0.582964 0.880257 0.573617
C6    C     C_R   0.489781 0.387252 0.118408 0.513732
N1    N     N_R   0.557857 0.474687 0.851890 -0.334333
N2    N     N_R   0.543005 0.492038 0.147663 -0.362613
C7    C     C_R   0.524367 0.360059 0.879251 0.570954
C8    C     C_R   0.611054 0.588255 0.121467 0.500414
C9    C     C_R   0.527519 0.355134 0.939785 -0.054597
C10   C     C_R   0.620514 0.587519 0.061146 -0.070789
C11   C     C_R   0.576397 0.468851 0.970239 -0.013543
C12   C     C_R   0.571586 0.474131 0.030525 -0.017124
C13   C     C_R   0.627003 0.579018 0.940202 -0.055403
C14   C     C_R   0.514698 0.367331 0.060223 -0.047266
C15   C     C_R   0.485444 0.241193 0.970644 -0.096651
C16   C     C_R   0.681254 0.691969 0.031072 -0.089861
C17   C     C_R   0.482352 0.246195 0.030992 -0.063368
C18   C     C_R   0.688881 0.684637 0.970869 -0.059593
O9    O     O_2   0.631236 0.695461 0.850227 -0.502866
O10   O     O_2   0.411909 0.304572 0.145929 -0.508045
O11   O     O_2   0.485290 0.253989 0.847240 -0.553834
O12   O     O_2   0.669214 0.682496 0.154376 -0.533311
C19   C     C_R   0.621327 0.417527 0.242302 -0.089906
C20   C     C_R   0.426145 0.537412 0.767244 -0.093556
C21   C     C_R   0.611864 0.417684 0.302516 -0.069896
C22   C     C_R   0.409464 0.544653 0.706883 -0.111432
C23   C     C_R   0.519398 0.498518 0.327773 -0.126291
C24   C     C_R   0.507451 0.499765 0.672368 -0.064565
C25   C     C_R   0.438693 0.577578 0.293808 -0.196494
C26   C     C_R   0.617586 0.447354 0.696805 -0.227338
H1    H     H_    0.368291 0.638447 0.313880 0.175122
H2    H     H_    0.691174 0.413489 0.669342 0.136367
C27   C     C_R   0.444868 0.575013 0.234305 0.233120
C28   C     C_R   0.634105 0.437935 0.755859 0.215700
C29   C     C_R   0.535610 0.494403 0.208734 0.231876
C30   C     C_R   0.538520 0.482399 0.791067 0.300574
C31   C     C_R   0.063972 0.377515 0.501070 -0.158218
C32   C     C_R   0.936260 0.623067 0.502763 -0.171909
C33   C     C_R   0.936279 0.377515 0.501082 -0.099632
C34   C     C_R   0.064048 0.623076 0.502366 -0.125577
H3    H     H_    0.112221 0.281741 0.500710 0.199622
H4    H     H_    0.887869 0.718853 0.503509 0.171638
H5    H     H_    0.887991 0.281767 0.500120 0.200959
H6    H     H_    0.112473 0.718860 0.502806 0.178717
C35   C     C_R   0.872587 0.500232 0.501738 -0.022559
C36   C     C_R   0.127632 0.500238 0.501211 -0.038504
C37   C     C_R   0.582198 0.071835 0.535003 0.028308
C38   C     C_R   0.425391 0.927903 0.461660 0.021514
C39   C     C_R   0.417815 0.071634 0.465005 0.007161
C40   C     C_R   0.574479 0.928154 0.538382 0.004753
N3    N     N_R   0.500000 0.857200 0.500000 -0.186644
N4    N     N_R   0.500000 0.142800 0.500000 -0.187580
C41   C     C_2   0.444015 0.115586 0.940927 0.464634
H7    H     H_    0.362124 0.116548 0.912280 0.134334
O13   O     O_2   0.501348 0.010489 0.948536 -0.586221
C42   C     C_2   0.734300 0.811759 0.061513 0.492357
H8    H     H_    0.675032 0.874065 0.087461 0.153719
O14   O     O_2   0.844715 0.840167 0.058342 -0.534670
C43   C     C_2   0.450697 0.121211 0.062671 0.562850
H9    H     H_    0.373216 0.058466 0.047818 0.065657
O15   O     O_2   0.514968 0.084260 0.103928 -0.549303
C44   C     C_2   0.765452 0.786532 0.941193 0.639294
H10   H     H_    0.755640 0.892804 0.951025 0.089319
O16   O     O_2   0.844209 0.751420 0.907549 -0.516259
C45   C     C_2   0.722258 0.342546 0.213110 0.459029
H11   H     H_    0.708705 0.308995 0.169082 0.098279
O17   O     O_2   0.823737 0.322062 0.236845 -0.531086
C46   C     C_2   0.328685 0.592941 0.805015 0.448951
H12   H     H_    0.267259 0.672782 0.789607 0.078412
O18   O     O_2   0.314628 0.550085 0.853386 -0.546751
C47   C     C_2   0.697554 0.332641 0.338280 0.544899
H13   H     H_    0.715727 0.229356 0.325751 0.097335
O19   O     O_2   0.752357 0.378908 0.380533 -0.564913
C48   C     C_2   0.286685 0.588655 0.681045 0.387412
H14   H     H_    0.201805 0.574349 0.704357 0.065945
O20   O     O_2   0.278216 0.642462 0.634097 -0.539463
C49   C     C_3   0.354325 0.657381 0.198179 -0.752867
H15   H     H_    0.405937 0.732152 0.172781 0.257272
H16   H     H_    0.300009 0.590345 0.168484 0.249313
H17   H     H_    0.287467 0.712898 0.224927 0.253189
C50   C     C_3   0.754328 0.381808 0.781275 -0.800418
H18   H     H_    0.800972 0.458624 0.809215 0.255363
H19   H     H_    0.734702 0.291025 0.807140 0.262112
H20   H     H_    0.820058 0.352536 0.747564 0.241991
C51   C     C_2   0.683443 0.143700 0.567362 0.484402
H21   H     H_    0.668907 0.241160 0.585974 0.103028
O21   O     O_2   0.787506 0.094176 0.572783 -0.589293
C52   C     C_2   0.356922 0.855299 0.414847 0.519787
H22   H     H_    0.309925 0.761659 0.422421 0.086557
O22   O     O_2   0.353850 0.899967 0.366060 -0.562336
C53   C     C_2   0.316775 0.143437 0.432602 0.499756
H23   H     H_    0.331895 0.240090 0.413483 0.112430
O23   O     O_2   0.212310 0.094749 0.427659 -0.571731
C54   C     C_2   0.642446 0.855814 0.585298 0.554315
H24   H     H_    0.689842 0.762278 0.577723 0.078692
O24   O     O_2   0.644546 0.900513 0.634159 -0.535848

loop_
_geom_bond_atom_site_label_1
_geom_bond_atom_site_label_2
_geom_bond_distance
_ccdc_geom_bond_type
C50   H18   1.110201 S    
C15   C17   1.409354 A    
N1    C30   1.428612 S    
O3    C2    1.289251 A    
C19   C29   1.411831 A    
N2    C29   1.428954 S    
C51   H21   1.073228 S    
C23   C25   1.395741 A    
C45   H11   1.083757 S    
O5    C3    1.299180 A    
C37   N4    1.375764 A    
C32   H4    1.083567 S    
C44   O16   1.221370 D    
C1    C36   1.421029 S    
C22   C48   1.494210 S    
C38   N3    1.373344 A    
O1    C1    1.289676 A    
C39   C53   1.482825 S    
C12   C14   1.417026 A    
C18   C44   1.489166 S    
C48   O20   1.219840 D    
C5    C13   1.407385 A    
C54   H24   1.075543 S    
C26   C28   1.385764 A    
C27   C29   1.406250 A    
O7    Zn1   1.992597 S    
C42   H8    1.084341 S    
C31   C33   1.368281 A    
C32   C34   1.369638 A    
C11   C12   1.409188 A    
C33   C35   1.396815 A    
C49   H16   1.110283 S    
C27   C49   1.505974 S    
N2    C8    1.360384 A    
O3    Zn1   2.000096 S    
C8    O12   1.348514 S    
C24   C26   1.394394 A    
C9    C15   1.423734 A    
C50   H19   1.109865 S    
C10   C16   1.423203 A    
C25   H1    1.084141 S    
C2    C35   1.421265 S    
O2    C2    1.290676 A    
C26   H2    1.085056 S    
C51   O21   1.221344 D    
C45   O17   1.220788 D    
C6    C14   1.404916 A    
C28   C30   1.404256 A    
C44   H10   1.085287 S    
C46   O18   1.220385 D    
C20   C46   1.492952 S    
C43   O15   1.221316 D    
C48   H14   1.084551 S    
O4    C1    1.290148 A    
C41   O13   1.221165 D    
C19   C45   1.494488 S    
C38   C52   1.480916 S    
C31   C36   1.396860 A    
C38   C39   1.431738 A    
C4    C24   1.447275 S    
C39   N4    1.375095 A    
C40   N3    1.372738 A    
C15   C41   1.486353 S    
C47   H13   1.085167 S    
Zn1   N3    2.026682 S    
O6    C4    1.295993 A    
Zn2   N4    2.026682 S    
C52   O22   1.221312 D    
C53   O23   1.221357 D    
C49   H17   1.110867 S    
C3    C23   1.456893 S    
C34   C36   1.397644 A    
C6    N2    1.358249 A    
C47   O19   1.219114 D    
C8    C10   1.413475 A    
C50   H20   1.110881 S    
C9    C11   1.423362 A    
C7    O11   1.348349 S    
C37   C51   1.482995 S    
C10   C12   1.422864 A    
O1    Zn1   2.000417 S    
C13   C18   1.420115 A    
C5    N1    1.359016 A    
C37   C40   1.431799 A    
O6    Zn2   1.990908 S    
C19   C21   1.411008 A    
C32   C35   1.397718 A    
C46   H12   1.084460 S    
C16   C42   1.487268 S    
C5    O9    1.349330 S    
C40   C54   1.480947 S    
C6    O10   1.349378 S    
C16   C18   1.410521 A    
C43   H9    1.085276 S    
C21   C23   1.417374 A    
C22   C24   1.415291 A    
C28   C50   1.507138 S    
C54   O24   1.221272 D    
C31   H3    1.082498 S    
C20   C22   1.414782 A    
C52   H22   1.075457 S    
N1    C7    1.360328 A    
C20   C30   1.418884 A    
C33   H5    1.082546 S    
C11   C13   1.418003 A    
O4    Zn2   2.000097 S    
O2    Zn2   2.000416 S    
O7    C4    1.295827 A    
O8    C3    1.296277 A    
O5    Zn1   1.990910 S    
C14   C17   1.418716 A    
C42   O14   1.221085 D    
C41   H7    1.084993 S    
C53   H23   1.073847 S    
C25   C27   1.391345 A    
C21   C47   1.484328 S    
C17   C43   1.490771 S    
C49   H15   1.109968 S    
C34   H6    1.083600 S    
O8    Zn2   1.992599 S    
C7    C9    1.411680 A    
