data_mof_unit_67928.cif
_audit_creation_date              2013-03-05T16:14:17-0500
_audit_creation_method            fapswitch 2.2
_symmetry_space_group_name_H-M    P1
_symmetry_Int_Tables_number       1
_space_group_crystal_system       triclinic
_cell_length_a                    11.423502
_cell_length_b                    10.878473
_cell_length_c                    10.370514
_cell_angle_alpha                 91.37109
_cell_angle_beta                  90.850957
_cell_angle_gamma                 91.072706
_cell_volume                      1288.00076624

loop_
_atom_site_label
_atom_site_type_symbol
_atom_site_description
_atom_site_fract_x
_atom_site_fract_y
_atom_site_fract_z
_atom_type_partial_charge
O1    O     O_R   0.499990 0.316750 0.614620 -0.567682
O2    O     O_R   0.500010 0.683250 0.385380 -0.567684
O3    O     O_R   0.499990 0.316780 0.385290 -0.590739
O4    O     O_R   0.500010 0.683220 0.614710 -0.590751
C1    C     C_R   0.510300 0.261340 0.498333 0.941507
C2    C     C_R   0.489701 0.738658 0.501668 0.941520
O5    O     O_R   0.316760 0.500000 0.614660 -0.575670
O6    O     O_R   0.683240 0.500000 0.385340 -0.575663
O7    O     O_R   0.316760 0.500020 0.385330 -0.614321
O8    O     O_R   0.683240 0.499980 0.614670 -0.614349
C3    C     C_R   0.260765 0.500631 0.499043 0.895902
C4    C     C_R   0.739234 0.499373 0.500956 0.895888
Zn1   Zn    Zn3+2 0.500000 0.499980 0.653120 1.069736
Zn2   Zn    Zn3+2 0.500000 0.500020 0.346880 1.069753
C5    C     C_R   0.164256 0.736692 0.121152 0.205410
C6    C     C_R   0.835690 0.263340 0.878812 0.205426
C7    C     C_R   0.134075 0.719542 0.250476 0.362445
C8    C     C_R   0.865894 0.280471 0.749501 0.362398
C9    C     C_R   0.106050 0.600482 0.291494 -0.122363
C10   C     C_R   0.893935 0.399527 0.708490 -0.122388
C11   C     C_R   0.108895 0.498277 0.204918 0.141549
C12   C     C_R   0.891053 0.501744 0.795050 0.141573
C13   C     C_R   0.146341 0.515482 0.079181 0.092884
C14   C     C_R   0.853587 0.484547 0.920776 0.092880
C15   C     C_R   0.179767 0.633140 0.039485 0.032941
C16   C     C_R   0.820162 0.366895 0.960469 0.032925
C17   C     C_R   0.936609 0.585425 0.430408 0.178341
C18   C     C_R   0.063387 0.414586 0.569600 0.178357
C19   C     C_R   0.872976 0.498969 0.501089 -0.169494
C20   C     C_R   0.127022 0.501039 0.498910 -0.169498
C21   C     C_R   0.939429 0.421114 0.580316 0.059055
C22   C     C_R   0.060568 0.578894 0.419683 0.059087
C23   C     C_R   0.498749 0.057048 0.381894 0.148522
C24   C     C_R   0.501235 0.942941 0.618116 0.148570
C25   C     C_R   0.462388 0.935691 0.389726 0.373736
C26   C     C_R   0.537603 0.064299 0.610286 0.373767
C27   C     C_R   0.476469 0.873308 0.505069 -0.283684
C28   C     C_R   0.523529 0.126686 0.494938 -0.283671
C29   C     C_R   0.552742 0.592234 0.071232 0.206670
C30   C     C_R   0.447244 0.407778 0.928769 0.206674
C31   C     C_R   0.556156 0.589696 0.931145 0.147897
C32   C     C_R   0.443827 0.410318 0.068855 0.147908
N1    N     N_R   0.499970 0.499970 0.857200 -0.169187
N2    N     N_R   0.500030 0.500030 0.142800 -0.169175
I1    I     I_    0.247705 0.650760 0.854476 -0.178351
I2    I     I_    0.752249 0.349272 0.145473 -0.178355
I3    I     I_    0.658157 0.722363 0.833503 -0.095969
I4    I     I_    0.341770 0.277716 0.166504 -0.096001
I5    I     I_    0.159140 0.917185 0.043473 0.045435
I6    I     I_    0.840860 0.082903 0.956523 0.045392
Cl1   Cl    Cl    0.130187 0.846345 0.360685 -0.442340
Cl2   Cl    Cl    0.869803 0.153640 0.639311 -0.442346
I7    I     I_    0.045098 0.318045 0.259085 -0.142171
I8    I     I_    0.954821 0.681981 0.740884 -0.142170
I9    I     I_    0.118719 0.370866 0.941684 -0.242231
I10   I     I_    0.881205 0.629159 0.058279 -0.242228
I11   I     I_    0.853485 0.755304 0.396240 -0.081149
I12   I     I_    0.146487 0.244687 0.603724 -0.081107
I13   I     I_    0.585980 0.090496 0.208913 -0.045304
I14   I     I_    0.413891 0.909494 0.791074 -0.045291
Cl3   Cl    Cl    0.384410 0.871199 0.257563 -0.511219
Cl4   Cl    Cl    0.615504 0.128774 0.742471 -0.511247
I15   I     I_    0.624412 0.752076 0.160650 -0.070181
I16   I     I_    0.375537 0.247974 0.839345 -0.070170

loop_
_geom_bond_atom_site_label_1
_geom_bond_atom_site_label_2
_geom_bond_distance
_ccdc_geom_bond_type
C11   I7    2.168453 S    
C24   I14   2.101414 S    
O7    Zn2   2.136693 S    
C13   I9    2.113871 S    
C29   N2    1.394933 A    
C18   I12   2.128237 S    
C4    C19   1.527868 S    
C14   I10   2.113869 S    
C24   C27   1.402813 A    
C29   I15   2.097787 S    
C10   C12   1.413445 A    
C8    C10   1.405620 A    
C23   C28   1.402848 A    
C30   I16   2.097640 S    
Zn1   N1    2.116422 S    
O6    C4    1.350768 A    
C30   N1    1.394904 A    
C7    Cl1   1.771840 S    
C18   C20   1.404841 A    
C31   I3    2.123190 S    
C2    C27   1.475016 S    
C8    Cl2   1.771964 S    
C19   C21   1.416853 A    
C32   I4    2.123101 S    
C1    C28   1.475054 S    
C20   C22   1.416870 A    
C31   N1    1.370721 A    
O7    C3    1.349839 A    
O2    C2    1.342994 A    
O3    Zn2   2.042103 S    
C32   N2    1.370695 A    
C25   Cl3   1.748877 S    
O1    C1    1.342989 A    
C9    C22   1.457130 S    
O8    C4    1.349841 A    
C6    C8    1.405499 A    
C23   C25   1.381161 A    
C6    I6    2.141139 S    
O5    C3    1.350775 A    
C24   C26   1.381197 A    
C12   I8    2.168392 S    
C5    I5    2.141546 S    
C11   C13   1.394115 A    
C6    C16   1.408504 A    
O2    Zn2   2.023465 S    
C12   C14   1.394072 A    
C5    C15   1.408524 A    
O4    C2    1.335759 A    
O1    Zn1   2.023466 S    
C16   I2    2.091855 S    
C26   C28   1.398079 A    
C15   I1    2.092008 S    
O5    Zn1   2.125082 S    
C13   C15   1.401822 A    
C17   C22   1.425014 A    
C17   C19   1.404800 A    
C29   C31   1.453484 A    
Zn2   N2    2.116422 S    
C17   I11   2.128261 S    
O4    Zn1   2.042104 S    
C5    C7    1.405588 A    
C7    C9    1.405651 A    
O6    Zn2   2.125079 S    
O3    C1    1.335784 A    
C25   C27   1.398022 A    
C23   I13   2.100998 S    
C9    C11   1.413430 A    
C10   C21   1.457049 S    
C18   C21   1.425000 A    
C3    C20   1.527885 S    
C14   C16   1.401756 A    
C30   C32   1.453480 A    
C26   Cl4   1.748546 S    
O8    Zn1   2.136691 S    
