data_mof_unit_8013.cif
_audit_creation_date              2012-12-11T16:09:02-0500
_audit_creation_method            fapswitch 2.2
_symmetry_space_group_name_H-M    P1
_symmetry_Int_Tables_number       1
_space_group_crystal_system       triclinic
_cell_length_a                    12.962689
_cell_length_b                    13.195325
_cell_length_c                    27.696149
_cell_angle_alpha                 94.430179
_cell_angle_beta                  90.374976
_cell_angle_gamma                 119.173414
_cell_volume                      4118.72360715

loop_
_atom_site_label
_atom_site_type_symbol
_atom_type_description
_atom_site_fract_x
_atom_site_fract_y
_atom_site_fract_z
_atom_type_partial_charge
C1    C     C_R   0.628714 0.895644 0.427494 0.530729
C2    C     C_R   0.080819 0.708931 0.313888 0.033891
C3    C     C_3   0.602259 0.482378 0.590760 0.011749
C4    C     C_3   0.524277 0.514299 0.561040 -0.247477
C5    C     C_3   0.596252 0.603286 0.525663 -0.471824
C6    C     C_3   0.114181 0.563601 0.694586 0.018585
C7    C     C_3   0.231544 0.610811 0.669116 -0.272784
C8    C     C_3   0.287948 0.533900 0.674077 -0.466783
C9    C     C_3   0.491917 0.872321 0.811914 0.011106
C10   C     C_3   0.582261 0.965694 0.849386 -0.272517
C11   C     C_3   0.560481 0.069316 0.857447 -0.459121
C12   C     C_3   0.999449 0.575494 0.405146 -0.008832
C13   C     C_R   0.024822 0.672447 0.213376 0.012010
C14   C     C_3   0.994381 0.625465 0.456337 -0.253591
C15   C     C_3   0.874165 0.551787 0.477288 -0.483107
C16   C     C_R   0.601399 0.223282 0.440894 0.539792
C17   C     C_R   0.007950 0.579458 0.239934 -0.125779
C18   C     C_R   0.035973 0.597592 0.289355 -0.089839
C19   C     C_R   0.008425 0.657858 0.162299 0.152871
C20   C     C_R   0.016732 0.750268 0.137209 0.038589
C21   C     C_R   0.172384 0.933397 0.362438 0.194850
C22   C     C_R   0.134090 0.914744 0.313223 0.005747
C23   C     C_R   0.091140 0.802307 0.288592 -0.067220
C24   C     C_R   0.713078 0.452486 0.239843 -0.030375
C25   C     C_R   0.143128 0.007191 0.287539 0.289685
C26   C     C_R   0.114831 0.988270 0.237562 0.236700
C27   C     C_R   0.067476 0.875060 0.213259 -0.047106
C28   C     C_R   0.263989 0.874393 0.427031 0.563013
C29   C     C_R   0.060490 0.783199 0.238431 -0.052311
C30   C     C_R   0.032525 0.853278 0.163555 0.179542
C31   C     C_R   0.181166 0.844678 0.384600 -0.021771
C32   C     C_R   0.731894 0.958972 0.353380 -0.169571
C33   C     C_R   0.727067 0.950695 0.303144 0.000019
C34   C     C_R   0.725090 0.928743 0.201629 -0.053422
C35   C     C_R   0.703880 0.438903 0.289567 0.253042
C36   C     C_R   0.785454 0.038899 0.227652 -0.064210
C37   C     C_R   0.787107 0.051079 0.277767 0.215571
C38   C     C_R   0.732466 0.915982 0.151124 0.173420
C39   C     C_R   0.673998 0.804164 0.126572 0.008262
C40   C     C_R   0.627316 0.897632 0.564628 0.532849
C41   C     C_R   0.586651 0.753464 0.353918 0.246415
C42   C     C_R   0.589203 0.741329 0.303092 0.048011
C43   C     C_R   0.657792 0.840158 0.277626 -0.022870
C44   C     C_R   0.521611 0.632306 0.277277 -0.081642
C45   C     C_R   0.519687 0.619192 0.226561 0.240971
C46   C     C_R   0.670297 0.327693 0.305271 0.030574
C47   C     C_R   0.587945 0.717895 0.200893 0.045298
C48   C     C_R   0.657371 0.828691 0.226692 -0.081616
C49   C     C_R   0.589626 0.708541 0.149986 0.238730
C50   C     C_R   0.653856 0.865180 0.378648 -0.012842
C51   C     C_R   0.736474 0.284254 0.650814 -0.173168
C52   C     C_R   0.604796 0.229129 0.577738 0.545178
C53   C     C_R   0.753345 0.311911 0.700961 0.007732
C54   C     C_R   0.768691 0.353019 0.802465 -0.038177
C55   C     C_R   0.838244 0.311644 0.779522 -0.073602
C56   C     C_R   0.828767 0.287076 0.729328 0.232483
C57   C     C_R   0.690213 0.358282 0.206062 -0.027099
C58   C     C_R   0.772273 0.368595 0.853043 -0.147499
C59   C     C_R   0.698544 0.404977 0.875784 -0.017756
C60   C     C_R   0.601928 0.362984 0.645768 0.255154
C61   C     C_R   0.615383 0.389492 0.696125 0.002260
C62   C     C_R   0.688508 0.361042 0.723836 -0.025793
C63   C     C_R   0.551809 0.438120 0.719398 -0.107025
C64   C     C_R   0.271411 0.878965 0.563380 0.527207
C65   C     C_R   0.553133 0.451489 0.770076 0.218966
C66   C     C_R   0.622812 0.419581 0.797525 0.062722
C67   C     C_R   0.693870 0.378522 0.774563 0.004589
C68   C     C_1   0.697909 0.374720 0.155296 -0.030182
C69   C     C_R   0.623662 0.429216 0.847858 -0.084981
C70   C     C_R   0.652107 0.298170 0.624448 -0.010684
C71   C     C_1   0.223599 0.862052 0.610394 -0.000140
C72   C     C_R   0.114588 0.733679 0.720940 0.263664
C73   C     C_R   0.100615 0.727575 0.771058 -0.143147
C74   C     C_R   0.219285 0.938425 0.785480 0.243762
C75   C     C_R   0.230135 0.944847 0.735066 -0.161077
C76   C     C_1   0.634634 0.274217 0.395844 -0.019834
C77   C     C_R   0.176700 0.843383 0.702974 0.006524
C78   C     C_R   0.153450 0.828888 0.803169 0.047134
C79   C     C_1   0.654365 0.304239 0.355415 -0.074050
C80   C     C_1   0.132576 0.818057 0.853976 0.031705
C81   C     C_1   0.196930 0.852259 0.652031 -0.002592
C82   C     C_1   0.105277 0.800527 0.895226 0.011918
C83   C     C_1   0.646360 0.856339 0.608295 -0.017017
C84   C     C_R   0.759698 0.784216 0.711666 0.242085
C85   C     C_R   0.768722 0.765971 0.761126 0.206607
C86   C     C_R   0.591783 0.782161 0.776927 0.234832
C87   C     C_R   0.578059 0.789676 0.727260 -0.183216
C88   C     C_R   0.646154 0.233730 0.271034 -0.116149
C89   C     C_R   0.663529 0.795705 0.695363 -0.001334
C90   C     C_1   0.705098 0.397579 0.113804 0.044967
C91   C     C_R   0.687966 0.770982 0.793686 0.080932
C92   C     C_1   0.705066 0.765282 0.844733 0.080979
C93   C     C_1   0.656289 0.825567 0.647039 0.003780
C94   C     C_1   0.723114 0.761489 0.887118 0.014613
C95   C     C_R   0.002891 0.736592 0.083491 0.617347
C96   C     C_R   0.717023 0.440996 0.067266 0.554446
C97   C     C_R   0.718796 0.782830 0.080485 0.581578
C98   C     C_R   0.057653 0.767201 0.941502 0.539433
C99   C     C_R   0.712315 0.439742 0.927740 0.533352
C100  C     C_R   0.656703 0.248968 0.221707 -0.131883
C101  C     C_R   0.121307 0.729402 0.362677 0.228903
C102  C     C_R   0.748173 0.754671 0.936881 0.547998
C103  C     C_3   0.253074 0.128353 0.194350 0.037892
C104  C     C_3   0.266789 0.212608 0.156853 -0.254547
C105  C     C_3   0.389682 0.266761 0.136652 -0.443673
C106  C     C_3   0.115903 0.157702 0.318837 0.059077
C107  C     C_3   0.180367 0.279717 0.345755 -0.242689
C108  C     C_3   0.097606 0.329754 0.355590 -0.465515
C109  C     C_3   0.429047 0.617781 0.095673 0.045248
C110  C     C_3   0.342208 0.637342 0.127258 -0.293898
C111  C     C_3   0.259774 0.660231 0.096250 -0.451449
Cr1   Cr    Cr6+3 0.416430 0.829200 0.492370 1.039643
Cr2   Cr    Cr6+3 0.674630 0.087020 0.504170 1.008564
Cr3   Cr    Cr6+3 0.408920 0.083740 0.503490 1.053479
Cr4   Cr    Cr6+3 0.914010 0.832750 0.013970 1.077803
Cr5   Cr    Cr6+3 0.922310 0.578600 0.003000 1.035179
Cr6   Cr    Cr6+3 0.656280 0.574630 0.003870 1.032492
H1    H     H_    0.617954 0.147775 0.282531 0.133693
H2    H     H_    0.497219 0.461658 0.698339 0.144942
H3    H     H_    0.737985 0.537106 0.227523 0.153355
H4    H     H_    0.047050 0.643623 0.784909 0.128448
H5    H     H_    0.280990 0.028775 0.720840 0.116622
H6    H     H_    0.502016 0.793946 0.713530 0.113009
H7    H     H_    0.973211 0.491599 0.223088 0.130770
H8    H     H_    0.025545 0.524100 0.307893 0.145566
H9    H     H_    0.267781 0.058114 0.176342 0.139560
H10   H     H_    0.321061 0.176082 0.224535 0.162192
H11   H     H_    0.199467 0.165097 0.126528 0.204431
H12   H     H_    0.790420 0.041965 0.373187 0.150905
H13   H     H_    0.251479 0.282901 0.173863 0.185166
H14   H     H_    0.458035 0.314488 0.166469 0.187443
H15   H     H_    0.397658 0.329127 0.110259 0.202384
H16   H     H_    0.405172 0.198163 0.117959 0.139743
H17   H     H_    0.046530 0.097644 0.342114 0.146968
H18   H     H_    0.072961 0.161824 0.284681 0.188280
H19   H     H_    0.219798 0.275676 0.380831 0.200230
H20   H     H_    0.253228 0.339053 0.323746 0.178161
H21   H     H_    0.063010 0.341375 0.320881 0.192335
H22   H     H_    0.146980 0.416272 0.376655 0.178886
H23   H     H_    0.830677 0.118062 0.209708 0.151755
H24   H     H_    0.022726 0.271198 0.376893 0.160660
H25   H     H_    0.169337 0.022984 0.419969 0.315371
H26   H     H_    0.873119 0.063188 0.142622 0.325755
H27   H     H_    0.800736 0.168436 0.327907 0.318567
H28   H     H_    0.377672 0.536580 0.071299 0.148232
H29   H     H_    0.472972 0.689537 0.071671 0.122525
H30   H     H_    0.289482 0.559710 0.147317 0.189240
H31   H     H_    0.390965 0.714284 0.154068 0.156745
H32   H     H_    0.310736 0.730523 0.072444 0.156079
H33   H     H_    0.210220 0.689771 0.120419 0.184116
H34   H     H_    0.469215 0.556282 0.296499 0.164515
H35   H     H_    0.196864 0.579562 0.073660 0.180212
H36   H     H_    0.412523 0.451583 0.225367 0.303674
H37   H     H_    0.548155 0.671234 0.412163 0.324042
H38   H     H_    0.842448 0.174303 0.684995 0.325782
H39   H     H_    0.444090 0.513479 0.768881 0.330841
H40   H     H_    0.653432 0.456549 0.565317 0.131409
H41   H     H_    0.665028 0.560753 0.614916 0.162998
H42   H     H_    0.453854 0.434621 0.540182 0.189400
H43   H     H_    0.481498 0.551149 0.585901 0.159046
H44   H     H_    0.670452 0.682063 0.545304 0.159258
H45   H     H_    0.637580 0.175366 0.195819 0.131040
H46   H     H_    0.538527 0.629430 0.506583 0.156934
H47   H     H_    0.632523 0.564788 0.498251 0.144874
H48   H     H_    0.052529 0.474902 0.677308 0.191040
H49   H     H_    0.127255 0.552886 0.733265 0.135487
H50   H     H_    0.215635 0.615124 0.630032 0.183331
H51   H     H_    0.294312 0.700168 0.685349 0.154390
H52   H     H_    0.304077 0.528342 0.712949 0.160523
H53   H     H_    0.374026 0.572137 0.656528 0.144290
H54   H     H_    0.229452 0.444911 0.656317 0.171429
H55   H     H_    0.314993 0.106337 0.799438 0.328327
H56   H     H_    0.832021 0.352583 0.874665 0.125139
H57   H     H_    0.919544 0.818220 0.697248 0.345964
H58   H     H_    0.870932 0.698367 0.752106 0.339416
H59   H     H_    0.401664 0.846089 0.824280 0.165765
H60   H     H_    0.497348 0.909581 0.776718 0.116753
H61   H     H_    0.575923 0.927516 0.884376 0.186036
H62   H     H_    0.673062 0.996688 0.836657 0.162533
H63   H     H_    0.568651 0.110295 0.823082 0.163568
H64   H     H_    0.626768 0.135039 0.884908 0.152230
H65   H     H_    0.470780 0.040826 0.870925 0.189904
H66   H     H_    0.716079 0.514283 0.354529 0.323633
H67   H     H_    0.781934 0.243708 0.632282 0.149883
H68   H     H_    0.028680 0.521872 0.150486 0.315478
H69   H     H_    0.980281 0.484092 0.406759 0.148162
H70   H     H_    0.928154 0.571202 0.380842 0.140721
H71   H     H_    0.064746 0.628031 0.480398 0.192338
H72   H     H_    0.009970 0.715826 0.455245 0.148219
H73   H     H_    0.802571 0.548564 0.453840 0.141433
H74   H     H_    0.872401 0.590766 0.514063 0.154548
H75   H     H_    0.857712 0.461637 0.480148 0.151382
H76   H     H_    0.968523 0.957237 0.162446 0.349864
H77   H     H_    0.896155 0.292637 0.800843 0.142894
H78   H     H_    0.569888 0.461759 0.865529 0.200078
O1    O     O_R   0.296680 0.802170 0.437540 -0.449928
O2    O     O_R   0.637200 0.461990 0.052510 -0.498299
O3    O     O_R   0.664790 0.681920 0.057970 -0.485211
O4    O     O_R   0.525380 0.838530 0.443500 -0.478509
O5    O     O_R   0.815840 0.852920 0.961840 -0.500433
O6    O     O_R   0.012100 0.822630 0.963670 -0.502027
O7    O     O_R   0.037010 0.668460 0.953040 -0.511409
O8    O     O_R   0.813390 0.478970 0.949660 -0.500151
O9    O     O_R   0.632250 0.456930 0.945520 -0.524580
O10   O     O_R   0.660200 0.677230 0.958780 -0.496369
O11   O     O_3   0.830870 0.661990 0.006950 -0.312113
O12   O     O_R   0.662610 0.183990 0.557860 -0.520432
O13   O     O_R   0.702130 0.995190 0.446810 -0.526735
O14   O     O_R   0.661770 0.181390 0.458760 -0.507798
O15   O     O_R   0.499820 0.198480 0.455280 -0.480944
O16   O     O_R   0.311660 0.976250 0.449080 -0.489185
O17   O     O_R   0.297580 0.804960 0.544440 -0.525776
O18   O     O_R   0.526220 0.841130 0.542590 -0.507405
O19   O     O_R   0.703030 0.997990 0.553710 -0.502797
O20   O     O_3   0.138809 0.083464 0.212417 -0.572047
O21   O     O_3   0.199780 0.120712 0.308940 -0.512147
O22   O     O_3   0.204388 0.039320 0.387854 -0.639493
O23   O     O_R   0.500730 0.201280 0.562180 -0.463594
O24   O     O_3   0.797039 0.009981 0.124648 -0.675825
O25   O     O_3   0.846010 0.163011 0.300155 -0.754097
O26   O     O_3   0.512457 0.603804 0.123714 -0.490191
O27   O     O_3   0.453271 0.510204 0.201904 -0.675064
O28   O     O_3   0.517554 0.656250 0.378008 -0.702488
O29   O     O_3   0.893463 0.237786 0.709862 -0.712441
O30   O     O_3   0.486449 0.494373 0.793386 -0.699004
O31   O     O_3   0.529909 0.389811 0.618498 -0.565318
O32   O     O_3   0.060866 0.633866 0.688893 -0.563989
O33   O     O_3   0.271019 0.037169 0.817767 -0.695186
O34   O     O_R   0.312500 0.978850 0.548170 -0.496041
O35   O     O_3   0.844012 0.794708 0.679135 -0.700754
O36   O     O_3   0.853957 0.742261 0.778539 -0.714719
O37   O     O_3   0.505013 0.771522 0.808516 -0.554993
O38   O     O_3   0.727074 0.535397 0.320719 -0.712746
O39   O     O_3   0.982128 0.554098 0.136001 -0.695877
O40   O     O_3   0.114110 0.638843 0.387444 -0.554974
O41   O     O_3   0.012147 0.930913 0.140284 -0.645660
O42   O     O_3   0.499990 0.999990 0.500010 -0.247991
O43   O     O_R   0.820790 0.857990 0.068830 -0.435324
O44   O     O_R   0.016700 0.827330 0.062850 -0.449286
O45   O     O_R   0.041970 0.673520 0.060040 -0.489884
O46   O     O_R   0.817980 0.483660 0.048840 -0.471149

loop_
_geom_bond_atom_site_label_1
_geom_bond_atom_site_label_2
_ccdc_geom_bond_type
H39   O30   S    
C12   O40   S    
C87   H6    S    
C7    H51   S    
C6    H49   S    
C64   O17   A    
C99   O9    A    
C2    C18   A    
C52   O12   A    
C59   C99   S    
C41   C42   A    
C98   O6    A    
C104  C105  S    
C19   C20   A    
C85   O36   S    
C76   C79   T    
C15   H75   S    
C111  H35   S    
Cr3   O34   S    
C63   C65   A    
Cr2   O13   S    
C85   C91   A    
Cr6   O2    S    
C7    C8    S    
C47   C49   A    
C20   C30   A    
C44   C45   A    
C28   O16   A    
C97   O43   A    
C21   C31   A    
C26   C27   A    
C107  H19   S    
C62   C67   A    
C9    O37   S    
C45   O27   S    
Cr1   O17   S    
C13   C29   A    
C36   C37   A    
H27   O25   S    
Cr6   O10   S    
C86   C91   A    
C18   H8    S    
C46   C79   S    
C78   C80   S    
C39   C97   S    
C66   C69   A    
C27   C29   A    
C106  C107  S    
C75   H5    S    
Cr4   O6    S    
C69   H78   S    
C14   H71   S    
Cr2   O12   S    
C9    H59   S    
C64   C71   S    
H37   O28   S    
C61   C63   A    
C1    O13   A    
C106  H17   S    
C110  C111  S    
Cr1   O1    S    
C74   O33   S    
Cr1   O42   S    
C54   C55   A    
C14   H72   S    
C109  H29   S    
C24   C57   A    
C103  H9    S    
C72   O32   S    
C11   H64   S    
C40   O18   A    
C101  O40   S    
C3    H41   S    
C68   C90   T    
C107  C108  S    
C35   O38   S    
C51   C70   A    
C77   C81   S    
Cr6   O9    S    
C84   O35   S    
C1    C50   S    
Cr1   O4    S    
C34   C36   A    
C8    H54   S    
C97   O3    A    
C99   O8    A    
Cr2   O42   S    
C66   C67   A    
C6    H48   S    
C104  H13   S    
C21   C22   A    
C27   C30   A    
C82   C98   S    
C40   C83   S    
H38   O29   S    
C1    O4    A    
C11   H65   S    
C42   C44   A    
Cr2   O19   S    
Cr3   O23   S    
C110  H31   S    
C111  H32   S    
C9    C10   S    
C32   H12   S    
C8    H53   S    
C105  H15   S    
C46   C88   A    
C111  H33   S    
C45   C47   A    
C96   O2    A    
C24   H3    S    
C44   H34   S    
H58   O36   S    
C74   C75   A    
C13   C19   A    
C24   C35   A    
C5    H47   S    
C38   C39   A    
C103  H10   S    
C105  H14   S    
C51   H67   S    
C91   C92   S    
C56   O29   S    
C4    H42   S    
C86   C87   A    
C34   C38   A    
C54   C67   A    
C2    C101  A    
C25   C26   A    
C12   H70   S    
C22   C25   A    
C33   C37   A    
C60   C61   A    
C51   C53   A    
C10   H61   S    
Cr3   O16   S    
C107  H20   S    
C5    H46   S    
H25   O22   S    
C72   C77   A    
C102  O5    A    
Cr4   O43   S    
C63   H2    S    
C53   C62   A    
C17   H7    S    
C47   C48   A    
C104  H11   S    
C60   C70   A    
C73   C78   A    
C43   C48   A    
C12   H69   S    
C6    O32   S    
C55   C56   A    
C92   C94   T    
C17   C18   A    
C65   O30   S    
C95   O44   A    
Cr1   O18   S    
C84   C85   A    
C75   C77   A    
C3    O31   S    
C32   C50   A    
C41   O28   S    
H66   O38   S    
Cr3   O42   S    
C80   C82   T    
C106  H18   S    
C39   C49   A    
C15   H73   S    
C12   C14   S    
Cr6   O11   S    
C73   H4    S    
C59   C69   A    
C74   C78   A    
C58   H56   S    
C34   C48   A    
C42   C43   A    
C10   H62   S    
C57   C68   S    
C88   H1    S    
C3    C4    S    
C88   C100  A    
C19   O39   S    
C103  O20   S    
C41   C50   A    
C103  C104  S    
Cr5   O8    S    
C9    H60   S    
C8    H52   S    
C105  H16   S    
C54   C58   A    
C53   C56   A    
C7    H50   S    
Cr5   O46   S    
C16   O14   A    
H76   O41   S    
C49   O26   S    
C16   C76   S    
C38   O24   S    
C20   C95   S    
C28   C31   S    
C109  H28   S    
C14   C15   S    
C109  O26   S    
C72   C73   A    
H57   O35   S    
C35   C46   A    
C4    H43   S    
C108  H22   S    
Cr5   O7    S    
C23   C29   A    
C90   C96   S    
C6    C7    S    
C71   C81   T    
C106  O21   S    
C15   H74   S    
Cr5   O45   S    
C52   O23   A    
C108  H24   S    
C13   C17   A    
C86   O37   S    
C32   C33   A    
Cr3   O15   S    
C16   O15   A    
C58   C59   A    
Cr2   O14   S    
H36   O27   S    
C109  C110  S    
Cr4   O44   S    
C57   C100  A    
C30   O41   S    
C64   O34   A    
C31   C101  A    
Cr4   O5    S    
C98   O7    A    
H55   O33   S    
C28   O1    A    
H68   O39   S    
C60   O31   S    
C95   O45   A    
C36   H23   S    
C89   C93   S    
C61   C62   A    
C102  O10   A    
C96   O46   A    
C52   C70   S    
C10   C11   S    
H26   O24   S    
C25   O21   S    
C4    C5    S    
C55   H77   S    
C94   C102  S    
C65   C66   A    
C84   C89   A    
Cr4   O11   S    
C40   O19   A    
C2    C23   A    
C3    H40   S    
C87   C89   A    
C22   C23   A    
C26   O20   S    
C21   O22   S    
C11   H63   S    
C37   O25   S    
C100  H45   S    
C33   C43   A    
Cr5   O11   S    
Cr6   O3    S    
C110  H30   S    
C5    H44   S    
C108  H21   S    
C83   C93   T    
