data_mof_unit_42875.cif
_audit_creation_date              2012-12-11T16:29:23-0500
_audit_creation_method            fapswitch 2.2
_symmetry_space_group_name_H-M    P1
_symmetry_Int_Tables_number       1
_space_group_crystal_system       triclinic
_cell_length_a                    6.952777
_cell_length_b                    17.355416
_cell_length_c                    18.738788
_cell_angle_alpha                 106.306842
_cell_angle_beta                  89.716966
_cell_angle_gamma                 90.506303
_cell_volume                      2170.12332963

loop_
_atom_site_label
_atom_site_type_symbol
_atom_type_description
_atom_site_fract_x
_atom_site_fract_y
_atom_site_fract_z
_atom_type_partial_charge
O1    O     O_R   0.494360 0.415680 0.413760 -0.533350
O2    O     O_R   0.818810 0.432910 0.557230 -0.523485
O3    O     O_R   0.994290 0.584320 0.586240 -0.532834
C1    C     C_R   0.649795 0.415976 0.580633 0.711451
O4    O     O_R   0.823740 0.406440 0.412520 -0.534782
O5    O     O_R   0.999250 0.557660 0.440500 -0.528065
C2    C     C_R   0.654786 0.383647 0.384883 0.696699
O6    O     O_R   0.489400 0.442340 0.559500 -0.526907
O7    O     O_3   0.662500 0.549650 0.509350 -0.359591
V1    V     V_3+5 0.935340 0.490790 0.498270 1.413804
O8    O     O_R   0.329270 0.567090 0.442770 -0.522177
C3    C     C_R   0.161113 0.584135 0.419463 0.712023
O9    O     O_R   0.324340 0.593560 0.587480 -0.535323
C4    C     C_R   0.155472 0.616260 0.615185 0.698623
V2    V     V_3+5 0.435970 0.509210 0.501730 1.415002
O10   O     O_3   0.158940 0.450350 0.490650 -0.359262
C5    C     C_R   0.307880 0.604936 0.755493 -0.144041
C6    C     C_R   0.380830 0.597149 0.822188 -0.121074
C7    C     C_R   0.367583 0.660434 0.886622 -0.119221
C8    C     C_R   0.281565 0.732044 0.884841 -0.132407
C9    C     C_R   0.208658 0.742320 0.817696 0.067433
C10   C     C_R   0.221784 0.677310 0.751614 0.067143
C11   C     C_R   0.119895 0.815131 0.816037 -0.172583
C12   C     C_R   0.044105 0.822745 0.748129 0.070196
C13   C     C_R   0.057240 0.757792 0.682094 0.036779
C14   C     C_R   0.145622 0.684903 0.683801 -0.168859
C15   C     C_R   0.958106 0.895017 0.744204 -0.215660
C16   C     C_R   0.885933 0.903062 0.677494 -0.131435
C17   C     C_R   0.900390 0.840082 0.612260 0.347094
C18   C     C_R   0.984956 0.768011 0.614852 -0.205547
H1    H     H_    0.318707 0.553258 0.707402 0.109069
H2    H     H_    0.446539 0.541400 0.823973 0.117694
H3    H     H_    0.422877 0.653813 0.938466 0.115868
H4    H     H_    0.271483 0.778690 0.936903 0.105612
H5    H     H_    0.946131 0.946484 0.792436 0.126425
H6    H     H_    0.818143 0.958786 0.676848 0.127285
H7    H     H_    0.996315 0.720822 0.563198 0.105684
C19   C     C_1   0.111790 0.864109 0.132797 -0.221279
C20   C     C_1   0.119190 0.821656 0.176470 -0.004846
C21   C     C_1   0.128404 0.771536 0.228456 -0.006194
C22   C     C_1   0.136292 0.729268 0.272283 -0.005036
C23   C     C_1   0.145614 0.678989 0.324121 -0.002838
C24   C     C_1   0.153158 0.636299 0.367578 -0.221381
C25   C     C_1   0.641131 0.364041 0.632659 -0.221162
C26   C     C_1   0.636972 0.321433 0.676219 -0.004658
C27   C     C_1   0.633729 0.271154 0.728081 -0.005259
C28   C     C_1   0.631355 0.228802 0.771878 -0.004921
C29   C     C_1   0.628105 0.178551 0.823765 -0.003957
C30   C     C_1   0.623941 0.135979 0.867355 -0.220532
H8    H     H_    0.327500 0.153598 0.437409 0.115876
C31   C     C_R   0.813994 0.395325 0.245083 -0.141097
C32   C     C_R   0.891201 0.403123 0.178716 -0.122616
C33   C     C_R   0.879105 0.339727 0.114293 -0.120095
C34   C     C_R   0.789929 0.268005 0.115755 -0.131100
C35   C     C_R   0.712640 0.257721 0.182581 0.069930
C36   C     C_R   0.724684 0.322821 0.248662 0.068928
C37   C     C_R   0.620554 0.184826 0.183907 -0.188149
C38   C     C_R   0.540168 0.177193 0.251402 0.068889
C39   C     C_R   0.552211 0.242294 0.317485 0.069855
C40   C     C_R   0.644253 0.315198 0.316151 -0.188296
C41   C     C_R   0.450962 0.104671 0.254992 -0.141192
C42   C     C_R   0.373910 0.096847 0.321376 -0.123061
C43   C     C_R   0.386004 0.160245 0.385799 -0.120254
C44   C     C_R   0.475023 0.231996 0.384321 -0.131149
H9    H     H_    0.823978 0.447129 0.293133 0.109570
H10   H     H_    0.959304 0.458974 0.177166 0.117790
H11   H     H_    0.937721 0.346353 0.062693 0.116029
H12   H     H_    0.780922 0.221284 0.063689 0.106012
H13   H     H_    0.440971 0.052873 0.206936 0.109613
H14   H     H_    0.305921 0.040978 0.322940 0.117424
H15   H     H_    0.484018 0.278726 0.436381 0.105916
O11   O     O_R   0.775690 0.057750 0.940570 -0.526944
O12   O     O_R   0.441200 0.093570 0.087490 -0.534844
O13   O     O_R   0.265840 0.942320 0.059480 -0.527370
C45   C     C_R   0.610104 0.116377 0.115173 0.696584
O14   O     O_R   0.446270 0.067110 0.942790 -0.523313
O15   O     O_R   0.270950 0.915660 0.913750 -0.532961
C46   C     C_R   0.615284 0.084070 0.919404 0.711893
O16   O     O_R   0.770580 0.084400 0.086300 -0.533576
O17   O     O_3   0.602640 0.950400 0.990690 -0.359178
V3    V     V_3+5 0.329740 0.009200 0.001730 1.416111
O18   O     O_R   0.940900 0.906360 0.912450 -0.535061
C47   C     C_R   0.109834 0.883695 0.884746 0.696400
O19   O     O_R   0.935830 0.932820 0.057160 -0.522754
C48   C     C_R   0.103951 0.915961 0.080627 0.710803
V4    V     V_3+5 0.829130 0.990680 0.998180 1.415223
O20   O     O_3   0.106100 0.049590 0.009310 -0.359229
N1    N     N_2   0.825471 0.848218 0.544134 -0.521520
H16   H     H_    0.806252 0.794681 0.503366 0.254181
C49   C     C_3   0.919119 0.908732 0.516203 -0.547618
H17   H     H_    0.848707 0.911098 0.463800 0.200955
H18   H     H_    0.073307 0.893729 0.504498 0.197642
H19   H     H_    0.907089 0.968945 0.556803 0.200533

loop_
_geom_bond_atom_site_label_1
_geom_bond_atom_site_label_2
_ccdc_geom_bond_type
C35   C36   A    
C22   C23   S    
C7    C8    A    
C12   C15   A    
C1    O6    A    
C49   H17   S    
C26   C27   S    
C32   C33   A    
C39   C44   A    
C17   C18   A    
C11   C47   S    
C16   C17   A    
O14   C46   A    
C31   C36   A    
C3    C24   S    
O5    C3    A    
C19   C20   T    
C34   H12   S    
O15   C47   A    
V2    O10   S    
C30   C46   S    
C42   H14   S    
C6    C7    A    
C31   H9    S    
C44   H15   S    
C17   N1    S    
O11   C46   A    
C27   C28   T    
O8    V2    S    
O17   V4    S    
C11   C12   A    
O1    V2    S    
O7    V1    S    
C8    H4    S    
N1    H16   S    
C38   C41   A    
C39   C40   A    
O9    C4    A    
H8    C43   S    
O12   C45   A    
O12   V3    S    
C19   C48   S    
C31   C32   A    
C12   C13   A    
C7    H3    S    
C20   C21   S    
O4    C2    A    
V4    O20   S    
C1    C25   S    
C15   H5    S    
C38   C39   A    
O18   V4    S    
C4    C14   S    
C36   C40   A    
C18   H7    S    
O2    C1    A    
C42   C43   A    
C49   H18   S    
C28   C29   S    
O15   V3    S    
C5    C6    A    
C35   C37   A    
O19   C48   A    
V3    O20   S    
O3    C4    A    
C29   C30   T    
N1    C49   S    
O6    V2    S    
O9    V2    S    
C5    H1    S    
C6    H2    S    
C23   C24   T    
O13   V3    S    
O2    V1    S    
C2    C40   S    
C32   H10   S    
C25   C26   T    
C49   H19   S    
C41   H13   S    
C13   C18   A    
C34   C35   A    
C21   C22   T    
O1    C2    A    
O19   V4    S    
O17   V3    S    
O14   V3    S    
O5    V1    S    
O11   V4    S    
O8    C3    A    
C33   C34   A    
C5    C10   A    
C37   C45   S    
C9    C11   A    
C13   C14   A    
O4    V1    S    
O3    V1    S    
V1    O10   S    
C37   C38   A    
O13   C48   A    
O7    V2    S    
C41   C42   A    
C33   H11   S    
C43   C44   A    
C8    C9    A    
C16   H6    S    
O18   C47   A    
C10   C14   A    
C15   C16   A    
C9    C10   A    
C45   O16   A    
O16   V4    S    
