data_mof_unit_48420.cif
_audit_creation_date              2012-12-11T15:55:48-0500
_audit_creation_method            fapswitch 2.2
_symmetry_space_group_name_H-M    P1
_symmetry_Int_Tables_number       1
_space_group_crystal_system       triclinic
_cell_length_a                    6.932098
_cell_length_b                    14.550571
_cell_length_c                    16.105118
_cell_angle_alpha                 90.008259
_cell_angle_beta                  89.939743
_cell_angle_gamma                 90.18366
_cell_volume                      1624.44931643

loop_
_atom_site_label
_atom_site_type_symbol
_atom_type_description
_atom_site_fract_x
_atom_site_fract_y
_atom_site_fract_z
_atom_type_partial_charge
O1    O     O_R   0.505680 0.583900 0.413320 -0.541812
O2    O     O_R   0.176010 0.594950 0.586080 -0.530459
O3    O     O_R   0.005680 0.416100 0.586680 -0.533224
C1    C     C_R   0.345482 0.615549 0.616386 0.699389
O4    O     O_R   0.175960 0.594930 0.413930 -0.547490
O5    O     O_R   0.005640 0.416080 0.413300 -0.544596
C2    C     C_R   0.345320 0.617150 0.385221 0.702290
O6    O     O_R   0.505720 0.583920 0.586700 -0.534150
O7    O     O_3   0.339190 0.441320 0.500000 -0.376278
V1    V     V_3+5 0.064350 0.510890 0.500000 1.437130
O8    O     O_R   0.675920 0.405050 0.413920 -0.547811
C3    C     C_R   0.844909 0.382775 0.384963 0.671757
O9    O     O_R   0.675960 0.405070 0.586070 -0.544328
C4    C     C_R   0.844492 0.383055 0.614811 0.766055
V2    V     V_3+5 0.564340 0.489110 0.500000 1.424822
O10   O     O_3   0.839370 0.558680 0.500000 -0.364660
C5    C     C_R   0.978454 0.326440 0.750594 -0.003664
C6    C     C_R   0.851255 0.316024 0.683914 -0.146993
C7    C     C_R   0.723592 0.240553 0.686525 -0.174804
H1    H     H_    0.619758 0.231146 0.636973 0.132953
C8    C     C_R   0.740097 0.171542 0.747996 0.416901
C9    C     C_R   0.877474 0.181387 0.813628 -0.209024
C10   C     C_R   0.988049 0.262200 0.814576 -0.070534
C11   C     C_3   0.201882 0.277644 0.822953 0.727989
C12   C     C_3   0.189008 0.348601 0.752926 -0.471617
H2    H     H_    0.265247 0.328258 0.695000 0.163672
H3    H     H_    0.216179 0.420533 0.773162 0.167153
C13   C     C_R   0.046967 0.224903 0.217528 -0.143895
H4    H     H_    0.187773 0.206582 0.193668 0.119537
C14   C     C_R   0.035750 0.288419 0.282735 -0.149599
H5    H     H_    0.168523 0.317207 0.306904 0.118376
C15   C     C_R   0.856072 0.314463 0.316108 -0.044541
C16   C     C_R   0.687931 0.275207 0.282319 -0.153702
H6    H     H_    0.547122 0.293538 0.306169 0.116391
C17   C     C_R   0.699148 0.211688 0.217115 -0.138399
H7    H     H_    0.566374 0.182907 0.192939 0.120817
C18   C     C_R   0.878829 0.185617 0.183767 -0.046363
C19   C     C_R   0.201827 0.740248 0.704335 -0.135715
H8    H     H_    0.071527 0.736584 0.667434 0.136511
C20   C     C_R   0.210956 0.804628 0.768855 -0.143100
H9    H     H_    0.087278 0.848251 0.780005 0.115327
C21   C     C_R   0.378497 0.813794 0.817295 -0.052660
C22   C     C_R   0.535241 0.755914 0.800873 -0.197412
H10   H     H_    0.664306 0.760844 0.838664 0.121047
C23   C     C_R   0.526460 0.689908 0.737536 -0.029070
C24   C     C_R   0.358927 0.682296 0.686865 -0.093204
C25   C     C_R   0.190238 0.731579 0.290477 -0.168172
H11   H     H_    0.053113 0.719108 0.320878 0.139425
C26   C     C_R   0.196146 0.793173 0.223878 0.345468
C27   C     C_R   0.373740 0.812501 0.182828 -0.131837
C28   C     C_R   0.539466 0.765557 0.209439 -0.188458
H12   H     H_    0.675971 0.776642 0.178753 0.163279
C29   C     C_R   0.531259 0.702876 0.275270 -0.143645
H13   H     H_    0.662234 0.667802 0.293336 0.133016
C30   C     C_R   0.356289 0.685152 0.316574 -0.116535
O11   O     O_R   0.229200 0.915950 0.913350 -0.547517
O12   O     O_R   0.559090 0.905000 0.086080 -0.544740
O13   O     O_R   0.729280 0.083880 0.086680 -0.541133
C31   C     C_R   0.388828 0.881949 0.114564 0.693927
O14   O     O_R   0.558920 0.904980 0.913920 -0.552166
O15   O     O_R   0.729110 0.083860 0.913300 -0.522372
C32   C     C_R   0.389691 0.882827 0.885128 0.692731
O16   O     O_R   0.229360 0.915970 0.086730 -0.534738
O17   O     O_3   0.395680 0.058580 0.000030 -0.346867
V3    V     V_3+5 0.670570 0.989070 0.999990 1.456834
O18   O     O_R   0.058820 0.094950 0.913870 -0.515453
C33   C     C_R   0.890238 0.114944 0.883501 0.717943
O19   O     O_R   0.058990 0.094970 0.086020 -0.540626
C34   C     C_R   0.890000 0.117248 0.114965 0.709163
V4    V     V_3+5 0.170560 0.010930 0.999930 1.501933
O20   O     O_3   0.895590 0.941310 0.999960 -0.386825
C35   C     C_1   0.689796 0.629120 0.729135 0.290301
N1    N     N_1   0.820798 0.580486 0.722878 -0.360914
O21   O     O_3   0.025710 0.833764 0.201224 -0.648275
H14   H     H_    0.000872 0.813931 0.143313 0.282149
O22   O     O_3   0.627794 0.093791 0.738001 -0.636876
H15   H     H_    0.687619 0.041923 0.768056 0.275887
O23   O     O_3   0.313317 0.200095 0.803140 -0.593783
H16   H     H_    0.266687 0.174778 0.749467 0.279384
O24   O     O_3   0.255979 0.314975 0.900136 -0.616433
H17   H     H_    0.166758 0.366160 0.913618 0.266913

loop_
_geom_bond_atom_site_label_1
_geom_bond_atom_site_label_2
_ccdc_geom_bond_type
C14   C15   A    
C18   C34   S    
C4    C6    S    
C17   H7    S    
C2    C30   S    
C1    O6    A    
C25   C26   A    
C1    C24   S    
C29   H13   S    
C8    O22   S    
C5    C10   A    
C27   C31   S    
C13   H4    S    
C7    C8    A    
O5    C3    A    
C14   H5    S    
O12   C31   A    
V2    O10   S    
O14   C32   A    
C6    C7    A    
O8    V2    S    
C11   O24   S    
C7    H1    S    
V3    O20   S    
O19   C34   A    
C10   C11   S    
V4    O20   S    
O1    V2    S    
O17   V4    S    
O7    V1    S    
C21   C32   S    
C20   C21   A    
O18   C33   A    
C26   O21   S    
C8    C9    A    
C3    C15   S    
C23   C35   S    
C5    C6    A    
C29   C30   A    
O21   H14   S    
C28   H12   S    
O22   H15   S    
O4    C2    A    
O23   H16   S    
O24   H17   S    
C27   C28   A    
C12   H2    S    
C23   C24   A    
C28   C29   A    
O2    C1    A    
C22   H10   S    
O15   C33   A    
O13   V3    S    
C25   H11   S    
O16   V4    S    
C16   H6    S    
C11   C12   S    
C22   C23   A    
O3    C4    A    
C11   O23   S    
C20   H9    S    
O14   V3    S    
O6    V2    S    
O11   V4    S    
O9    V2    S    
O11   C32   A    
C21   C22   A    
O2    V1    S    
C25   C30   A    
C17   C18   A    
O1    C2    A    
O12   V3    S    
C35   N1    T    
O5    V1    S    
O8    C3    A    
O13   C34   A    
C12   H3    S    
O18   V4    S    
C31   O16   A    
C5    C12   S    
C15   C16   A    
C13   C14   A    
O7    V2    S    
O4    V1    S    
O3    V1    S    
V1    O10   S    
O17   V3    S    
C19   C20   A    
C19   H8    S    
C13   C18   A    
C16   C17   A    
C9    C33   S    
C19   C24   A    
O15   V3    S    
O19   V4    S    
C26   C27   A    
C9    C10   A    
O9    C4    A    
