data_mof_unit_64017.cif
_audit_creation_date              2013-03-05T16:20:22-0500
_audit_creation_method            fapswitch 2.2
_symmetry_space_group_name_H-M    P1
_symmetry_Int_Tables_number       1
_space_group_crystal_system       triclinic
_cell_length_a                    38.236721
_cell_length_b                    40.280153
_cell_length_c                    26.601883
_cell_angle_alpha                 90.238638
_cell_angle_beta                  89.810909
_cell_angle_gamma                 90.076105
_cell_volume                      40971.1001188

loop_
_atom_site_label
_atom_site_type_symbol
_atom_site_description
_atom_site_fract_x
_atom_site_fract_y
_atom_site_fract_z
_atom_type_partial_charge
O1    O     O_R   0.034860 0.465130 0.542340 -0.598180
O2    O     O_R   0.965140 0.534870 0.457660 -0.591783
O3    O     O_R   0.965140 0.534870 0.542340 -0.514334
O4    O     O_R   0.034860 0.465130 0.457660 -0.515660
O5    O     O_R   0.965140 0.465130 0.457660 -0.550683
O6    O     O_R   0.034860 0.534870 0.542340 -0.514690
O7    O     O_R   0.034860 0.534870 0.457660 -0.596380
O8    O     O_R   0.965140 0.465130 0.542340 -0.583908
O9    O     O_R   0.534860 0.965130 0.542340 -0.579361
O10   O     O_R   0.465140 0.034870 0.457660 -0.597230
O11   O     O_R   0.465140 0.034870 0.542340 -0.514339
O12   O     O_R   0.534860 0.965130 0.457660 -0.553789
O13   O     O_R   0.465140 0.965130 0.457660 -0.516211
O14   O     O_R   0.534860 0.034870 0.542340 -0.558471
O15   O     O_R   0.534860 0.034870 0.457660 -0.574030
O16   O     O_R   0.465140 0.965130 0.542340 -0.599476
C1    C     C_R   0.045922 0.453278 0.499784 0.902490
C2    C     C_R   0.953885 0.546644 0.500101 0.933847
C3    C     C_R   0.953777 0.453776 0.500032 0.935420
C4    C     C_R   0.045962 0.546687 0.500069 0.911055
C5    C     C_R   0.546171 0.953682 0.500058 0.951948
C6    C     C_R   0.454042 0.046709 0.500228 0.902294
C7    C     C_R   0.454078 0.953265 0.499957 0.903872
C8    C     C_R   0.546256 0.046178 0.499972 0.947234
O17   O     O_2   0.980933 0.554970 0.214673 -0.464664
O18   O     O_2   0.019684 0.445652 0.785244 -0.468325
O19   O     O_2   0.019290 0.445163 0.214005 -0.443445
O20   O     O_2   0.980581 0.555211 0.785911 -0.438694
O21   O     O_2   0.446731 0.969769 0.210241 -0.419315
O22   O     O_2   0.551460 0.968013 0.788892 -0.440217
O23   O     O_2   0.550596 0.032499 0.210528 -0.440614
O24   O     O_2   0.446538 0.028879 0.790189 -0.419502
N1    N     N_R   0.999206 0.499771 0.213040 -0.406130
N2    N     N_R   0.001051 0.500737 0.786901 -0.405339
N3    N     N_R   0.498996 0.000784 0.212333 -0.421753
N4    N     N_R   0.499271 0.998708 0.787584 -0.421943
C9    C     C_R   0.002067 0.500999 0.946366 -0.063082
C10   C     C_R   0.998246 0.499567 0.053558 -0.063115
C11   C     C_R   0.497277 0.998384 0.946782 -0.058480
C12   C     C_R   0.497187 0.000894 0.053145 -0.058503
Cu1   Cu    Cu3+1 0.000000 0.500000 0.550150 1.070900
Cu2   Cu    Cu3+1 0.000000 0.500000 0.449850 1.051818
Cu3   Cu    Cu3+1 0.500000 0.000000 0.550150 1.053052
Cu4   Cu    Cu3+1 0.500000 1.000000 0.449850 1.058189
C13   C     C_R   0.030996 0.499817 0.347432 0.220435
C14   C     C_R   0.969052 0.499343 0.652653 0.223911
C15   C     C_R   0.968865 0.500111 0.348079 0.187112
C16   C     C_R   0.031195 0.500663 0.651793 0.225206
C17   C     C_R   0.530394 0.995828 0.347183 0.187328
C18   C     C_R   0.469335 0.994950 0.651939 0.225072
C19   C     C_R   0.469196 0.004468 0.348386 0.224767
C20   C     C_R   0.530440 0.004755 0.652345 0.187572
C21   C     C_R   0.999657 0.499986 0.267787 0.026262
C22   C     C_R   0.000521 0.500482 0.732170 0.023286
C23   C     C_R   0.499302 0.000305 0.267491 -0.001644
C24   C     C_R   0.499563 0.999217 0.732423 -0.001349
C25   C     C_R   0.997062 0.499095 0.107431 -0.115250
C26   C     C_R   0.003242 0.501454 0.892493 -0.115109
C27   C     C_R   0.497893 0.001731 0.106660 -0.127177
C28   C     C_R   0.498069 0.997610 0.893261 -0.127159
C29   C     C_R   0.985531 0.527429 0.134589 -0.176387
C30   C     C_R   0.014859 0.473142 0.865349 -0.174914
C31   C     C_R   0.006698 0.470070 0.134048 -0.179823
C32   C     C_R   0.993504 0.530441 0.865862 -0.181755
C33   C     C_R   0.467530 0.994040 0.134172 -0.185270
C34   C     C_R   0.528961 0.989078 0.866919 -0.182143
C35   C     C_R   0.528600 0.010848 0.132762 -0.182409
C36   C     C_R   0.467619 0.004805 0.865985 -0.184836
C37   C     C_R   0.988240 0.527419 0.187877 0.717192
C38   C     C_R   0.012180 0.473149 0.812057 0.714884
C39   C     C_R   0.008336 0.471509 0.187457 0.715305
C40   C     C_R   0.991782 0.528960 0.812463 0.719554
C41   C     C_R   0.470790 0.988427 0.186316 0.721206
C42   C     C_R   0.526941 0.985536 0.813801 0.715097
C43   C     C_R   0.526446 0.014443 0.185869 0.714851
C44   C     C_R   0.470851 0.010560 0.813853 0.721953
C45   C     C_R   0.852959 0.326619 0.462910 0.754439
C46   C     C_R   0.138943 0.681956 0.497310 0.755615
C47   C     C_R   0.137937 0.317398 0.493107 0.756270
C48   C     C_R   0.858456 0.680732 0.517191 0.754685
C49   C     C_R   0.362301 0.817075 0.490435 0.755234
C50   C     C_R   0.648702 0.172014 0.538026 0.755213
C51   C     C_R   0.635269 0.816088 0.487404 0.753454
C52   C     C_R   0.362366 0.182853 0.506086 0.755259
O25   O     O_2   0.874025 0.331539 0.422826 -0.388565
O26   O     O_2   0.104668 0.689597 0.494158 -0.390338
O27   O     O_2   0.103560 0.309814 0.491907 -0.388198
O28   O     O_2   0.890363 0.686468 0.536961 -0.375311
O29   O     O_2   0.395705 0.810509 0.477256 -0.383647
O30   O     O_2   0.627777 0.167004 0.578238 -0.386328
O31   O     O_2   0.605681 0.812782 0.460324 -0.379241
O32   O     O_2   0.396748 0.190378 0.507674 -0.391535
N5    N     N_R   0.855521 0.347239 0.503560 -0.426158
N6    N     N_R   0.148801 0.649500 0.499516 -0.425109
N7    N     N_R   0.148013 0.349797 0.496800 -0.425924
N8    N     N_R   0.851366 0.650576 0.495792 -0.431670
N9    N     N_R   0.353161 0.848598 0.503923 -0.428136
N10   N     N_R   0.645890 0.151575 0.497189 -0.427169
N11   N     N_R   0.641689 0.845134 0.512412 -0.430737
N12   N     N_R   0.352257 0.150474 0.502379 -0.424741
C53   C     C_R   0.835474 0.342667 0.545617 0.713749
C54   C     C_R   0.183064 0.640226 0.502711 0.712557
C55   C     C_R   0.182446 0.358881 0.496915 0.712507
C56   C     C_R   0.820040 0.644422 0.472791 0.718324
C57   C     C_R   0.319862 0.856565 0.518323 0.715101
C58   C     C_R   0.665922 0.156183 0.455112 0.714478
C59   C     C_R   0.670977 0.849200 0.541265 0.716277
C60   C     C_R   0.317830 0.141410 0.502042 0.712258
C61   C     C_R   0.868906 0.406509 0.491970 0.574116
C62   C     C_R   0.106541 0.615018 0.544791 0.559030
C63   C     C_R   0.105563 0.384708 0.453173 0.561358
C64   C     C_R   0.888329 0.611699 0.543351 0.569150
C65   C     C_R   0.390704 0.886770 0.456407 0.566659
C66   C     C_R   0.632021 0.092066 0.504844 0.573546
C67   C     C_R   0.627562 0.901719 0.484236 0.571000
C68   C     C_R   0.391719 0.113125 0.546994 0.558843
C69   C     C_R   0.892918 0.432706 0.491038 0.533236
C70   C     C_R   0.081315 0.590018 0.545303 0.556570
C71   C     C_R   0.080557 0.409834 0.453565 0.552866
C72   C     C_R   0.913658 0.586757 0.544825 0.559172
C73   C     C_R   0.415401 0.912262 0.455035 0.550779
C74   C     C_R   0.607656 0.066160 0.505533 0.547714
C75   C     C_R   0.604493 0.928484 0.481508 0.558699
C76   C     C_R   0.416584 0.087871 0.546869 0.552378
C77   C     C_R   0.939677 0.394347 0.511123 -0.342883
C78   C     C_R   0.087354 0.583999 0.454778 -0.336195
C79   C     C_R   0.087520 0.415662 0.543901 -0.337901
C80   C     C_R   0.917044 0.587376 0.453770 -0.323190
C81   C     C_R   0.417292 0.912462 0.546288 -0.337013
C82   C     C_R   0.560782 0.105778 0.492785 -0.348162
C83   C     C_R   0.560329 0.896211 0.525018 -0.353064
C84   C     C_R   0.415358 0.086814 0.455585 -0.337498
C85   C     C_R   0.915719 0.368160 0.511980 0.669170
C86   C     C_R   0.112565 0.608989 0.454462 0.660834
C87   C     C_R   0.112538 0.390493 0.543324 0.662954
C88   C     C_R   0.892292 0.612751 0.452432 0.661063
C89   C     C_R   0.392726 0.886953 0.547493 0.658632
C90   C     C_R   0.585094 0.131668 0.492062 0.670871
C91   C     C_R   0.583564 0.869622 0.528594 0.673531
C92   C     C_R   0.390454 0.112086 0.455920 0.661193
C93   C     C_R   0.880238 0.374137 0.502344 -0.038311
C94   C     C_R   0.122345 0.624353 0.499512 -0.031845
C95   C     C_R   0.121746 0.375124 0.497891 -0.036571
C96   C     C_R   0.877484 0.624846 0.497191 -0.045800
C97   C     C_R   0.379177 0.874212 0.502586 -0.037414
C98   C     C_R   0.620828 0.124932 0.498158 -0.043791
C99   C     C_R   0.617313 0.872180 0.508009 -0.051622
C100  C     C_R   0.378462 0.125115 0.501655 -0.031583
C101  C     C_R   0.805852 0.296643 0.504368 -0.165450
C102  C     C_R   0.199911 0.698330 0.502404 -0.161149
C103  C     C_R   0.198934 0.300731 0.493531 -0.166004
C104  C     C_R   0.799801 0.699378 0.496665 -0.168787
C105  C     C_R   0.302614 0.799162 0.505629 -0.162676
C106  C     C_R   0.695893 0.201913 0.496626 -0.165554
C107  C     C_R   0.691530 0.794859 0.514525 -0.167367
C108  C     C_R   0.301378 0.199564 0.505318 -0.165918
C109  C     C_R   0.828188 0.300792 0.462485 -0.250418
C110  C     C_R   0.164253 0.707153 0.498449 -0.249010
C111  C     C_R   0.163157 0.292153 0.491093 -0.251552
C112  C     C_R   0.832654 0.705555 0.518914 -0.252184
C113  C     C_R   0.337173 0.791689 0.490402 -0.250932
C114  C     C_R   0.673582 0.197742 0.538530 -0.251396
C115  C     C_R   0.659705 0.790094 0.488796 -0.255116
C116  C     C_R   0.337160 0.208128 0.507848 -0.250171
C117  C     C_R   0.826263 0.278104 0.422439 0.611105
C118  C     C_R   0.154907 0.740799 0.494752 0.608666
C119  C     C_R   0.153667 0.258826 0.484007 0.611740
C120  C     C_R   0.839361 0.736864 0.540123 0.614398
C121  C     C_R   0.345472 0.759332 0.474356 0.609514
C122  C     C_R   0.675610 0.220339 0.578684 0.611675
C123  C     C_R   0.652641 0.759089 0.466863 0.611657
C124  C     C_R   0.346656 0.241462 0.514837 0.610434
C125  C     C_R   0.811050 0.316279 0.547998 -0.148763
C126  C     C_R   0.209776 0.664446 0.505080 -0.147490
C127  C     C_R   0.208951 0.334594 0.493090 -0.149451
C128  C     C_R   0.794326 0.669497 0.469715 -0.157336
C129  C     C_R   0.293682 0.831861 0.520832 -0.150219
C130  C     C_R   0.690572 0.182397 0.452898 -0.149546
C131  C     C_R   0.696453 0.823833 0.543989 -0.152075
C132  C     C_R   0.291341 0.165706 0.505782 -0.149067
C133  C     C_R   0.928416 0.426613 0.500334 -0.332177
C134  C     C_R   0.071832 0.573859 0.500199 -0.359108
C135  C     C_R   0.071619 0.425969 0.499013 -0.361641
C136  C     C_R   0.927866 0.573848 0.499840 -0.352456
C137  C     C_R   0.428565 0.925764 0.500190 -0.359592
C138  C     C_R   0.571951 0.073028 0.499748 -0.342196
C139  C     C_R   0.570528 0.925642 0.501073 -0.344691
C140  C     C_R   0.428343 0.074052 0.500981 -0.361001
H1    H     H_    0.967019 0.389503 0.518727 0.216216
H2    H     H_    0.080173 0.572535 0.419442 0.239750
H3    H     H_    0.080784 0.427139 0.579465 0.240363
H4    H     H_    0.927858 0.578476 0.418552 0.239181
H5    H     H_    0.427471 0.921712 0.581581 0.240091
H6    H     H_    0.533253 0.111217 0.487949 0.215712
H7    H     H_    0.534399 0.893967 0.541232 0.218645
H8    H     H_    0.424385 0.077273 0.419758 0.240319
C141  C     C_R   0.261467 0.715020 0.502178 -0.006696
C142  C     C_R   0.757034 0.267659 0.545386 -0.007663
C143  C     C_R   0.740456 0.717966 0.475739 -0.009189
C144  C     C_R   0.260529 0.283997 0.496479 -0.008908
C145  C     C_R   0.744807 0.230816 0.455694 -0.007276
C146  C     C_R   0.241655 0.781780 0.515275 -0.006809
C147  C     C_R   0.239791 0.216307 0.502259 -0.009069
C148  C     C_R   0.750136 0.775331 0.536816 -0.006957
C149  C     C_R   0.215629 0.757363 0.506336 -0.110112
C150  C     C_R   0.774137 0.252567 0.459065 -0.111617
C151  C     C_R   0.778417 0.753086 0.528322 -0.111018
C152  C     C_R   0.214279 0.241493 0.495067 -0.112819
C153  C     C_R   0.727727 0.245876 0.542044 -0.111541
C154  C     C_R   0.286592 0.740534 0.494981 -0.110702
C155  C     C_R   0.286048 0.258809 0.503664 -0.112459
C156  C     C_R   0.712431 0.740822 0.483046 -0.113007
C157  C     C_R   0.225693 0.723570 0.503650 -0.060413
C158  C     C_R   0.778663 0.272490 0.502743 -0.054391
C159  C     C_R   0.772649 0.723353 0.500742 -0.052603
C160  C     C_R   0.224651 0.275351 0.495628 -0.053585
C161  C     C_R   0.723159 0.225992 0.498324 -0.053843
C162  C     C_R   0.276946 0.773809 0.505379 -0.059790
C163  C     C_R   0.275671 0.224951 0.503136 -0.053688
C164  C     C_R   0.718243 0.770412 0.511059 -0.054388
C165  C     C_R   0.270870 0.681630 0.510205 0.638591
C166  C     C_R   0.767498 0.282581 0.591190 0.638308
C167  C     C_R   0.738796 0.691557 0.440535 0.633817
C168  C     C_R   0.269656 0.317235 0.485511 0.637632
C169  C     C_R   0.734330 0.215955 0.409855 0.637751
C170  C     C_R   0.233867 0.813231 0.535868 0.638571
C171  C     C_R   0.230645 0.183076 0.513244 0.637196
C172  C     C_R   0.751501 0.800806 0.573492 0.638382
C173  C     C_R   0.245668 0.656446 0.511261 0.121746
C174  C     C_R   0.792810 0.307654 0.592481 0.124130
C175  C     C_R   0.764207 0.666642 0.439260 0.125554
C176  C     C_R   0.244717 0.342545 0.486229 0.123664
C177  C     C_R   0.708897 0.190996 0.408464 0.124875
C178  C     C_R   0.259244 0.838196 0.538510 0.122184
C179  C     C_R   0.255574 0.157763 0.512589 0.124152
C180  C     C_R   0.725929 0.825531 0.576035 0.124886
C181  C     C_R   0.031053 0.499844 0.294364 0.504542
C182  C     C_R   0.969085 0.499646 0.705717 0.495338
C183  C     C_R   0.968492 0.500098 0.295118 0.482308
C184  C     C_R   0.031644 0.500970 0.704750 0.492324
C185  C     C_R   0.529749 0.992721 0.294488 0.493318
C186  C     C_R   0.469539 0.991333 0.704469 0.486880
C187  C     C_R   0.469218 0.007796 0.295776 0.487259
C188  C     C_R   0.529848 0.007475 0.705110 0.499339
O33   O     O_2   0.190757 0.607635 0.503108 -0.469492
O34   O     O_2   0.838951 0.364114 0.584221 -0.464504
O35   O     O_2   0.813645 0.613763 0.454645 -0.447674
O36   O     O_2   0.190563 0.391282 0.501451 -0.466028
O37   O     O_2   0.662144 0.134982 0.416259 -0.459954
O38   O     O_2   0.312393 0.888489 0.528901 -0.465217
O39   O     O_2   0.309711 0.109021 0.497270 -0.468550
O40   O     O_2   0.675404 0.878040 0.566191 -0.449855
C189  C     C_R   0.800805 0.253431 0.421990 0.620085
C190  C     C_R   0.180217 0.765505 0.498076 0.622386
C191  C     C_R   0.178985 0.234140 0.483439 0.618990
C192  C     C_R   0.813116 0.760644 0.542957 0.619126
C193  C     C_R   0.320480 0.734252 0.475985 0.621592
C194  C     C_R   0.701093 0.244983 0.579166 0.619049
C195  C     C_R   0.677879 0.734266 0.466619 0.618704
C196  C     C_R   0.321346 0.266161 0.515289 0.618677
C197  C     C_R   0.988568 0.559650 0.946344 0.639236
C198  C     C_R   0.011675 0.440900 0.053537 0.639662
C199  C     C_R   0.030627 0.447447 0.945195 0.639781
C200  C     C_R   0.969759 0.553154 0.054764 0.639705
C201  C     C_R   0.433999 0.997934 0.943077 0.633587
C202  C     C_R   0.559142 0.013953 0.052143 0.636783
C203  C     C_R   0.559437 0.986416 0.947339 0.636931
C204  C     C_R   0.433904 0.000226 0.057279 0.633358
C205  C     C_R   0.970088 0.553826 0.107414 0.127604
C206  C     C_R   0.030343 0.446776 0.892546 0.127579
C207  C     C_R   0.012339 0.440414 0.106187 0.125671
C208  C     C_R   0.987844 0.560103 0.893692 0.125659
C209  C     C_R   0.435084 0.994223 0.109131 0.125790
C210  C     C_R   0.559698 0.982711 0.894902 0.129579
C211  C     C_R   0.559268 0.017713 0.104567 0.129161
C212  C     C_R   0.435147 0.004012 0.891234 0.125916
N13   N     N_R   0.000000 0.500000 0.374520 -0.301339
N14   N     N_R   0.000000 0.500000 0.625480 -0.305280
N15   N     N_R   0.500000 1.000000 0.374520 -0.308497
N16   N     N_R   0.500000 1.000000 0.625480 -0.304969
C213  C     C_R   0.991499 0.529654 0.973476 -0.039888
C214  C     C_R   0.008796 0.470912 0.026440 -0.040052
C215  C     C_R   0.012920 0.472373 0.972879 -0.042229
C216  C     C_R   0.987414 0.528206 0.027051 -0.042208
C217  C     C_R   0.464737 0.999463 0.972967 -0.049353
C218  C     C_R   0.528939 0.003163 0.026132 -0.038574
C219  C     C_R   0.529026 0.996660 0.973572 -0.038310
C220  C     C_R   0.464703 0.999229 0.027183 -0.049360
I1    I     I_    0.918343 0.500063 0.381770 0.031140
I2    I     I_    0.081749 0.500941 0.617915 -0.013797
I3    I     I_    0.081586 0.499306 0.380519 -0.013176
I4    I     I_    0.918442 0.497276 0.619685 0.072379
I5    I     I_    0.418362 0.004057 0.381438 0.005384
I6    I     I_    0.581339 0.005228 0.619828 0.051682
I7    I     I_    0.581123 0.998005 0.378586 0.103557
I8    I     I_    0.418470 0.995424 0.619510 0.001291
F1    F     F_    0.937635 0.499861 0.269967 -0.576337
F2    F     F_    0.062522 0.501929 0.729809 -0.571700
F3    F     F_    0.061735 0.499921 0.268512 -0.564719
F4    F     F_    0.938469 0.498788 0.731693 -0.566267
F5    F     F_    0.439680 0.018319 0.272549 -0.574224
F6    F     F_    0.559064 0.017896 0.729456 -0.566478
F7    F     F_    0.559137 0.982802 0.269874 -0.567303
F8    F     F_    0.440193 0.980253 0.727960 -0.574878
I9    I     I_    0.941923 0.594340 0.140686 0.102339
I10   I     I_    0.058568 0.406278 0.859334 0.097294
I11   I     I_    0.018206 0.391986 0.138143 0.117384
I12   I     I_    0.981948 0.608498 0.861646 0.124160
I13   I     I_    0.386001 0.994046 0.147875 0.126773
I14   I     I_    0.609378 0.970378 0.862695 0.109441
I15   I     I_    0.608698 0.030910 0.136433 0.112651
I16   I     I_    0.386126 0.003345 0.852798 0.123746
F9    F     F_    0.926907 0.337006 0.522461 -0.570918
F10   F     F_    0.127629 0.618197 0.410415 -0.575392
F11   F     F_    0.127910 0.381083 0.586886 -0.574499
F12   F     F_    0.882795 0.625692 0.407485 -0.575506
F13   F     F_    0.382035 0.874585 0.592367 -0.578268
F14   F     F_    0.573986 0.163288 0.485096 -0.570499
F15   F     F_    0.573476 0.841602 0.552815 -0.568040
F16   F     F_    0.377870 0.123838 0.411823 -0.575119
F17   F     F_    0.850121 0.278444 0.384486 -0.505789
F18   F     F_    0.121246 0.750180 0.487007 -0.506279
F19   F     F_    0.119999 0.249913 0.474831 -0.504365
F20   F     F_    0.871761 0.745329 0.556650 -0.502975
F21   F     F_    0.377630 0.751748 0.455763 -0.503691
F22   F     F_    0.651783 0.219985 0.616676 -0.505806
F23   F     F_    0.620545 0.751782 0.448023 -0.503708
F24   F     F_    0.380322 0.250376 0.524024 -0.506096
F25   F     F_    0.990908 0.589356 0.970429 -0.565263
F26   F     F_    0.009348 0.411211 0.029398 -0.565029
F27   F     F_    0.052266 0.425844 0.968746 -0.563771
F28   F     F_    0.948118 0.574774 0.031257 -0.563394
F29   F     F_    0.403359 0.986185 0.961442 -0.554062
F30   F     F_    0.587672 0.024727 0.026366 -0.565811
F31   F     F_    0.588104 0.976116 0.972911 -0.566497
F32   F     F_    0.403087 0.011395 0.039094 -0.553976
F33   F     F_    0.066050 0.582076 0.589803 -0.554373
F34   F     F_    0.881485 0.464023 0.482269 -0.579727
F35   F     F_    0.924247 0.575589 0.590317 -0.552353
F36   F     F_    0.064978 0.417938 0.409517 -0.557256
F37   F     F_    0.618856 0.034424 0.511064 -0.544604
F38   F     F_    0.426357 0.923424 0.409573 -0.560592
F39   F     F_    0.429115 0.077283 0.591696 -0.561044
F40   F     F_    0.616101 0.957664 0.462662 -0.538721
F41   F     F_    0.115808 0.630190 0.588417 -0.547887
F42   F     F_    0.834586 0.412524 0.482980 -0.546139
F43   F     F_    0.874121 0.623015 0.586989 -0.537332
F44   F     F_    0.114310 0.369695 0.409128 -0.544637
F45   F     F_    0.666527 0.085304 0.510639 -0.538145
F46   F     F_    0.377667 0.874397 0.412777 -0.542947
F47   F     F_    0.380272 0.125940 0.591349 -0.549171
F48   F     F_    0.660218 0.904691 0.464591 -0.538343
I17   I     I_    0.265938 0.607816 0.525383 0.100204
I18   I     I_    0.803881 0.327219 0.665721 0.099900
I19   I     I_    0.756399 0.628799 0.383623 0.123797
I20   I     I_    0.264552 0.391088 0.469836 0.099577
I21   I     I_    0.697901 0.171524 0.335131 0.101070
I22   I     I_    0.242089 0.883389 0.573391 0.105681
I23   I     I_    0.235746 0.109236 0.529100 0.102955
I24   I     I_    0.733719 0.861950 0.633851 0.112963
F49   F     F_    0.304188 0.673666 0.522926 -0.558536
F50   F     F_    0.756625 0.270075 0.635913 -0.555496
F51   F     F_    0.715156 0.691897 0.402595 -0.555260
F52   F     F_    0.301958 0.324879 0.467602 -0.556036
F53   F     F_    0.745318 0.228438 0.365174 -0.556260
F54   F     F_    0.202627 0.818744 0.558878 -0.557446
F55   F     F_    0.198330 0.175446 0.531119 -0.555838
F56   F     F_    0.775312 0.799671 0.611209 -0.555788
F57   F     F_    0.805136 0.228443 0.388165 -0.518827
F58   F     F_    0.170168 0.797074 0.487834 -0.522995
F59   F     F_    0.169056 0.203907 0.465803 -0.520335
F60   F     F_    0.823133 0.792051 0.554807 -0.519509
F61   F     F_    0.328729 0.704875 0.453744 -0.521873
F62   F     F_    0.696797 0.269930 0.613066 -0.520013
F63   F     F_    0.666806 0.703094 0.455401 -0.518963
F64   F     F_    0.331286 0.296411 0.532846 -0.521124

loop_
_geom_bond_atom_site_label_1
_geom_bond_atom_site_label_2
_geom_bond_distance
_ccdc_geom_bond_type
C200  C205  1.400830 A    
C81   C137  1.406441 A    
C74   F37   1.357450 S    
C84   C140  1.406741 A    
C72   F35   1.356119 S    
C47   O27   1.349556 S    
C194  F62   1.357185 S    
C141  C157  1.411394 A    
C213  C216  1.434624 A    
C145  C169  1.415013 A    
C214  C215  1.434428 A    
O15   Cu4   1.946047 S    
C124  F24   1.358622 S    
C66   F45   1.356983 S    
Cu4   N15   2.003923 S    
C30   C38   1.421715 A    
O7    Cu2   1.946047 S    
C142  C153  1.425082 A    
C197  C208  1.401195 A    
N11   C99   1.440056 S    
Cu1   N14   2.003923 S    
C45   O25   1.349356 S    
C198  C207  1.401133 A    
C199  C206  1.400786 A    
C145  C150  1.425037 A    
C189  F57   1.357207 S    
C102  C110  1.413825 A    
C86   F10   1.356795 S    
N1    C37   1.368732 A    
C185  F7    1.358360 S    
N9    C57   1.366635 A    
C150  C158  1.420261 A    
C186  F8    1.358341 S    
O9    Cu3   1.947666 S    
C204  C220  1.422371 A    
C50   N10   1.364770 A    
C62   C70   1.393588 A    
C70   F33   1.357372 S    
C53   O34   1.346031 S    
C147  C171  1.414497 A    
C176  I20   2.142329 S    
C91   F15   1.356864 S    
C70   C134  1.410865 A    
C92   F16   1.356718 S    
C67   C75   1.396140 A    
C63   F44   1.357353 S    
C52   N12   1.363089 A    
C22   C182  1.395129 A    
N5    C53   1.367055 A    
C64   C72   1.397139 A    
Cu2   N13   2.003923 S    
C199  F27   1.357974 S    
C156  C164  1.420677 A    
C11   C219  1.411673 A    
C33   C209  1.410121 A    
C12   C220  1.424515 A    
C178  I22   2.142438 S    
C105  C113  1.413274 A    
N3    C41   1.374992 A    
C117  F17   1.358560 S    
Cu3   Cu4   2.668166 S    
N8    C96   1.440891 S    
C10   C25   1.433890 A    
C201  C212  1.402212 A    
C202  C211  1.402172 A    
C56   O35   1.346446 S    
C19   N15   1.382042 A    
C107  C164  1.422239 A    
C122  C194  1.390093 A    
C30   C206  1.418720 A    
C205  I9    2.143071 S    
C87   F11   1.356763 S    
C31   C39   1.423326 A    
N2    C22   1.456151 S    
C13   N13   1.385038 A    
N8    C56   1.368704 A    
O17   C37   1.345621 S    
C109  C117  1.402743 A    
C51   O31   1.349371 S    
C142  C158  1.415605 A    
C209  I13   2.138218 S    
C174  I18   2.141973 S    
O19   C39   1.345258 S    
C211  I15   2.139516 S    
C24   C186  1.405176 A    
C59   C131  1.414904 A    
N9    C97   1.432689 S    
C83   H7    1.083725 S    
C208  I12   2.143325 S    
C57   C129  1.412154 A    
C17   C185  1.407145 A    
C25   C29   1.418216 A    
C169  F53   1.357662 S    
C156  C195  1.417078 A    
N10   C58   1.367382 A    
C153  C161  1.420520 A    
O12   Cu4   1.949851 S    
C108  C132  1.416407 A    
O9    C5    1.287549 A    
C71   F36   1.357477 S    
O6    C4    1.293077 A    
C46   N6    1.362606 A    
C11   C28   1.424196 A    
C204  F32   1.353456 S    
C111  C119  1.402262 A    
C17   I7    2.116041 S    
C112  C120  1.403102 A    
C15   I1    2.126911 S    
C6    C140  1.477007 S    
C13   C181  1.411706 A    
N1    C39   1.368943 A    
C81   C89   1.391630 A    
N6    C54   1.365811 A    
C48   O28   1.349406 S    
C196  F64   1.357344 S    
C123  F23   1.358582 S    
O13   Cu4   1.946362 S    
C15   N13   1.384761 A    
O14   Cu3   1.946357 S    
C183  F1    1.358274 S    
C83   C139  1.402372 A    
C53   C125  1.415451 A    
C56   C128  1.413288 A    
C11   C217  1.424568 A    
C154  C193  1.412038 A    
C59   O40   1.345938 S    
C143  C159  1.417108 A    
C57   O38   1.346006 S    
C141  C165  1.409948 A    
O22   C42   1.345395 S    
C74   C138  1.402423 A    
C34   C42   1.421981 A    
C18   I8    2.130388 S    
C18   N16   1.380831 A    
O13   C7    1.293888 A    
C173  I17   2.142648 S    
C180  I24   2.142236 S    
O14   C8    1.291575 A    
C78   H2    1.081639 S    
C31   C207  1.419535 A    
C32   C208  1.419423 A    
C27   C35   1.413382 A    
C46   C110  1.401762 A    
C207  I11   2.143426 S    
C201  C217  1.422302 A    
C113  C121  1.406095 A    
C87   C95   1.399815 A    
C24   C188  1.405340 A    
C203  C219  1.415229 A    
C187  F5    1.358358 S    
C35   C211  1.417468 A    
C89   F13   1.356991 S    
N7    C55   1.366023 A    
C25   C31   1.419029 A    
C26   C32   1.418987 A    
C105  C129  1.418053 A    
N12   C60   1.365632 A    
C144  C155  1.422467 A    
O10   Cu4   1.947665 S    
N6    C94   1.430603 S    
C122  F22   1.358582 S    
O8    Cu1   1.946052 S    
C21   C181  1.395235 A    
C76   C140  1.411927 A    
C50   C114  1.405896 A    
C107  C115  1.410641 A    
C79   H3    1.081757 S    
C80   H4    1.082704 S    
C103  C111  1.412134 A    
C151  C192  1.416331 A    
C13   I3    2.128033 S    
C71   C135  1.411437 A    
C106  C161  1.423722 A    
C72   C136  1.410287 A    
C78   C86   1.392848 A    
C90   F14   1.356748 S    
C15   C183  1.408988 A    
C121  F21   1.358561 S    
O15   C8    1.289458 A    
O16   C7    1.294846 A    
C197  C213  1.414738 A    
C116  C124  1.402251 A    
C35   C43   1.421690 A    
N2    C40   1.368737 A    
N2    C38   1.368639 A    
C127  C176  1.415558 A    
C106  C114  1.411918 A    
C19   C187  1.406498 A    
C131  C180  1.416801 A    
O24   C44   1.347037 S    
O1    Cu1   1.947666 S    
C129  C178  1.419864 A    
C188  F6    1.358249 S    
C36   C44   1.412004 A    
C155  C163  1.419896 A    
C147  C152  1.422253 A    
O1    C1    1.296644 A    
C170  C178  1.398223 A    
C171  F55   1.357818 S    
C146  C162  1.411153 A    
C123  C195  1.390499 A    
C27   C33   1.405279 A    
C206  I10   2.143077 S    
O4    Cu2   1.949851 S    
O2    Cu2   1.947665 S    
C144  C160  1.415169 A    
C117  C189  1.390279 A    
C16   I2    2.130138 S    
C125  C174  1.415876 A    
C210  I14   2.139483 S    
C28   C34   1.413506 A    
C65   C73   1.394614 A    
C166  C174  1.398290 A    
C61   C93   1.403406 A    
C52   O32   1.349506 S    
C150  C189  1.416797 A    
C58   C130  1.415730 A    
C182  F4    1.357915 S    
C26   C30   1.418312 A    
O5    Cu2   1.946362 S    
N7    C95   1.432720 S    
C9    C213  1.417046 A    
Cu1   Cu2   2.668166 S    
C85   F9    1.356704 S    
C212  I16   2.138175 S    
C73   F38   1.356809 S    
C21   C183  1.393902 A    
C61   C69   1.398058 A    
C146  C170  1.409902 A    
C75   F40   1.353473 S    
O10   C6    1.297172 A    
C23   C187  1.404878 A    
C148  C164  1.414064 A    
C89   C97   1.398960 A    
C79   C87   1.394789 A    
C80   C88   1.394576 A    
C47   C111  1.403114 A    
C65   F46   1.357304 S    
C48   C112  1.406118 A    
C17   N15   1.379012 A    
C29   C37   1.421695 A    
C67   C99   1.404520 A    
C67   F48   1.357358 S    
C8    C138  1.460211 S    
C143  C156  1.425990 A    
C102  C157  1.415590 A    
C65   C97   1.400098 A    
C141  C154  1.418999 A    
C184  F2    1.358229 S    
C107  C131  1.415881 A    
C146  C149  1.418202 A    
C190  F58   1.357829 S    
C170  F54   1.358490 S    
C152  C191  1.416193 A    
C115  C123  1.402558 A    
C9    C215  1.417454 A    
C10   C216  1.417581 A    
C49   O29   1.349599 S    
C149  C157  1.416447 A    
C155  C196  1.416308 A    
C51   N11   1.365828 A    
O20   C40   1.345284 S    
C54   O33   1.345797 S    
C29   C205  1.418679 A    
C69   F34   1.356987 S    
C16   C184  1.408901 A    
C167  C175  1.398015 A    
C103  C127  1.416343 A    
C77   C133  1.400825 A    
C119  C191  1.388711 A    
C7    C137  1.475110 S    
C61   F42   1.356960 S    
C128  C175  1.414572 A    
C118  F18   1.358500 S    
C177  I21   2.142268 S    
C48   N8    1.366517 A    
C47   N7    1.363460 A    
N4    C24   1.467620 S    
C86   C94   1.398290 A    
C1    C135  1.475948 S    
O23   C43   1.345426 S    
C114  C122  1.402744 A    
C148  C151  1.422165 A    
C2    C136  1.481060 S    
N3    C43   1.377218 A    
C68   F47   1.357328 S    
C55   C127  1.412682 A    
C201  F29   1.353470 S    
O16   Cu3   1.946052 S    
N4    C42   1.377194 A    
O4    C1    1.292523 A    
C16   N14   1.385181 A    
C103  C160  1.420811 A    
C106  C130  1.416342 A    
C200  C216  1.414717 A    
C34   C210  1.417521 A    
C143  C167  1.415814 A    
C175  I19   2.141530 S    
N5    C93   1.437188 S    
C110  C118  1.405959 A    
C68   C100  1.398022 A    
C62   F41   1.357245 S    
C51   C115  1.404931 A    
C23   C185  1.404557 A    
C49   C113  1.402219 A    
C82   H6    1.083642 S    
O5    C3    1.291893 A    
C84   C92   1.394790 A    
N11   C59   1.369016 A    
C85   C93   1.402816 A    
C55   O36   1.346175 S    
C50   O30   1.349396 S    
C169  C177  1.398271 A    
C168  C176  1.396892 A    
C88   C96   1.402523 A    
C153  C194  1.416737 A    
C198  C214  1.414649 A    
C45   N5    1.364496 A    
C14   N14   1.384914 A    
C172  F56   1.358030 S    
C108  C163  1.420811 A    
C197  F25   1.357952 S    
C10   C214  1.416951 A    
C22   C184  1.393885 A    
C28   C36   1.405091 A    
O7    C4    1.295243 A    
C165  C173  1.398533 A    
C166  F50   1.357649 S    
C101  C109  1.411956 A    
C181  F3    1.357949 S    
C120  C192  1.389848 A    
C104  C112  1.411756 A    
C203  C210  1.402279 A    
O2    C2    1.295249 A    
C79   C135  1.406230 A    
C80   C136  1.407004 A    
C5    C139  1.465264 S    
C92   C100  1.399128 A    
C202  F30   1.358266 S    
C33   C41   1.412308 A    
C88   F12   1.357102 S    
C91   C99   1.403999 A    
C167  F51   1.357239 S    
C58   O37   1.345973 S    
C63   C71   1.393243 A    
C142  C166  1.415118 A    
C64   F43   1.357420 S    
C90   C98   1.403477 A    
C217  C220  1.442317 A    
C20   C188  1.407577 A    
C218  C219  1.421433 A    
C192  F60   1.357436 S    
C69   C133  1.402629 A    
O21   C41   1.346996 S    
C200  F28   1.357942 S    
C199  C215  1.414663 A    
C60   C132  1.412349 A    
O3    C2    1.296475 A    
C120  F20   1.358535 S    
C62   C94   1.398486 A    
C202  C218  1.415198 A    
C101  C158  1.423535 A    
N4    C44   1.375057 A    
C68   C76   1.393275 A    
Cu3   N16   2.003923 S    
C132  C179  1.415351 A    
O6    Cu1   1.946357 S    
C204  C209  1.402276 A    
O11   Cu3   1.949851 S    
C148  C172  1.414044 A    
C9    C26   1.433864 A    
C52   C116  1.403373 A    
C20   N16   1.380555 A    
C46   O26   1.349589 S    
C32   C40   1.423274 A    
C152  C160  1.419805 A    
C12   C27   1.424219 A    
C121  C193  1.390364 A    
C151  C159  1.419239 A    
O8    C3    1.289593 A    
C198  F26   1.357982 S    
N1    C21   1.456527 S    
C104  C159  1.422444 A    
C172  C180  1.397894 A    
C60   O39   1.346227 S    
N3    C23   1.467594 S    
C144  C168  1.414488 A    
C83   C91   1.396204 A    
C66   C98   1.404038 A    
C14   I4    2.128606 S    
N10   C98   1.438087 S    
C165  F49   1.358378 S    
O12   C5    1.296103 A    
C104  C128  1.414084 A    
C179  I23   2.142306 S    
C36   C212  1.410091 A    
C168  F52   1.357810 S    
C193  F61   1.357823 S    
C3    C133  1.461057 S    
C105  C162  1.415494 A    
C195  F63   1.356910 S    
C102  C126  1.418608 A    
C78   C134  1.406362 A    
C124  C196  1.388852 A    
C4    C134  1.474253 S    
C77   C85   1.396378 A    
O3    Cu1   1.949851 S    
C18   C186  1.405615 A    
C76   F39   1.357208 S    
C130  C177  1.416134 A    
C81   H5    1.082080 S    
C82   C138  1.400347 A    
C63   C95   1.398682 A    
C54   C126  1.412885 A    
C171  C179  1.396711 A    
O11   C6    1.292523 A    
C154  C162  1.416539 A    
C147  C163  1.415238 A    
C64   C96   1.403446 A    
C145  C161  1.415678 A    
C49   N9    1.363718 A    
N12   C100  1.431848 S    
O18   C38   1.345605 S    
C12   C218  1.411839 A    
C118  C190  1.389977 A    
C203  F31   1.358272 S    
C101  C125  1.416199 A    
C14   C182  1.411630 A    
C75   C139  1.402262 A    
C126  C173  1.420378 A    
C19   I5    2.130758 S    
C73   C137  1.410625 A    
C66   C74   1.398081 A    
C191  F59   1.357370 S    
C108  C116  1.412308 A    
C84   H8    1.081807 S    
C77   H1    1.083651 S    
C20   I6    2.127255 S    
C119  F19   1.358627 S    
C149  C190  1.411750 A    
C45   C109  1.405988 A    
C82   C90   1.396282 A    
