data_mof_unit_49745.cif
_audit_creation_date              2012-12-10T18:05:55-0500
_audit_creation_method            fapswitch 2.2
_symmetry_space_group_name_H-M    P1
_symmetry_Int_Tables_number       1
_space_group_crystal_system       triclinic
_cell_length_a                    12.615398
_cell_length_b                    13.128762
_cell_length_c                    14.946523
_cell_angle_alpha                 90.713897
_cell_angle_beta                  102.900878
_cell_angle_gamma                 82.283558
_cell_volume                      2390.77992389

loop_
_atom_site_label
_atom_site_type_symbol
_atom_type_description
_atom_site_fract_x
_atom_site_fract_y
_atom_site_fract_z
_atom_type_partial_charge
C1    C     C_R   0.438785 0.691165 0.485833 0.848175
C2    C     C_R   0.592484 0.462760 0.109454 0.124553
C3    C     C_R   0.307600 0.590115 0.014171 -0.223706
C4    C     C_R   0.308162 0.597352 0.921729 -0.208148
C5    C     C_R   0.402670 0.559049 0.889853 0.104639
C6    C     C_R   0.497111 0.511884 0.953050 0.010789
C7    C     C_R   0.592240 0.470196 0.923501 0.118807
C8    C     C_R   0.686289 0.425948 0.986487 -0.196501
C9    C     C_R   0.686680 0.422900 0.079360 -0.213785
C10   C     C_R   0.405458 0.566200 0.796648 0.155351
C11   C     C_R   0.498238 0.515606 0.768135 -0.070586
C12   C     C_R   0.499347 0.504892 0.672543 0.902364
C13   C     C_R   0.591251 0.471041 0.831061 -0.306588
C14   C     C_R   0.704448 0.063885 0.437903 -0.187822
C15   C     C_R   0.596839 0.199965 0.501348 -0.047133
C16   C     C_R   0.299887 0.838920 0.496861 -0.190920
C17   C     C_R   0.271080 0.944011 0.503455 -0.140682
C18   C     C_R   0.344767 0.010900 0.494113 -0.185369
C19   C     C_R   0.447479 0.973292 0.473744 0.087348
C20   C     C_R   0.467850 0.869032 0.452388 0.068189
C21   C     C_R   0.530600 0.035614 0.474144 0.064603
C22   C     C_R   0.624420 0.998676 0.439003 0.112739
C23   C     C_R   0.561103 0.308713 0.509322 0.858708
C24   C     C_R   0.634562 0.898453 0.404840 -0.036895
C25   C     C_R   0.556431 0.835146 0.411158 -0.241895
C26   C     C_R   0.523624 0.133404 0.511042 -0.240058
C27   C     C_R   0.689454 0.164823 0.467267 -0.208018
C28   C     C_R   0.399630 0.800783 0.474164 -0.094804
C29   C     C_R   0.087945 0.344857 0.373805 -0.309420
C30   C     C_R   0.802114 0.630732 0.608638 0.127543
C31   C     C_R   0.906105 0.660946 0.627489 -0.277856
C32   C     C_R   0.985345 0.612901 0.584552 -0.208901
C33   C     C_R   0.961820 0.532558 0.522891 0.027236
C34   C     C_R   0.499272 0.499089 0.327113 0.869455
C35   C     C_R   0.854081 0.504847 0.504669 0.224858
C36   C     C_R   0.041025 0.478743 0.479064 -0.007091
C37   C     C_R   0.010916 0.399223 0.417136 0.199443
C38   C     C_R   0.904594 0.374143 0.399622 -0.300886
C39   C     C_R   0.827717 0.425920 0.443130 -0.208965
C40   C     C_R   0.150092 0.499588 0.494921 -0.048271
C41   C     C_R   0.194279 0.369025 0.392716 0.009840
C42   C     C_R   0.592249 0.460046 0.201969 -0.253599
C43   C     C_R   0.497343 0.498790 0.231089 -0.060051
C44   C     C_R   0.401835 0.540109 0.169095 -0.260311
C45   C     C_R   0.401428 0.545588 0.076515 0.122601
C46   C     C_R   0.496918 0.506664 0.046253 0.073867
H1    H     H_    0.665383 0.427333 0.251301 0.147953
H2    H     H_    0.776469 0.038760 0.411193 0.147121
H3    H     H_    0.458962 0.161527 0.545266 0.149318
H4    H     H_    0.245695 0.787418 0.512111 0.152151
H5    H     H_    0.318085 0.091629 0.500913 0.133707
H6    H     H_    0.193368 0.973515 0.519711 0.144201
H7    H     H_    0.564904 0.759081 0.382480 0.177032
H8    H     H_    0.255141 0.327379 0.360277 0.138939
H9    H     H_    0.880819 0.313459 0.352538 0.146910
H10   H     H_    0.066304 0.283971 0.326347 0.145127
H11   H     H_    0.329225 0.570639 0.193385 0.156896
H12   H     H_    0.180900 0.557908 0.540829 0.126667
H13   H     H_    0.063805 0.640583 0.601180 0.139693
H14   H     H_    0.925962 0.721901 0.675406 0.151691
H15   H     H_    0.748229 0.402010 0.427683 0.204968
H16   H     H_    0.233856 0.619867 0.036985 0.150856
H17   H     H_    0.233353 0.631728 0.875809 0.162435
H18   H     H_    0.662373 0.434656 0.807501 0.164036
H19   H     H_    0.759452 0.393865 0.963875 0.147082
H20   H     H_    0.760187 0.388993 0.127508 0.146922
H21   H     H_    0.747166 0.216191 0.459349 0.148637
N1    N     N_R   0.222190 0.444670 0.452360 -0.102677
N2    N     N_R   0.776970 0.554790 0.547140 -0.151271
O1    O     O_R   0.366740 0.627160 0.477250 -0.624771
O2    O     O_R   0.544830 0.662520 0.507680 -0.610856
O3    O     O_R   0.410940 0.482340 0.616930 -0.610063
O4    O     O_R   0.589030 0.517700 0.647360 -0.616911
O5    O     O_R   0.455170 0.337480 0.492320 -0.615329
O6    O     O_R   0.633260 0.372840 0.522750 -0.639050
O7    O     O_R   0.410970 0.482300 0.352640 -0.616590
O8    O     O_R   0.589060 0.517660 0.383070 -0.641203
Zn1   Zn    Zn3+2 0.381090 0.476390 0.479680 0.939663
Zn2   Zn    Zn3+2 0.618910 0.523610 0.520320 0.937898
C47   C     C_1   0.725551 0.857080 0.365210 0.156357
N3    N     N_1   0.798371 0.823753 0.333597 -0.203007
C48   C     C_1   0.722460 0.681715 0.655436 0.243962
N4    N     N_1   0.659162 0.723436 0.693561 -0.205193
C49   C     C_3   0.313040 0.630975 0.730143 -0.923658
H22   H     H_    0.334523 0.648528 0.664621 0.246808
H23   H     H_    0.239011 0.591115 0.715623 0.236069
H24   H     H_    0.293594 0.707112 0.760166 0.234637

loop_
_geom_bond_atom_site_label_1
_geom_bond_atom_site_label_2
_ccdc_geom_bond_type
C16   C28   A    
C21   C26   A    
O1    Zn1   S    
C19   C20   A    
C49   H24   S    
O2    Zn2   S    
C7    C8    A    
C45   C46   A    
C2    C46   A    
C4    H17   S    
C1    O2    A    
O7    Zn1   S    
C36   C37   A    
C19   C21   A    
C16   H4    S    
C34   O8    A    
C5    C6    A    
C20   C25   A    
C33   C36   A    
C18   C19   A    
C9    H20   S    
O3    Zn1   S    
C24   C47   S    
C38   H9    S    
C16   C17   A    
C1    C28   S    
C14   C27   A    
C15   C23   S    
C12   O3    A    
C8    H19   S    
C21   C22   A    
C17   H6    S    
C18   H5    S    
C41   N1    A    
O8    Zn2   S    
N1    Zn1   S    
C38   C39   A    
C39   H15   S    
C40   H12   S    
C36   C40   A    
C24   C25   A    
C26   H3    S    
C23   O6    A    
C4    C5    A    
C15   C26   A    
C14   H2    S    
C20   C28   A    
C3    C45   A    
C31   H14   S    
C30   C48   S    
C35   C39   A    
C43   C44   A    
C37   C38   A    
C15   C27   A    
C31   C32   A    
C44   H11   S    
C17   C18   A    
C8    C9    A    
C49   H22   S    
O5    Zn1   S    
C22   C24   A    
N2    Zn2   S    
C42   C43   A    
C23   O5    A    
C3    C4    A    
C30   N2    A    
C44   C45   A    
C3    H16   S    
C6    C46   A    
C29   C41   A    
C34   C43   S    
C25   H7    S    
C47   N3    T    
O4    Zn2   S    
C11   C12   S    
C6    C7    A    
C29   H10   S    
C1    O1    A    
C32   C33   A    
C14   C22   A    
C5    C10   A    
C11   C13   A    
C30   C31   A    
C13   H18   S    
C2    C42   A    
C10   C49   S    
C33   C35   A    
C42   H1    S    
C41   H8    S    
C27   H21   S    
C10   C11   A    
C7    C13   A    
C35   N2    A    
C48   N4    T    
C40   N1    A    
C29   C37   A    
C49   H23   S    
C32   H13   S    
C12   O4    A    
C2    C9    A    
O6    Zn2   S    
C34   O7    A    
