data_mof_unit_66934.cif
_audit_creation_date              2013-03-05T15:57:29-0500
_audit_creation_method            fapswitch 2.2
_symmetry_space_group_name_H-M    P1
_symmetry_Int_Tables_number       1
_space_group_crystal_system       triclinic
_cell_length_a                    17.373407
_cell_length_b                    18.735692
_cell_length_c                    8.475379
_cell_angle_alpha                 90.522179
_cell_angle_beta                  101.895685
_cell_angle_gamma                 90.02175
_cell_volume                      2699.39460814

loop_
_atom_site_label
_atom_site_type_symbol
_atom_site_description
_atom_site_fract_x
_atom_site_fract_y
_atom_site_fract_z
_atom_type_partial_charge
P1    P     P_3+3 0.834140 0.419320 0.003900 0.478695
P2    P     P_3+3 0.834140 0.580680 0.503900 0.507590
P3    P     P_3+3 0.334140 0.919320 0.003900 0.478617
P4    P     P_3+3 0.334140 0.080680 0.503900 0.507579
O1    O     O_2   0.841960 0.394640 0.833410 -0.372305
O2    O     O_2   0.841960 0.605360 0.333410 -0.366307
O3    O     O_2   0.341960 0.894640 0.833410 -0.372254
O4    O     O_2   0.341960 0.105360 0.333410 -0.366314
O5    O     O_3   0.907950 0.463080 0.102990 -0.438785
O6    O     O_3   0.907950 0.536920 0.602990 -0.385198
O7    O     O_3   0.407950 0.963080 0.102990 -0.438835
O8    O     O_3   0.407950 0.036920 0.602990 -0.385191
O9    O     O_3   0.972780 0.329600 0.629720 -0.371023
O10   O     O_3   0.972780 0.670400 0.129720 -0.373717
O11   O     O_3   0.472780 0.829600 0.629720 -0.370910
O12   O     O_3   0.472780 0.170400 0.129720 -0.373759
O13   O     O_2   0.836554 0.279961 0.686697 -0.364509
O14   O     O_2   0.832348 0.711994 0.171460 -0.399451
O15   O     O_2   0.336579 0.779936 0.686782 -0.364512
O16   O     O_2   0.332330 0.211961 0.171419 -0.399412
O17   O     O_3   0.757046 0.483075 0.974973 -0.580223
O18   O     O_3   0.752051 0.523724 0.469536 -0.566338
O19   O     O_3   0.257061 0.983087 0.974939 -0.580350
O20   O     O_3   0.252051 0.023723 0.469565 -0.566369
O21   O     O_3   0.933593 0.182076 0.641009 -0.522224
O22   O     O_3   0.925470 0.816083 0.173986 -0.504629
O23   O     O_3   0.433619 0.682080 0.640933 -0.522125
O24   O     O_3   0.425423 0.316070 0.174040 -0.504648
H1    H     H_    0.050764 0.185443 0.628323 0.112798
H2    H     H_    0.035974 0.822350 0.126221 0.095127
H3    H     H_    0.550563 0.685793 0.626530 0.112319
H4    H     H_    0.535950 0.322323 0.126401 0.095190
C1    C     C_3   0.998533 0.082808 0.550836 -1.014165
C2    C     C_3   0.986316 0.927090 0.142705 -1.050106
C3    C     C_3   0.498752 0.582768 0.551490 -1.013346
C4    C     C_3   0.486330 0.427071 0.142961 -1.050003
H5    H     H_    0.547585 0.566660 0.492560 0.258496
H6    H     H_    0.528685 0.454128 0.081871 0.216436
H7    H     H_    0.047435 0.066711 0.492095 0.258580
H8    H     H_    0.007564 0.932030 0.275005 0.286885
H9    H     H_    0.008428 0.059828 0.673656 0.268495
H10   H     H_    0.928730 0.954286 0.107505 0.285134
H11   H     H_    0.508991 0.560198 0.674696 0.268536
H12   H     H_    0.507562 0.431976 0.275269 0.286866
P5    P     P_3+3 0.165830 0.418670 0.685610 0.440313
P6    P     P_3+3 0.165830 0.581330 0.185610 0.443424
P7    P     P_3+3 0.665830 0.918670 0.685610 0.440358
P8    P     P_3+3 0.665830 0.081330 0.185610 0.443419
P9    P     P_3+3 0.097230 0.262898 0.105918 0.436189
P10   P     P_3+3 0.099302 0.735643 0.613034 0.519220
P11   P     P_3+3 0.597230 0.762898 0.105914 0.436357
P12   P     P_3+3 0.599303 0.235645 0.613033 0.519183
O25   O     O_2   0.157990 0.394030 0.856030 -0.366609
O26   O     O_2   0.157990 0.605970 0.356030 -0.371209
O27   O     O_2   0.657990 0.894030 0.856030 -0.366598
O28   O     O_2   0.657990 0.105970 0.356030 -0.371220
O29   O     O_3   0.027110 0.329490 0.059550 -0.424225
O30   O     O_3   0.027110 0.670510 0.559550 -0.365849
O31   O     O_3   0.527110 0.829490 0.059550 -0.424208
O32   O     O_3   0.527110 0.170510 0.559550 -0.365849
O33   O     O_2   0.154693 0.274465 0.991409 -0.359893
O34   O     O_2   0.154393 0.729950 0.491427 -0.354702
O35   O     O_2   0.654698 0.774474 0.991419 -0.359708
O36   O     O_2   0.654375 0.229970 0.491386 -0.354757
O37   O     O_3   0.248399 0.474633 0.724809 -0.567378
O38   O     O_3   0.248666 0.526274 0.222473 -0.574130
O39   O     O_3   0.748400 0.974631 0.724813 -0.567387
O40   O     O_3   0.748666 0.026274 0.222477 -0.574176
O41   O     O_3   0.046837 0.185230 0.028283 -0.532409
O42   O     O_3   0.052497 0.818181 0.569680 -0.497011
O43   O     O_3   0.546848 0.685227 0.028252 -0.532316
O44   O     O_3   0.552487 0.318181 0.569748 -0.496992
C5    C     C_3   0.970645 0.184941 0.061172 0.534793
C6    C     C_3   0.974503 0.812515 0.591746 0.493428
C7    C     C_3   0.470626 0.684945 0.060993 0.534909
C8    C     C_3   0.474499 0.312497 0.591843 0.493445
H13   H     H_    0.928704 0.207556 0.956986 0.141465
H14   H     H_    0.937874 0.784567 0.486264 0.145253
H15   H     H_    0.428710 0.707443 0.956628 0.141711
H16   H     H_    0.437869 0.284547 0.486364 0.145218
H17   H     H_    0.965654 0.215496 0.170612 -0.001841
H18   H     H_    0.970788 0.783105 0.703381 0.015235
H19   H     H_    0.465542 0.715619 0.170212 -0.002005
H20   H     H_    0.470801 0.283080 0.703479 0.015281
C9    C     C_3   0.947286 0.108538 0.086951 -1.107429
C10   C     C_3   0.940781 0.886769 0.605714 -1.056761
C11   C     C_3   0.447310 0.608563 0.087107 -1.107867
C12   C     C_3   0.440761 0.386741 0.605834 -1.056741
H21   H     H_    0.384300 0.606061 0.094712 0.256198
H22   H     H_    0.375909 0.383380 0.592202 0.247854
H23   H     H_    0.884275 0.106035 0.094555 0.256123
H24   H     H_    0.875928 0.883420 0.592073 0.247867
H25   H     H_    0.957709 0.074144 0.986272 0.277765
H26   H     H_    0.955512 0.922013 0.512052 0.283994
H27   H     H_    0.457748 0.574089 0.986567 0.277776
H28   H     H_    0.455479 0.421990 0.512172 0.283869
C13   C     C_3   0.227889 0.457581 0.260425 0.353133
C14   C     C_3   0.228692 0.543075 0.770538 0.371503
C15   C     C_3   0.727894 0.957577 0.260416 0.353163
C16   C     C_3   0.728697 0.043076 0.770536 0.371346
H29   H     H_    0.173816 0.437841 0.177996 0.139746
H30   H     H_    0.171335 0.562156 0.700714 0.130897
H31   H     H_    0.673814 0.937841 0.178003 0.139740
H32   H     H_    0.671322 0.062145 0.700777 0.130900
C17   C     C_3   0.293407 0.407260 0.240475 -0.869668
C18   C     C_3   0.291324 0.594749 0.739782 -0.877464
C19   C     C_3   0.793407 0.907259 0.240424 -0.869712
C20   C     C_3   0.791301 0.094752 0.739657 -0.877188
H33   H     H_    0.350149 0.428728 0.307183 0.266790
H34   H     H_    0.350534 0.571774 0.782450 0.271521
H35   H     H_    0.850158 0.928732 0.307083 0.266836
H36   H     H_    0.850520 0.071781 0.782240 0.271507
H37   H     H_    0.283871 0.353499 0.286560 0.238013
H38   H     H_    0.287402 0.646293 0.802823 0.215729
H39   H     H_    0.783884 0.853500 0.286533 0.238005
H40   H     H_    0.787399 0.146301 0.802693 0.215759
H41   H     H_    0.295730 0.402833 0.110996 0.265462
H42   H     H_    0.283568 0.604277 0.608669 0.270246
H43   H     H_    0.795708 0.902827 0.110934 0.265443
H44   H     H_    0.783496 0.104268 0.608530 0.270243
Ba1   Ba    Ba6+2 0.000000 0.447380 0.844850 1.550244
Ba2   Ba    Ba6+2 1.000000 0.552620 0.344850 1.548259
Ba3   Ba    Ba6+2 0.500000 0.947380 0.844850 1.550316
Ba4   Ba    Ba6+2 0.500000 0.052620 0.344850 1.548255
C21   C     C_3   0.732079 0.505403 0.813485 0.436998
C22   C     C_3   0.771056 0.456508 0.418517 0.358736
C23   C     C_3   0.232112 0.005400 0.813436 0.437629
C24   C     C_3   0.271038 0.956520 0.418457 0.358954
H45   H     H_    0.692645 0.467314 0.738407 0.157867
H46   H     H_    0.791580 0.461941 0.304157 0.149920
H47   H     H_    0.192960 0.967153 0.738132 0.158046
H48   H     H_    0.291626 0.961982 0.304172 0.149973
H49   H     H_    0.779516 0.511078 0.750476 0.090038
H50   H     H_    0.815525 0.430685 0.513764 0.167257
H51   H     H_    0.279615 0.011375 0.750693 0.089373
H52   H     H_    0.315453 0.930650 0.513732 0.167158
C25   C     C_3   0.688496 0.575902 0.809065 -1.104245
C26   C     C_3   0.696919 0.410849 0.386891 -0.964241
C27   C     C_3   0.188188 0.075737 0.808915 -1.104225
C28   C     C_3   0.196866 0.910902 0.386580 -0.964555
H53   H     H_    0.670057 0.593824 0.682666 0.280588
H54   H     H_    0.649941 0.438490 0.300956 0.250040
H55   H     H_    0.169732 0.093631 0.682494 0.280480
H56   H     H_    0.149948 0.938592 0.300594 0.250032
H57   H     H_    0.726942 0.617546 0.877705 0.249107
H58   H     H_    0.707996 0.358349 0.335020 0.233818
H59   H     H_    0.226465 0.117512 0.877553 0.249205
H60   H     H_    0.207936 0.858410 0.334668 0.233786
H61   H     H_    0.635433 0.569277 0.861141 0.266284
H62   H     H_    0.676523 0.401642 0.500577 0.301837
H63   H     H_    0.135109 0.068884 0.860881 0.266229
H64   H     H_    0.176383 0.901671 0.500163 0.301846
O45   O     O_3   0.092100 0.536880 0.086720 -0.455962
O46   O     O_3   0.092100 0.463120 0.586720 -0.442294
O47   O     O_3   0.592100 0.036880 0.086720 -0.455935
O48   O     O_3   0.592100 0.963120 0.586720 -0.442276
P13   P     P_3+3 0.896237 0.734395 0.080079 0.454317
P14   P     P_3+3 0.896254 0.266069 0.577947 0.481516
P15   P     P_3+3 0.396226 0.234385 0.080081 0.454329
P16   P     P_3+3 0.396251 0.766072 0.577955 0.481469
C29   C     C_3   0.993838 0.163812 0.560099 0.469263
C30   C     C_3   0.977757 0.848897 0.092525 0.433778
C31   C     C_3   0.493625 0.663759 0.559440 0.468591
C32   C     C_3   0.477747 0.348890 0.092682 0.433665
H65   H     H_    0.983342 0.183958 0.434774 0.016686
H66   H     H_    0.955201 0.847095 0.960004 0.032787
H67   H     H_    0.482561 0.683452 0.433753 0.016979
H68   H     H_    0.455212 0.347121 0.960154 0.032808
H69   H     H_    0.442782 0.560684 0.480227 0.269421
H70   H     H_    0.428760 0.454291 0.107757 0.285129
H71   H     H_    0.942525 0.061114 0.478790 0.269617
H72   H     H_    0.028644 0.954145 0.081544 0.216439
H73   H     H_    0.483521 0.588277 0.201044 0.280466
H74   H     H_    0.465407 0.411115 0.724973 0.246558
H75   H     H_    0.983490 0.088160 0.200797 0.280438
H76   H     H_    0.965425 0.911143 0.724854 0.246473
C33   C     C_R   0.143299 0.672016 0.919045 -0.586992
C34   C     C_R   0.152444 0.325556 0.412181 -0.594765
C35   C     C_R   0.643317 0.172013 0.919031 -0.587024
C36   C     C_R   0.652442 0.825558 0.412178 -0.594785
C37   C     C_R   0.855135 0.326125 0.269022 0.184334
C38   C     C_R   0.861015 0.677770 0.764472 0.204966
C39   C     C_R   0.355115 0.826135 0.269037 0.184479
C40   C     C_R   0.361004 0.177762 0.764481 0.204938
C41   C     C_R   0.791235 0.213088 0.297765 -0.228702
C42   C     C_R   0.789114 0.785317 0.799987 -0.235295
C43   C     C_R   0.291202 0.713107 0.297794 -0.228634
C44   C     C_R   0.289105 0.285310 0.799997 -0.235426
C45   C     C_R   0.843637 0.267669 0.363282 0.097547
C46   C     C_R   0.846166 0.734475 0.862374 0.061618
C47   C     C_R   0.343602 0.767689 0.363308 0.097223
C48   C     C_R   0.346157 0.234468 0.862381 0.061748
C49   C     C_R   0.812135 0.334400 0.111371 0.195877
C50   C     C_R   0.813524 0.665213 0.611098 0.185450
C51   C     C_R   0.312118 0.834407 0.111379 0.195871
C52   C     C_R   0.313511 0.165204 0.611112 0.185354
C53   C     C_R   0.754323 0.280096 0.046742 -0.321430
C54   C     C_R   0.751327 0.714988 0.548633 -0.230239
C55   C     C_R   0.254300 0.780106 0.046758 -0.321419
C56   C     C_R   0.251314 0.214978 0.548648 -0.230229
C57   C     C_R   0.244537 0.718186 0.140957 -0.112961
C58   C     C_R   0.242552 0.278423 0.642432 -0.084304
C59   C     C_R   0.744562 0.218173 0.140936 -0.113003
C60   C     C_R   0.742561 0.778430 0.642421 -0.084154
C61   C     C_R   0.185512 0.665177 0.077639 0.322739
C62   C     C_R   0.187240 0.332657 0.575759 0.299563
C63   C     C_R   0.685527 0.165173 0.077628 0.322737
C64   C     C_R   0.687243 0.832660 0.575753 0.299584
C65   C     C_R   0.155110 0.729750 0.824521 0.090081
C66   C     C_R   0.153342 0.262402 0.322349 0.089510
C67   C     C_R   0.655132 0.229746 0.824504 0.090079
C68   C     C_R   0.653344 0.762405 0.322345 0.089403
C69   C     C_R   0.202825 0.786863 0.894650 0.619960
C70   C     C_R   0.198129 0.203575 0.396578 0.519086
C71   C     C_R   0.702841 0.286863 0.894643 0.620058
C72   C     C_R   0.698138 0.703582 0.396568 0.519098
H77   H     H_    0.286185 0.667825 0.372402 0.193017
H78   H     H_    0.282445 0.330337 0.875787 0.195685
H79   H     H_    0.786215 0.167806 0.372369 0.193027
H80   H     H_    0.782451 0.830342 0.875778 0.195641
H81   H     H_    0.100992 0.631435 0.867456 0.208368
H82   H     H_    0.124292 0.371206 0.352109 0.120515
H83   H     H_    0.601002 0.131438 0.867449 0.208367
H84   H     H_    0.624285 0.871207 0.352108 0.120523
O49   O     O_3   0.684165 0.353116 0.831161 -0.599998
C73   C     C_3   0.623361 0.379964 0.903313 -0.212504
H85   H     H_    0.645954 0.392724 0.032721 0.138250
H86   H     H_    0.573847 0.341908 0.889216 0.090590
H87   H     H_    0.598303 0.429300 0.843133 0.162624
O50   O     O_3   0.673053 0.633946 0.355893 -0.649112
C74   C     C_3   0.677557 0.612520 0.197558 0.079279
H88   H     H_    0.699617 0.653713 0.125555 0.143930
H89   H     H_    0.620362 0.589736 0.137350 0.139333
H90   H     H_    0.716382 0.566198 0.198782 0.169273
O51   O     O_3   0.184205 0.853101 0.831054 -0.599981
C75   C     C_3   0.123390 0.880025 0.903072 -0.212591
H91   H     H_    0.145956 0.892822 0.032470 0.138323
H92   H     H_    0.073847 0.842002 0.888995 0.090647
H93   H     H_    0.098393 0.929359 0.842761 0.162767
O52   O     O_3   0.173043 0.133939 0.355889 -0.649114
C76   C     C_3   0.177554 0.112519 0.197553 0.079421
H94   H     H_    0.199614 0.153716 0.125566 0.143843
H95   H     H_    0.120362 0.089736 0.137327 0.139374
H96   H     H_    0.216382 0.066198 0.198780 0.169212
O53   O     O_3   0.901709 0.381424 0.340651 -0.661404
C77   C     C_3   0.979675 0.366805 0.334057 0.173198
H97   H     H_    0.002040 0.401609 0.251451 0.156086
H98   H     H_    0.994322 0.309447 0.326329 -0.023564
H99   H     H_    0.015280 0.385871 0.443239 0.170565
O54   O     O_3   0.925883 0.635718 0.817572 -0.650070
C78   C     C_3   0.905855 0.581585 0.915999 0.172512
H100  H     H_    0.889783 0.533203 0.850657 0.112730
H101  H     H_    0.859855 0.595211 0.985078 0.085962
H102  H     H_    0.959450 0.565400 0.999411 0.213833
O55   O     O_3   0.401701 0.881427 0.340660 -0.661415
C79   C     C_3   0.479664 0.866793 0.334061 0.173217
H103  H     H_    0.502028 0.901590 0.251442 0.156087
H104  H     H_    0.494304 0.809430 0.326366 -0.023667
H105  H     H_    0.515275 0.885871 0.443229 0.170558
O56   O     O_3   0.425876 0.135713 0.817578 -0.650070
C80   C     C_3   0.405853 0.081585 0.916026 0.172378
H106  H     H_    0.389940 0.033163 0.850757 0.112931
H107  H     H_    0.359750 0.095175 0.984893 0.085759
H108  H     H_    0.459429 0.065445 0.999560 0.213858
H109  H     H_    0.221425 0.457516 0.387727 0.104236
H110  H     H_    0.228299 0.542955 0.900882 0.099237
H111  H     H_    0.721442 0.957505 0.387727 0.104229
H112  H     H_    0.728350 0.042968 0.900901 0.099230

loop_
_geom_bond_atom_site_label_1
_geom_bond_atom_site_label_2
_geom_bond_distance
_ccdc_geom_bond_type
P6    C61   1.891289 S    
C15   H31   1.109880 S    
C12   H28   1.106697 S    
P1    O17   1.775407 S    
P5    C62   1.928222 S    
O10   Ba2   2.852409 S    
O1    Ba1   2.900183 S    
C20   H44   1.107599 S    
P3    O19   1.775368 S    
O7    Ba4   2.856143 S    
C2    H10   1.108887 S    
C29   H65   1.109703 S    
P8    O28   1.544955 D    
P4    O4    1.553469 D    
O6    Ba1   2.878713 S    
C54   C72   1.436819 A    
C28   H60   1.106763 S    
C9    H23   1.110778 S    
C54   C60   1.449386 A    
P9    O29   1.734309 S    
C78   H100  1.064544 S    
Ba3   O47   2.856115 S    
C26   H62   1.107910 S    
C6    H14   1.111334 S    
C15   H111  1.107566 S    
C40   O56   1.375302 S    
Ba1   O45   2.856115 S    
P7    C64   1.928214 S    
C18   H38   1.108312 S    
C51   C55   1.451297 A    
P1    O1    1.545640 D    
O15   P16   1.543690 D    
O28   Ba4   2.903635 S    
O38   C13   1.394713 S    
C25   H57   1.106547 S    
C3    H5    1.110159 S    
C39   O55   1.371892 S    
O37   C14   1.399200 S    
P6    O38   1.747680 S    
P3    O3    1.545640 D    
C24   H52   1.110374 S    
C43   H77   1.076855 S    
C80   H106  1.064479 S    
P4    O20   1.754848 S    
C37   O53   1.371895 S    
O18   C22   1.389650 S    
P7    O48   1.614859 S    
C22   H46   1.105076 S    
C79   H105  1.060379 S    
C35   C67   1.391912 A    
C16   H32   1.109947 S    
C12   H74   1.106648 S    
C75   H91   1.109868 S    
P4    Ba4   3.462148 S    
O22   P13   1.744807 S    
O32   Ba4   2.825635 S    
C76   H94   1.104387 S    
C33   C65   1.391891 A    
C36   C68   1.403016 A    
P13   C46   1.870715 S    
C25   H53   1.108228 S    
C10   H26   1.106733 S    
O23   C31   1.405162 S    
C30   H66   1.110880 S    
P5    O37   1.750301 S    
C37   C45   1.399706 A    
P11   C68   1.891653 S    
C10   H24   1.110362 S    
C60   C64   1.436166 A    
P10   C65   1.858041 S    
O21   C29   1.405255 S    
O16   P15   1.538808 D    
C79   H104  1.108951 S    
P9    C66   1.891651 S    
P2    O18   1.754836 S    
P12   C67   1.858041 S    
C39   C51   1.399942 A    
O51   C75   1.415644 S    
C40   C48   1.398620 A    
O41   C5    1.407876 S    
C38   C50   1.406400 A    
P4    O8    1.609734 S    
C3    H11   1.110132 S    
C28   H64   1.107914 S    
C43   C47   1.401219 A    
C53   C71   1.416177 A    
C52   C56   1.446202 A    
C78   H101  1.112192 S    
O25   Ba1   2.904948 S    
C13   C17   1.513382 S    
C28   H56   1.107690 S    
O26   Ba2   2.903635 S    
P7    O27   1.552771 D    
P5    O25   1.552771 D    
P9    O41   1.749576 S    
O53   C77   1.394331 S    
C18   H42   1.107594 S    
O12   P15   1.778412 S    
Ba2   O46   2.878677 S    
C17   H41   1.108769 S    
P2    O2    1.553469 D    
P11   O43   1.749610 S    
C6    H18   1.112492 S    
C24   H48   1.105092 S    
C19   H43   1.108766 S    
C34   C66   1.403016 A    
P3    Ba3   3.465545 S    
C26   H58   1.106771 S    
O49   C73   1.415642 S    
C77   H98   1.108900 S    
Ba3   O48   2.981285 S    
P2    Ba2   3.462148 S    
O31   Ba3   2.851721 S    
H4    C32   1.111659 S    
C11   H73   1.108668 S    
H3    C31   1.111670 S    
C8    H20   1.112490 S    
O30   Ba2   2.825635 S    
C16   C20   1.519871 S    
Ba1   O46   2.981285 S    
O10   P13   1.778403 S    
C42   C60   1.416216 A    
P10   O30   1.738414 S    
C68   C72   1.423879 A    
Ba3   Ba4   4.690211 S    
C2    H72   1.108191 S    
P11   O35   1.545518 D    
C74   H89   1.103024 S    
C26   H54   1.107668 S    
P14   C45   1.860655 S    
C76   H95   1.103021 S    
O20   C24   1.389633 S    
C80   H107  1.112321 S    
O4    Ba4   2.901495 S    
C78   H102  1.091544 S    
C16   H112  1.106169 S    
P5    Ba1   3.464404 S    
O23   P16   1.748126 S    
C40   C52   1.406384 A    
C36   H84   1.065624 S    
C42   H80   1.076333 S    
O22   C30   1.394888 S    
O24   P15   1.744809 S    
P3    C51   1.917493 S    
C8    C12   1.522767 S    
C20   H36   1.106371 S    
C11   H27   1.109011 S    
P2    C50   1.889572 S    
C3    C31   1.521757 S    
C42   C46   1.401150 A    
C1    C29   1.522075 S    
O42   C6    1.409623 S    
P12   O44   1.753773 S    
H1    C29   1.111917 S    
O9    Ba1   2.826301 S    
C72   O50   1.392989 S    
C9    H25   1.109018 S    
C33   C61   1.399222 A    
C35   C63   1.399223 A    
C32   H68   1.110870 S    
C31   H67   1.109336 S    
C19   H39   1.108284 S    
C79   H103  1.089309 S    
P6    O26   1.544955 D    
O5    Ba2   2.856143 S    
C17   H37   1.108279 S    
P1    O5    1.601420 S    
O44   C8    1.409622 S    
P7    O39   1.750294 S    
C1    H7    1.110153 S    
C6    C10   1.522789 S    
O13   P14   1.543686 D    
C5    C9    1.517657 S    
Ba1   Ba2   4.690211 S    
O11   Ba3   2.826301 S    
O39   C16   1.399201 S    
C5    H17   1.104127 S    
C57   C61   1.445177 A    
C27   H59   1.106822 S    
C13   H109  1.107565 S    
C25   H61   1.108483 S    
P8    O47   1.606457 S    
C12   H22   1.110359 S    
C73   H86   1.103737 S    
Ba4   O48   2.878677 S    
C70   O52   1.393001 S    
P12   O36   1.547416 D    
P10   O34   1.547407 D    
Ba2   O45   2.977459 S    
C2    H8    1.108862 S    
C4    H12   1.108839 S    
P11   O31   1.734317 S    
H2    C30   1.111664 S    
O17   C21   1.415003 S    
O55   C79   1.394333 S    
P2    O6    1.609734 S    
O27   Ba3   2.904948 S    
O9    P14   1.767968 S    
C74   H88   1.104412 S    
C37   C49   1.399927 A    
O24   C32   1.394865 S    
C55   C57   1.443818 A    
C18   H34   1.106376 S    
C21   H49   1.076157 S    
P4    C52   1.889558 S    
P6    O45   1.606457 S    
C17   H33   1.104093 S    
C77   H97   1.089327 S    
C22   C26   1.521613 S    
C5    H13   1.109948 S    
C41   H79   1.076852 S    
C55   C69   1.416167 A    
C19   H35   1.104102 S    
C56   C70   1.436818 A    
C34   H82   1.065618 S    
C8    H16   1.111337 S    
P16   C47   1.860675 S    
O3    Ba3   2.900183 S    
O56   C80   1.407278 S    
C2    C30   1.520412 S    
C39   C47   1.399687 A    
P8    Ba4   3.467883 S    
C80   H108  1.091554 S    
C41   C45   1.401226 A    
P7    Ba3   3.464404 S    
C44   H78   1.076338 S    
C73   H87   1.105197 S    
C15   C19   1.513401 S    
C43   C57   1.411152 A    
O19   C23   1.415000 S    
C4    H70   1.108873 S    
C14   C18   1.519873 S    
C75   H93   1.105273 S    
P8    O40   1.747690 S    
C65   C69   1.403583 A    
C44   C48   1.401142 A    
C76   H96   1.098196 S    
C21   C25   1.519642 S    
C20   H40   1.108334 S    
C23   H47   1.093543 S    
C4    H6    1.108185 S    
C67   C71   1.403630 A    
O12   Ba4   2.852409 S    
O40   C15   1.394715 S    
C1    H9    1.110371 S    
O11   P16   1.767976 S    
O14   P13   1.538840 D    
C14   H30   1.109952 S    
C41   C59   1.411157 A    
O43   C7    1.407890 S    
C69   O51   1.369642 S    
P9    O33   1.545520 D    
C7    H19   1.104082 S    
C50   C54   1.446204 A    
O8    Ba3   2.878713 S    
C59   C63   1.445176 A    
C14   H110  1.106162 S    
C49   C53   1.451273 A    
P15   C48   1.870674 S    
C34   C62   1.398662 A    
P8    C63   1.891335 S    
C27   H63   1.108701 S    
O52   C76   1.414783 S    
C9    H75   1.108653 S    
C3    H69   1.111112 S    
C75   H92   1.103732 S    
C53   C59   1.443825 A    
C74   H90   1.098199 S    
C10   H76   1.106656 S    
C71   O49   1.369700 S    
C38   O54   1.375281 S    
O50   C74   1.414775 S    
C23   H51   1.076271 S    
P1    Ba1   3.465545 S    
P10   O42   1.753781 S    
O54   C78   1.407280 S    
P3    O7    1.601420 S    
O29   Ba1   2.851721 S    
C21   H45   1.093230 S    
C22   H50   1.110361 S    
P12   O32   1.738450 S    
C73   H85   1.109869 S    
C58   C62   1.436165 A    
Ba4   O47   2.977459 S    
C35   H83   1.081905 S    
O21   P14   1.748161 S    
C4    C32   1.520411 S    
C11   H21   1.110779 S    
O2    Ba2   2.901495 S    
P1    C49   1.917487 S    
P6    Ba2   3.467883 S    
C44   C58   1.416211 A    
C27   H55   1.108261 S    
P5    O46   1.614859 S    
C38   C46   1.398629 A    
C33   H81   1.081905 S    
C66   C70   1.423887 A    
C36   C64   1.398668 A    
C7    H15   1.109887 S    
C23   C27   1.519880 S    
C56   C58   1.449393 A    
C13   H29   1.109883 S    
C7    C11   1.517678 S    
C24   C28   1.521661 S    
C77   H99   1.060356 S    
C1    H71   1.111354 S    
