data_mof_unit_25684.cif
_audit_creation_date              2013-03-05T16:03:20-0500
_audit_creation_method            fapswitch 2.2
_symmetry_space_group_name_H-M    P1
_symmetry_Int_Tables_number       1
_space_group_crystal_system       triclinic
_cell_length_a                    27.830648
_cell_length_b                    11.817907
_cell_length_c                    10.453913
_cell_angle_alpha                 90.097818
_cell_angle_beta                  90.075965
_cell_angle_gamma                 90.255695
_cell_volume                      3438.24978247

loop_
_atom_site_label
_atom_site_type_symbol
_atom_site_description
_atom_site_fract_x
_atom_site_fract_y
_atom_site_fract_z
_atom_type_partial_charge
O1    O     O_R   0.500000 0.337200 0.605810 -0.567680
O2    O     O_R   0.500000 0.662800 0.394190 -0.568627
O3    O     O_R   0.500000 0.662800 0.605810 -0.568916
O4    O     O_R   0.500000 0.337200 0.394190 -0.568268
C1    C     C_R   0.499977 0.283179 0.499914 0.828282
C2    C     C_R   0.500002 0.716821 0.500085 0.826725
O5    O     O_R   0.430260 0.500000 0.605800 -0.579769
O6    O     O_R   0.569740 0.500000 0.394200 -0.581085
O7    O     O_R   0.569740 0.500000 0.605800 -0.578008
O8    O     O_R   0.430260 0.500000 0.394200 -0.580118
C3    C     C_R   0.407138 0.499626 0.499920 0.854450
C4    C     C_R   0.592892 0.501053 0.499840 0.855197
Cu1   Cu    Cu3+1 0.500000 0.500000 0.625300 0.986974
Cu2   Cu    Cu3+1 0.500000 0.500000 0.374700 0.985762
C5    C     C_R   0.177166 0.399773 0.492248 0.630204
C6    C     C_R   0.822839 0.615469 0.474323 0.634637
C7    C     C_R   0.178478 0.601236 0.501346 0.640049
C8    C     C_R   0.820438 0.414182 0.483636 0.629812
O9    O     O_2   0.202367 0.303242 0.501349 -0.465239
O10   O     O_2   0.798388 0.712990 0.484935 -0.468397
O11   O     O_2   0.204979 0.696624 0.495159 -0.449713
O12   O     O_2   0.793235 0.319909 0.477724 -0.443968
N1    N     N_R   0.201594 0.499904 0.497956 -0.440801
N2    N     N_R   0.797954 0.516304 0.480590 -0.441248
C9    C     C_R   0.278360 0.523997 0.612791 0.448845
C10   C     C_R   0.723449 0.506823 0.605605 0.436679
C11   C     C_R   0.278545 0.473805 0.386057 0.432022
C12   C     C_R   0.719441 0.528057 0.373824 0.419285
C13   C     C_R   0.328856 0.519384 0.613057 -0.326092
C14   C     C_R   0.672920 0.503234 0.610623 -0.321379
C15   C     C_R   0.328899 0.477990 0.386244 -0.315938
C16   C     C_R   0.669431 0.517254 0.379516 -0.306105
C17   C     C_R   0.253305 0.498841 0.499094 0.204991
C18   C     C_R   0.746434 0.518820 0.486752 0.209057
C19   C     C_R   0.101702 0.502842 0.490438 -0.131448
C20   C     C_R   0.897697 0.510615 0.477002 -0.138588
C21   C     C_R   0.126499 0.398152 0.479548 -0.128903
C22   C     C_R   0.873358 0.615192 0.461631 -0.130977
C23   C     C_R   0.127786 0.605533 0.507101 -0.144123
C24   C     C_R   0.871113 0.408248 0.491044 -0.143860
C25   C     C_R   0.099446 0.297494 0.456097 0.388053
C26   C     C_R   0.900606 0.714366 0.434971 0.397252
C27   C     C_R   0.102017 0.707574 0.527972 0.365059
C28   C     C_R   0.896412 0.305489 0.512124 0.379076
C29   C     C_R   0.354253 0.499045 0.499716 -0.144208
C30   C     C_R   0.645794 0.506239 0.497352 -0.142110
H1    H     H_    0.348093 0.462933 0.297897 0.176094
H2    H     H_    0.649115 0.518414 0.291106 0.179886
H3    H     H_    0.348290 0.533415 0.701398 0.174773
H4    H     H_    0.655002 0.498200 0.702289 0.170809
C31   C     C_R   0.973333 0.404741 0.486437 0.016131
C32   C     C_R   0.025906 0.608902 0.488654 0.015115
C33   C     C_R   0.975240 0.610593 0.471672 0.020846
C34   C     C_R   0.024281 0.402929 0.476937 0.023833
C35   C     C_R   0.948774 0.508588 0.478199 0.084627
C36   C     C_R   0.050617 0.504879 0.485443 0.085262
C37   C     C_R   0.946504 0.305729 0.508119 -0.257323
C38   C     C_R   0.052161 0.708030 0.514437 -0.242853
C39   C     C_R   0.950568 0.711021 0.443873 -0.259988
C40   C     C_R   0.049415 0.302038 0.455908 -0.264559
H5    H     H_    0.964446 0.227244 0.528365 0.188106
H6    H     H_    0.033770 0.786650 0.531838 0.186551
H7    H     H_    0.970213 0.787293 0.421934 0.174818
H8    H     H_    0.030117 0.225612 0.433045 0.173243
C41   C     C_1   0.499966 0.161755 0.499792 -0.169923
C42   C     C_1   0.499984 0.838242 0.500204 -0.170740
C43   C     C_1   0.499964 0.059739 0.499893 0.016582
C44   C     C_1   0.499971 0.940258 0.500100 0.016148
N3    N     N_1   0.500000 0.500000 0.186410 -0.144431
N4    N     N_1   0.500000 0.500000 0.813590 -0.144126
C45   C     C_1   0.499992 0.500003 0.072020 0.082860
C46   C     C_1   0.499992 0.500003 0.927980 0.083306
O13   O     O_3   0.253379 0.452844 0.273941 -0.605359
C47   C     C_3   0.262698 0.341924 0.228424 0.114279
H9    H     H_    0.227961 0.295969 0.223695 0.226104
H10   H     H_    0.286810 0.290608 0.291042 0.149449
C48   C     C_3   0.283399 0.347390 0.093173 -0.400461
H11   H     H_    0.256301 0.384963 0.028006 0.247495
H12   H     H_    0.316099 0.401594 0.092627 0.215729
C49   C     C_3   0.296348 0.229958 0.043493 -0.822201
H13   H     H_    0.324393 0.191276 0.104968 0.250571
H14   H     H_    0.310525 0.236930 0.944561 0.263795
H15   H     H_    0.264049 0.174384 0.042148 0.280873
O14   O     O_3   0.742497 0.539166 0.257240 -0.598840
C50   C     C_3   0.733016 0.647925 0.207039 0.056540
H16   H     H_    0.747558 0.714495 0.272038 0.217497
H17   H     H_    0.693779 0.661857 0.193627 0.128422
C51   C     C_3   0.757065 0.659237 0.076524 -0.322800
H18   H     H_    0.796056 0.640748 0.085568 0.249177
H19   H     H_    0.740513 0.597127 0.009725 0.223397
C52   C     C_3   0.750742 0.777714 0.021346 -0.787349
H20   H     H_    0.711966 0.797136 0.009548 0.240739
H21   H     H_    0.768339 0.782443 0.926200 0.277442
H22   H     H_    0.767486 0.841903 0.085285 0.290278
O15   O     O_3   0.252433 0.543483 0.724127 -0.601948
C53   C     C_3   0.267901 0.643548 0.787458 0.109562
H23   H     H_    0.236108 0.698271 0.800925 0.211617
H24   H     H_    0.294496 0.695428 0.732900 0.146948
C54   C     C_3   0.287578 0.614315 0.919969 -0.396703
H25   H     H_    0.258044 0.578647 0.978973 0.249518
H26   H     H_    0.316317 0.549884 0.911403 0.216728
C55   C     C_3   0.307859 0.718563 0.987674 -0.836654
H27   H     H_    0.338397 0.754425 0.932460 0.250118
H28   H     H_    0.320973 0.694448 0.084201 0.266388
H29   H     H_    0.279570 0.783891 0.998531 0.275239
O16   O     O_3   0.751378 0.508054 0.715515 -0.600100
C56   C     C_3   0.742771 0.410228 0.789661 0.053636
H30   H     H_    0.736575 0.333554 0.729064 0.188177
H31   H     H_    0.711002 0.424191 0.852086 0.139147
C57   C     C_3   0.786790 0.388595 0.873665 -0.322146
H32   H     H_    0.818471 0.372781 0.811809 0.235114
H33   H     H_    0.794930 0.464525 0.932412 0.225557
C58   C     C_3   0.778885 0.287718 0.962201 -0.816261
H34   H     H_    0.748360 0.304331 0.027907 0.267291
H35   H     H_    0.811735 0.273510 0.020310 0.273147
H36   H     H_    0.771215 0.210071 0.905572 0.269687
S1    S     S_3+6 0.124923 0.163114 0.421879 0.109117
O17   O     O_2   0.162030 0.174153 0.318483 -0.238466
O18   O     O_2   0.148317 0.118263 0.541013 -0.154247
O19   O     O_3   0.083024 0.070020 0.371117 -0.480917
H37   H     H_    0.065401 0.046508 0.448892 0.364115
S2    S     S_3+6 0.875057 0.842424 0.378794 0.098350
O20   O     O_2   0.838536 0.816961 0.276631 -0.256554
O21   O     O_2   0.850707 0.901243 0.488286 -0.149134
O22   O     O_3   0.917142 0.928773 0.316148 -0.485982
H38   H     H_    0.932007 0.967972 0.390115 0.370316
S3    S     S_3+6 0.128955 0.835681 0.581751 0.094620
O23   O     O_2   0.154592 0.890115 0.471299 -0.119910
O24   O     O_2   0.091783 0.916074 0.632227 -0.289609
O25   O     O_3   0.168543 0.809799 0.699377 -0.482092
H39   H     H_    0.149795 0.769172 0.765562 0.335459
S4    S     S_3+6 0.868536 0.173569 0.547829 0.078526
O26   O     O_2   0.844073 0.130174 0.429153 -0.137981
O27   O     O_2   0.905050 0.088006 0.590344 -0.308100
O28   O     O_3   0.827602 0.188394 0.664740 -0.486853
H40   H     H_    0.846316 0.185405 0.745311 0.348616

loop_
_geom_bond_atom_site_label_1
_geom_bond_atom_site_label_2
_geom_bond_distance
_ccdc_geom_bond_type
C38   H6    1.078085 S    
O5    Cu1   1.951316 S    
C42   C44   1.205621 T    
C12   O14   1.384283 S    
C16   H2    1.082959 S    
O13   C47   1.418875 S    
O15   C53   1.419195 S    
O3    C2    1.277313 A    
C10   O16   1.386379 S    
C33   C39   1.404447 A    
O28   H40   0.990475 S    
C13   H3    1.081766 S    
C48   H11   1.110256 S    
C11   C17   1.407191 A    
O5    C3    1.279572 A    
C7    N1    1.362358 A    
C47   H10   1.118229 S    
O1    C1    1.276976 A    
C19   C21   1.423823 A    
C22   C26   1.421325 A    
S1    O18   1.503009 D    
C48   C49   1.525807 S    
O16   C56   1.412740 S    
C53   C54   1.529545 S    
C55   H29   1.110920 S    
C7    C23   1.413266 A    
C37   H5    1.076540 S    
N3    C45   1.195820 T    
O7    Cu1   1.951851 S    
C57   H32   1.110423 S    
C5    C21   1.416176 A    
C20   C24   1.423151 A    
C8    C24   1.414396 A    
C27   C38   1.394548 A    
C5    O9    1.345269 S    
C10   C18   1.405338 A    
S4    O26   1.502716 D    
C41   C43   1.205625 T    
C47   C48   1.528832 S    
C53   H24   1.116828 S    
C56   H30   1.117343 S    
C31   C37   1.404131 A    
O3    Cu1   1.935059 S    
C6    O10   1.345497 S    
C58   H36   1.110907 S    
C33   C35   1.411701 A    
C14   H4    1.082453 S    
C12   C18   1.403132 A    
C6    N2    1.360322 A    
C15   H1    1.082403 S    
Cu1   Cu2   2.619751 S    
O4    Cu2   1.935060 S    
C56   H31   1.112326 S    
O2    C2    1.276967 A    
C49   H15   1.110956 S    
C48   H12   1.110602 S    
C9    C13   1.406641 A    
C34   C36   1.410076 A    
C47   H9    1.107736 S    
C50   H17   1.113760 S    
C11   C15   1.402044 A    
C43   C44   1.412015 S    
C12   C16   1.398418 A    
O14   C50   1.414927 S    
C1    C41   1.434968 S    
O8    Cu2   1.951854 S    
S1    O19   1.684231 S    
C27   S3    1.776521 S    
C52   H20   1.111041 S    
C49   H13   1.110878 S    
C34   C40   1.402224 A    
N1    C17   1.439295 S    
C50   H16   1.113122 S    
N2    C18   1.435785 S    
C13   C29   1.401419 A    
C19   C23   1.421709 A    
S3    O24   1.503293 D    
C52   H21   1.110642 S    
C54   H25   1.110354 S    
C51   C52   1.526040 S    
C2    C42   1.434952 S    
C28   C37   1.394762 A    
O6    C4    1.277855 A    
C53   H23   1.107301 S    
C55   H28   1.110679 S    
C57   C58   1.525852 S    
C32   C38   1.403469 A    
C4    C30   1.473579 S    
C54   H26   1.110353 S    
C51   H19   1.110405 S    
C9    O15   1.389657 S    
C15   C29   1.400764 A    
O22   H38   0.989882 S    
C56   C57   1.529084 S    
C8    N2    1.362325 A    
C3    C29   1.471827 S    
O1    Cu1   1.934368 S    
S2    O21   1.502040 D    
S3    O23   1.502241 D    
C32   C33   1.421179 A    
C26   S2    1.775476 S    
C58   H34   1.111157 S    
C50   C51   1.526318 S    
O6    Cu2   1.951314 S    
C19   C36   1.422922 A    
C8    O12   1.345494 S    
C16   C30   1.403238 A    
C14   C30   1.404050 A    
C25   C40   1.393674 A    
O4    C1    1.277307 A    
C26   C39   1.394206 A    
C23   C27   1.422470 A    
C10   C14   1.407747 A    
C28   S4    1.778680 S    
C39   H7    1.077332 S    
C40   H8    1.075144 S    
C31   C34   1.421783 A    
S2    O22   1.683960 S    
C20   C22   1.421243 A    
O25   H39   0.990613 S    
S3    O25   1.679323 S    
C45   C46   1.505784 S    
C20   C35   1.421840 A    
S1    O17   1.501355 D    
C52   H22   1.110693 S    
S4    O28   1.681364 S    
C5    N1    1.363273 A    
Cu2   N3    1.968367 S    
C49   H14   1.110493 S    
C31   C35   1.410115 A    
C21   C25   1.425679 A    
C55   H27   1.110864 S    
O2    Cu2   1.934368 S    
O7    C4    1.282253 A    
C57   H33   1.108885 S    
O8    C3    1.279616 A    
C24   C28   1.423814 A    
C54   C55   1.525485 S    
C51   H18   1.111811 S    
S4    O27   1.504074 D    
Cu1   N4    1.968368 S    
C6    C22   1.412410 A    
O19   H37   0.989660 S    
N4    C46   1.195823 T    
C25   S1    1.778070 S    
S2    O20   1.502502 D    
C11   O13   1.385953 S    
C32   C36   1.411685 A    
C9    C17   1.407868 A    
C58   H35   1.110521 S    
C7    O11   1.346075 S    
