data_mof_unit_8341.cif
_audit_creation_date              2012-12-10T19:45:48-0500
_audit_creation_method            fapswitch 2.2
_symmetry_space_group_name_H-M    P1
_symmetry_Int_Tables_number       1
_space_group_crystal_system       triclinic
_cell_length_a                    10.843883
_cell_length_b                    14.669562
_cell_length_c                    14.721766
_cell_angle_alpha                 65.298888
_cell_angle_beta                  102.891111
_cell_angle_gamma                 102.812051
_cell_volume                      2052.00392281

loop_
_atom_site_label
_atom_site_type_symbol
_atom_type_description
_atom_site_fract_x
_atom_site_fract_y
_atom_site_fract_z
_atom_type_partial_charge
C1    C     C_R   0.476841 0.119654 0.312439 0.818596
C2    C     C_R   0.521561 0.880293 0.687601 0.814027
C3    C     C_R   0.871135 0.998296 0.499817 -0.177204
C4    C     C_R   0.128840 0.002096 0.499835 -0.179039
C5    C     C_R   0.906939 0.972809 0.427707 -0.151273
C6    C     C_R   0.092979 0.028866 0.571075 -0.153459
C7    C     C_R   0.454516 0.187105 0.205522 -0.015857
C8    C     C_R   0.530643 0.812644 0.794848 -0.033940
C9    C     C_R   0.374303 0.215480 0.030363 -0.141264
C10   C     C_R   0.575430 0.784375 0.972074 -0.131611
C11   C     C_R   0.398367 0.149050 0.130716 -0.111781
C12   C     C_R   0.570491 0.850582 0.871108 -0.103844
C13   C     C_R   0.484633 0.291819 0.179275 -0.237680
C14   C     C_R   0.497224 0.708123 0.820498 -0.240873
C15   C     C_R   0.455138 0.360545 0.079611 0.081522
C16   C     C_R   0.498328 0.639770 0.921590 0.090139
C17   C     C_R   0.402841 0.320672 0.004210 0.156733
C18   C     C_R   0.539570 0.679618 0.997908 0.148400
C19   C     C_R   0.478796 0.467425 0.052762 0.071430
C20   C     C_R   0.462538 0.533166 0.948822 0.072107
C21   C     C_R   0.409593 0.490117 0.875926 -0.220924
C22   C     C_R   0.515479 0.510642 0.126469 -0.224653
C23   C     C_R   0.262657 0.000593 0.500263 0.888588
C24   C     C_R   0.737326 0.999465 0.499720 0.894103
C25   C     C_R   0.379399 0.385993 0.903551 -0.187225
C26   C     C_R   0.544917 0.614719 0.099224 -0.194484
C27   C     C_R   0.705113 0.281759 0.673087 -0.275950
C28   C     C_R   0.294930 0.718292 0.326829 -0.262750
C29   C     C_R   0.674852 0.201095 0.641911 0.094685
C30   C     C_R   0.324950 0.798826 0.358211 0.100087
C31   C     C_R   0.521640 0.286380 0.507341 0.012083
C32   C     C_R   0.478657 0.713761 0.492410 0.009296
C33   C     C_R   0.548514 0.371610 0.534717 -0.033562
C34   C     C_R   0.452057 0.628676 0.464808 -0.036858
C35   C     C_R   0.641794 0.366835 0.620334 0.176837
C36   C     C_R   0.358706 0.633430 0.379234 0.169355
C37   C     C_R   0.485176 0.459646 0.482041 0.065937
C38   C     C_R   0.515663 0.540776 0.517278 0.066286
C39   C     C_R   0.608337 0.531112 0.603834 -0.240924
C40   C     C_R   0.392724 0.469420 0.395338 -0.250828
C41   C     C_R   0.670265 0.446186 0.653672 -0.161321
C42   C     C_R   0.330669 0.554293 0.345588 -0.173896
C43   C     C_R   0.335189 0.037125 0.801073 0.334026
C44   C     C_R   0.656984 0.982227 0.196658 0.342008
C45   C     C_R   0.248778 0.997649 0.735181 0.389769
C46   C     C_R   0.750844 0.015466 0.263467 0.390423
C47   C     C_R   0.190588 0.065071 0.641939 -0.050095
C48   C     C_R   0.808554 0.942973 0.353021 -0.057354
C49   C     C_R   0.220991 0.169966 0.616363 -0.247986
C50   C     C_R   0.772257 0.839333 0.373133 -0.252455
C51   C     C_R   0.310295 0.208664 0.680130 -0.191147
C52   C     C_R   0.676200 0.806815 0.308374 -0.187257
C53   C     C_R   0.370704 0.143818 0.771055 0.275873
C54   C     C_R   0.614569 0.876749 0.222155 0.274847
C55   C     C_R   0.962719 0.024182 0.572611 0.375026
C56   C     C_R   0.037171 0.975849 0.427152 0.374485
Cu1   Cu    Cu3+1 0.466270 0.918260 0.475690 0.965566
Cu2   Cu    Cu3+1 0.533730 0.081740 0.524310 0.967073
H1    H     H_    0.386585 0.534594 0.796558 0.145564
H2    H     H_    0.519251 0.466234 0.206403 0.142793
H3    H     H_    0.551180 0.718477 0.553989 0.127316
H4    H     H_    0.449150 0.281698 0.445724 0.126376
H5    H     H_    0.277432 0.865137 0.316805 0.151166
H6    H     H_    0.722159 0.134690 0.683471 0.153627
H7    H     H_    0.776564 0.277158 0.738782 0.144398
H8    H     H_    0.223418 0.722890 0.261170 0.145798
H9    H     H_    0.635264 0.587945 0.635722 0.135516
H10   H     H_    0.366085 0.412714 0.363281 0.134701
H11   H     H_    0.176246 0.222118 0.545871 0.178620
H12   H     H_    0.816415 0.783369 0.440821 0.178786
H13   H     H_    0.334566 0.290007 0.657805 0.183061
H14   H     H_    0.646777 0.726340 0.326902 0.179239
H15   H     H_    0.338515 0.356369 0.845328 0.165467
H16   H     H_    0.573218 0.644537 0.158140 0.172853
H17   H     H_    0.472913 0.681806 0.759841 0.148584
H18   H     H_    0.533571 0.317965 0.237963 0.151946
H19   H     H_    0.598186 0.931182 0.852823 0.158600
H20   H     H_    0.373380 0.068178 0.149627 0.150301
N1    N     N_R   0.584450 0.204570 0.560790 -0.185045
N2    N     N_R   0.415550 0.795430 0.439210 -0.185261
O1    O     O_R   0.455540 0.022090 0.338120 -0.592864
O2    O     O_R   0.544460 0.977910 0.661880 -0.591701
O3    O     O_R   0.512510 0.160150 0.379180 -0.604624
O4    O     O_R   0.487490 0.839850 0.620820 -0.604403
O5    O     O_R   0.291160 0.930970 0.479480 -0.536071
O6    O     O_R   0.708840 0.069030 0.520520 -0.534361
O7    O     O_R   0.348130 0.069020 0.520540 -0.594961
O8    O     O_R   0.651870 0.930980 0.479460 -0.594964
O9    O     O_3   0.464529 0.187367 0.827123 -0.736285
H21   H     H_    0.523603 0.137850 0.870077 0.332814
O10   O     O_3   0.512275 0.839291 0.166623 -0.746740
H22   H     H_    0.455344 0.891700 0.129434 0.330168
H23   H     H_    0.332460 0.184618 0.973252 0.157051
H24   H     H_    0.608011 0.815112 0.030013 0.175223
H25   H     H_    0.740853 0.442321 0.719719 0.150219
H26   H     H_    0.260248 0.558245 0.279432 0.152854
O11   O     O_3   0.379253 0.969345 0.895201 -0.706390
H27   H     H_    0.396691 0.003123 0.943467 0.303832
O12   O     O_3   0.611844 0.054811 0.106235 -0.702095
H28   H     H_    0.585009 0.024140 0.055199 0.305524
O13   O     O_3   0.221092 0.893303 0.766755 -0.687057
H29   H     H_    0.160531 0.874786 0.714030 0.313465
O14   O     O_3   0.784660 0.118969 0.236871 -0.689000
H30   H     H_    0.853699 0.133071 0.287862 0.315684
O15   O     O_3   0.920478 0.042525 0.644907 -0.735015
H31   H     H_    0.990139 0.043524 0.700816 0.329864
O16   O     O_3   0.079596 0.957202 0.355111 -0.736680
H32   H     H_    0.008908 0.950978 0.301644 0.330286

loop_
_geom_bond_atom_site_label_1
_geom_bond_atom_site_label_2
_ccdc_geom_bond_type
O13   H29   S    
C27   C29   A    
C5    C56   A    
C36   C42   A    
C19   C20   A    
C18   C26   A    
C6    C55   A    
Cu2   O7    S    
O11   H27   S    
C39   C41   A    
C15   C19   A    
C55   O15   S    
C42   H26   S    
C32   H3    S    
C21   H1    S    
C37   C40   A    
Cu2   O2    S    
C22   H2    S    
C38   C39   A    
C44   O12   S    
C10   H24   S    
C1    O1    A    
C15   C17   A    
C26   H16   S    
C1    C7    S    
C3    C55   A    
C43   C53   A    
C44   C46   A    
C49   C51   A    
C50   C52   A    
O16   H32   S    
C31   C33   A    
C25   H15   S    
C8    C12   A    
C30   N2    A    
C40   C42   A    
C29   H6    S    
C23   O7    A    
C30   H5    S    
C4    C56   A    
Cu1   N2    S    
C3    C24   S    
C51   H13   S    
Cu2   O6    S    
C52   C54   A    
C7    C11   A    
C45   C47   A    
C5    C48   S    
C46   C48   A    
C6    C47   S    
C19   C22   A    
C4    C6    A    
O10   H22   S    
C12   H19   S    
C45   O13   S    
C27   C35   A    
C33   C37   A    
C51   C53   A    
C32   C34   A    
C28   H8    S    
C56   O16   S    
C37   C38   A    
C27   H7    S    
C11   H20   S    
C32   N2    A    
C43   C45   A    
O12   H28   S    
C29   N1    A    
C13   H18   S    
C16   C20   A    
C52   H14   S    
C2    O4    A    
Cu1   O4    S    
C48   C50   A    
C24   O8    A    
C31   H4    S    
C10   C12   A    
Cu2   N1    S    
C9    C17   A    
C9    C11   A    
C53   O9    S    
C14   C16   A    
C2    O2    A    
C1    O3    A    
C9    H23   S    
O15   H31   S    
C4    C23   S    
C21   C25   A    
C8    C14   A    
C34   C38   A    
C39   H9    S    
C2    C8    S    
C43   O11   S    
C3    C5    A    
C31   N1    A    
C47   C49   A    
C46   O14   S    
Cu1   O8    S    
C17   C25   A    
C14   H17   S    
C13   C15   A    
C50   H12   S    
C23   O5    A    
C54   O10   S    
Cu2   O3    S    
Cu1   Cu2   S    
C41   H25   S    
C10   C18   A    
C28   C30   A    
C33   C35   A    
Cu1   O5    S    
C34   C36   A    
C35   C41   A    
Cu1   O1    S    
C22   C26   A    
C44   C54   A    
C7    C13   A    
C20   C21   A    
C28   C36   A    
C16   C18   A    
C40   H10   S    
O14   H30   S    
C49   H11   S    
O9    H21   S    
C24   O6    A    
