data_mof_unit_37579.cif
_audit_creation_date              2013-03-05T16:12:52-0500
_audit_creation_method            fapswitch 2.2
_symmetry_space_group_name_H-M    P1
_symmetry_Int_Tables_number       1
_space_group_crystal_system       triclinic
_cell_length_a                    10.745533
_cell_length_b                    9.815618
_cell_length_c                    27.706075
_cell_angle_alpha                 90.682331
_cell_angle_beta                  89.604036
_cell_angle_gamma                 90.004091
_cell_volume                      2921.99486196

loop_
_atom_site_label
_atom_site_type_symbol
_atom_site_description
_atom_site_fract_x
_atom_site_fract_y
_atom_site_fract_z
_atom_type_partial_charge
O1    O     O_R   0.316770 0.614620 0.500000 -0.628492
O2    O     O_R   0.683230 0.385380 0.500000 -0.627302
O3    O     O_R   0.683230 0.614620 0.500000 -0.626975
O4    O     O_R   0.316770 0.385380 0.500000 -0.627662
C1    C     C_R   0.259750 0.499998 0.499991 0.878493
C2    C     C_R   0.740250 0.500001 0.500011 0.880924
O5    O     O_R   0.500030 0.614650 0.428760 -0.620525
O6    O     O_R   0.499970 0.385350 0.571240 -0.619792
O7    O     O_R   0.499970 0.614650 0.571240 -0.623181
O8    O     O_R   0.500030 0.385350 0.428760 -0.621564
C3    C     C_R   0.500166 0.499074 0.405915 0.907942
C4    C     C_R   0.498659 0.500872 0.594082 0.907313
Zn1   Zn    Zn3+2 0.500000 0.653120 0.500000 0.964628
Zn2   Zn    Zn3+2 0.500000 0.346880 0.500000 0.966741
C5    C     C_R   0.374378 0.514391 0.178978 0.614556
C6    C     C_R   0.577803 0.501447 0.821880 0.608443
O9    O     O_2   0.271066 0.538937 0.205708 -0.510217
O10   O     O_2   0.682992 0.476523 0.796308 -0.505432
N1    N     N_R   0.484392 0.487684 0.201152 -0.348602
N2    N     N_R   0.468066 0.519923 0.798549 -0.345635
C7    C     C_R   0.590426 0.458621 0.175634 0.623442
C8    C     C_R   0.360735 0.552881 0.822649 0.615392
C9    C     C_R   0.491887 0.364200 0.278130 0.364090
C10   C     C_R   0.471190 0.383795 0.722925 0.364634
C11   C     C_R   0.498087 0.370021 0.328463 -0.264678
C12   C     C_R   0.483281 0.381779 0.672573 -0.263505
C13   C     C_R   0.494328 0.617231 0.327201 -0.180400
C14   C     C_R   0.485675 0.629005 0.671505 -0.179784
C15   C     C_R   0.489414 0.612957 0.277183 -0.111369
C16   C     C_R   0.474578 0.632498 0.721327 -0.114746
C17   C     C_R   0.487899 0.487709 0.252574 0.169766
C18   C     C_R   0.467762 0.511340 0.747152 0.174346
C19   C     C_R   0.476858 0.489643 0.101336 -0.086092
C20   C     C_R   0.470553 0.530821 0.898373 -0.078758
C21   C     C_R   0.368567 0.515702 0.128663 -0.070736
C22   C     C_R   0.581539 0.508852 0.872101 -0.069616
C23   C     C_R   0.255267 0.533038 0.105429 -0.126297
C24   C     C_R   0.694942 0.503243 0.896137 -0.132905
C25   C     C_R   0.587553 0.451349 0.124907 -0.131825
C26   C     C_R   0.358565 0.557527 0.873588 -0.143915
C27   C     C_R   0.498283 0.495779 0.353150 -0.109028
C28   C     C_R   0.490505 0.503721 0.646788 -0.108910
H1    H     H_    0.494549 0.715382 0.345485 0.182642
H2    H     H_    0.490835 0.724539 0.652425 0.182447
H3    H     H_    0.486777 0.707239 0.257297 0.187192
H4    H     H_    0.473310 0.729781 0.740200 0.186665
H5    H     H_    0.169726 0.538931 0.126310 0.240034
H6    H     H_    0.781461 0.502048 0.875812 0.249408
C29   C     C_R   0.360789 0.547250 0.975994 0.018260
C30   C     C_R   0.584950 0.480599 0.023685 0.024037
C31   C     C_R   0.586697 0.505448 0.973495 -0.029967
C32   C     C_R   0.359482 0.527482 0.026848 -0.031395
C33   C     C_R   0.472421 0.526802 0.949441 0.067846
C34   C     C_R   0.473816 0.500406 0.050470 0.066646
C35   C     C_R   0.256290 0.595611 0.950910 -0.161290
C36   C     C_R   0.687951 0.422497 0.047082 -0.159722
C37   C     C_R   0.251494 0.594121 0.900656 0.337326
C38   C     C_R   0.690119 0.406146 0.096975 0.333978
O11   O     O_2   0.257770 0.580588 0.797054 -0.465941
O12   O     O_2   0.698148 0.440969 0.199479 -0.467739
C39   C     C_R   0.248170 0.527422 0.055283 0.251177
C40   C     C_R   0.699152 0.512842 0.946241 0.241847
H7    H     H_    0.485496 0.284954 0.653431 0.200512
H8    H     H_    0.500270 0.275853 0.348420 0.199727
H9    H     H_    0.176260 0.636739 0.969624 0.221044
H10   H     H_    0.765157 0.380987 0.026497 0.213049
C41   C     C_R   0.063870 0.376329 0.495240 -0.172433
C42   C     C_R   0.936135 0.623667 0.504765 -0.172569
C43   C     C_R   0.936291 0.376324 0.495276 -0.172023
C44   C     C_R   0.063713 0.623672 0.504729 -0.173626
H11   H     H_    0.112355 0.279984 0.491356 0.159216
H12   H     H_    0.887650 0.720013 0.508648 0.159371
H13   H     H_    0.887935 0.279970 0.491429 0.161823
H14   H     H_    0.112069 0.720026 0.508576 0.161408
C45   C     C_R   0.872673 0.499996 0.500025 -0.019215
C46   C     C_R   0.127330 0.500001 0.499979 -0.018726
C47   C     C_R   0.576982 0.073040 0.529955 -0.058912
C48   C     C_R   0.423017 0.926961 0.470044 -0.060526
C49   C     C_R   0.423031 0.071041 0.470039 -0.061997
C50   C     C_R   0.576974 0.928961 0.529958 -0.064670
H15   H     H_    0.638454 0.128616 0.553869 0.138055
H16   H     H_    0.361545 0.871384 0.446130 0.135352
H17   H     H_    0.361592 0.125029 0.446119 0.133748
H18   H     H_    0.638427 0.874975 0.553873 0.133787
N3    N     N_R   0.500000 0.857200 0.500000 -0.086398
N4    N     N_R   0.500000 0.142800 0.500000 -0.086676
N5    N     N_R   0.463147 0.257088 0.748621 0.225189
O13   O     O_R   0.499433 0.143835 0.728051 -0.369298
O14   O     O_R   0.411656 0.251734 0.791196 -0.343522
N6    N     N_R   0.488674 0.233531 0.253825 0.228071
O15   O     O_R   0.532046 0.125860 0.274918 -0.360235
O16   O     O_R   0.433573 0.218559 0.212432 -0.345612
N7    N     N_R   0.136312 0.629857 0.878321 0.261775
O17   O     O_R   0.085780 0.747587 0.887967 -0.305426
O18   O     O_R   0.069020 0.534890 0.858278 -0.258871
N8    N     N_R   0.791521 0.332060 0.117731 0.252148
O19   O     O_R   0.904539 0.350740 0.102059 -0.280570
O20   O     O_R   0.768365 0.227360 0.144750 -0.274697
N9    N     N_R   0.128420 0.499195 0.035116 0.215488
O21   O     O_R   0.113784 0.392910 0.007202 -0.289377
O22   O     O_R   0.030843 0.564063 0.051266 -0.281418
N10   N     N_R   0.815013 0.551816 0.967924 0.220363
O23   O     O_R   0.919705 0.508434 0.949602 -0.283831
O24   O     O_R   0.816846 0.649823 0.999966 -0.295719

loop_
_geom_bond_atom_site_label_1
_geom_bond_atom_site_label_2
_geom_bond_distance
_ccdc_geom_bond_type
C16   C18   1.396834 A    
N5    O13   1.301733 A    
N7    O17   1.300926 A    
C40   N10   1.435980 S    
C13   C15   1.387322 A    
C50   H18   1.081827 S    
O3    C2    1.281121 A    
N1    C17   1.425469 S    
C2    C45   1.422955 S    
C39   N9    1.432121 S    
C42   C45   1.397554 A    
O5    C3    1.292475 A    
C19   C25   1.413948 A    
O1    C1    1.281066 A    
C21   C23   1.392483 A    
C10   C12   1.400115 A    
C32   C39   1.427710 A    
C38   N8    1.437203 S    
C14   C28   1.401207 A    
C13   C27   1.400249 A    
O7    Zn1   2.013984 S    
N8    O20   1.301592 A    
C44   H14   1.083580 S    
C4    C28   1.462233 S    
C36   H10   1.080522 S    
C43   H13   1.083579 S    
C23   H5    1.083876 S    
C24   H6    1.083588 S    
O3    Zn1   2.004869 S    
C6    N2    1.361823 A    
N7    O18   1.301258 A    
C37   N7    1.433058 S    
O2    C2    1.281062 A    
C31   C40   1.422798 A    
C5    C21   1.396061 A    
C35   H9    1.077150 S    
C32   C34   1.422559 A    
Zn2   N4    2.003171 S    
C7    O12   1.348962 S    
O8    Zn2   2.013989 S    
C11   C27   1.404100 A    
C8    O11   1.347771 S    
C48   C49   1.414233 A    
C29   C35   1.409950 A    
C25   C38   1.410866 A    
C14   H2    1.083174 S    
C30   C36   1.410428 A    
C15   H3    1.083120 S    
C42   H12   1.083614 S    
C41   C43   1.370891 A    
C11   H8    1.083045 S    
C9    C17   1.412010 A    
C5    N1    1.362936 A    
C12   H7    1.083016 S    
C10   C18   1.413818 A    
C50   N3    1.365540 A    
C48   H16   1.081806 S    
N6    O16   1.301082 A    
N9    O21   1.301413 A    
C7    C25   1.406965 A    
C47   H15   1.081798 S    
O6    C4    1.292006 A    
C29   C32   1.424513 A    
C8    C26   1.411548 A    
N8    O19   1.300616 A    
C30   C31   1.414654 A    
C9    N6    1.442024 S    
C30   C34   1.413848 A    
N10   O24   1.301483 A    
C48   N3    1.365686 A    
C6    O10   1.350646 S    
N9    O22   1.300707 A    
N2    C8    1.365631 A    
C47   N4    1.365664 A    
O8    C3    1.289763 A    
N5    O14   1.301059 A    
C44   C46   1.397597 A    
C20   C26   1.415668 A    
O1    Zn1   2.004816 S    
C12   C28   1.403067 A    
N2    C18   1.425526 S    
C47   C50   1.414220 A    
C19   C34   1.415108 A    
C5    O9    1.350329 S    
O6    Zn2   2.005150 S    
C26   C37   1.413108 A    
N1    C7    1.365115 A    
C16   H4    1.083260 S    
O4    C1    1.281112 A    
C23   C39   1.392397 A    
C1    C46   1.422927 S    
C35   C37   1.393567 A    
C14   C16   1.384685 A    
C15   C17   1.398817 A    
C6    C22   1.393312 A    
C49   H17   1.081841 S    
N6    O15   1.301627 A    
C29   C33   1.415891 A    
C22   C24   1.394096 A    
C19   C21   1.405700 A    
C20   C22   1.408176 A    
C36   C38   1.393863 A    
C43   C45   1.397607 A    
C41   H11   1.083615 S    
C9    C11   1.397064 A    
O4    Zn2   2.004869 S    
N10   O23   1.300616 A    
O2    Zn2   2.004816 S    
C10   N5    1.442692 S    
O7    C4    1.290230 A    
C13   H1    1.083127 S    
O5    Zn1   2.005156 S    
C20   C33   1.416189 A    
C42   C44   1.370889 A    
C3    C27   1.462152 S    
Zn1   N3    2.003171 S    
C41   C46   1.397552 A    
C31   C33   1.417963 A    
C49   N4    1.365549 A    
C24   C40   1.391309 A    
