data_mof_unit_6962.cif
_audit_creation_date              2012-12-10T18:07:33-0500
_audit_creation_method            fapswitch 2.2
_symmetry_space_group_name_H-M    P1
_symmetry_Int_Tables_number       1
_space_group_crystal_system       triclinic
_cell_length_a                    11.553423
_cell_length_b                    12.670232
_cell_length_c                    13.162311
_cell_angle_alpha                 82.738599
_cell_angle_beta                  90.757139
_cell_angle_gamma                 102.58318
_cell_volume                      1865.19377062

loop_
_atom_site_label
_atom_site_type_symbol
_atom_type_description
_atom_site_fract_x
_atom_site_fract_y
_atom_site_fract_z
_atom_type_partial_charge
C1    C     C_R   0.490882 0.439312 0.691032 0.847654
C2    C     C_R   0.539856 0.596038 0.201236 -0.046112
C3    C     C_R   0.407266 0.301461 0.835406 -0.190040
C4    C     C_R   0.381610 0.273138 0.939219 -0.150442
C5    C     C_R   0.426589 0.346393 0.007732 -0.187408
C6    C     C_R   0.503262 0.447968 0.973370 0.088135
C7    C     C_R   0.543174 0.468360 0.870715 0.092916
C8    C     C_R   0.541990 0.529921 0.037360 0.083965
C9    C     C_R   0.632888 0.622373 0.003462 0.179682
C10   C     C_R   0.683310 0.632689 0.906237 -0.255617
C11   C     C_R   0.639332 0.556315 0.840676 -0.207971
C12   C     C_R   0.717790 0.500992 0.500276 0.893674
C13   C     C_R   0.491424 0.523061 0.133917 -0.253677
C14   C     C_R   0.628678 0.687787 0.168093 -0.194595
C15   C     C_R   0.484842 0.400596 0.800335 -0.112621
C16   C     C_R   0.335080 0.082777 0.350336 -0.315826
C17   C     C_R   0.639490 0.799875 0.629485 0.030796
C18   C     C_R   0.670868 0.904408 0.657375 -0.250762
C19   C     C_R   0.619708 0.986213 0.607730 -0.191963
C20   C     C_R   0.536981 0.963357 0.529277 0.025162
C21   C     C_R   0.508333 0.854993 0.503753 0.228776
C22   C     C_R   0.480444 0.042521 0.476067 -0.015218
C23   C     C_R   0.514242 0.560620 0.309100 0.847232
C24   C     C_R   0.396700 0.010073 0.400142 0.159668
C25   C     C_R   0.372495 0.904280 0.375163 -0.275928
C26   C     C_R   0.427941 0.828001 0.426190 -0.197522
C27   C     C_R   0.501945 0.152372 0.495174 -0.083757
C28   C     C_R   0.354627 0.188321 0.374826 0.256363
C29   C     C_R   0.282217 0.498949 0.499909 0.893232
C30   C     C_1   0.838887 0.502483 0.500762 -0.193358
C31   C     C_1   0.940877 0.501161 0.500667 -0.001891
C32   C     C_1   0.059121 0.498515 0.500265 -0.003958
C33   C     C_1   0.161130 0.497320 0.499933 -0.194668
C34   C     C_R   0.673727 0.701934 0.068429 -0.204301
H1    H     H_    0.667384 0.744790 0.220440 0.159528
H2    H     H_    0.309139 0.879862 0.316392 0.153537
H3    H     H_    0.269393 0.056755 0.293655 0.142643
H4    H     H_    0.565966 0.184270 0.549949 0.136836
H5    H     H_    0.680021 0.736569 0.667089 0.130158
H6    H     H_    0.646246 0.065869 0.632250 0.138947
H7    H     H_    0.734720 0.921956 0.717242 0.146413
H8    H     H_    0.405337 0.748031 0.403900 0.211550
H9    H     H_    0.755648 0.700570 0.880292 0.140715
H10   H     H_    0.743723 0.772290 0.043641 0.135908
H11   H     H_    0.416757 0.458621 0.160701 0.134014
H12   H     H_    0.363483 0.247447 0.782297 0.158716
H13   H     H_    0.402484 0.320199 0.087191 0.126085
H14   H     H_    0.322689 0.196085 0.966269 0.140257
H15   H     H_    0.682375 0.565741 0.766616 0.153783
N1    N     N_R   0.440320 0.222190 0.444690 -0.111992
N2    N     N_R   0.559060 0.776980 0.554780 -0.130354
O1    O     O_R   0.471500 0.366730 0.627160 -0.616166
O2    O     O_R   0.509620 0.544830 0.662520 -0.609278
O3    O     O_R   0.646490 0.410960 0.482310 -0.605416
O4    O     O_R   0.684610 0.589050 0.517670 -0.620378
O5    O     O_R   0.490380 0.455170 0.337480 -0.628653
O6    O     O_R   0.528500 0.633270 0.372840 -0.637408
O7    O     O_R   0.315390 0.410950 0.482330 -0.623623
O8    O     O_R   0.353510 0.589040 0.517690 -0.619525
Zn1   Zn    Zn3+2 0.474550 0.381080 0.476390 0.930348
Zn2   Zn    Zn3+2 0.525450 0.618920 0.523610 0.930995
C35   C     C_3   0.275617 0.258761 0.322505 -0.404270
C36   C     C_3   0.149595 0.225867 0.368722 -0.350203
C37   C     C_3   0.068820 0.294769 0.313982 -0.864911
H16   H     H_    0.105760 0.382745 0.317641 0.262026
H17   H     H_    0.059324 0.280475 0.232446 0.257213
H18   H     H_    0.979703 0.272027 0.351338 0.257109
H19   H     H_    0.110941 0.138697 0.362049 0.215857
H20   H     H_    0.152368 0.236380 0.451335 0.244360
H21   H     H_    0.309685 0.345556 0.325013 0.253823
H22   H     H_    0.271551 0.249115 0.239616 0.161733

loop_
_geom_bond_atom_site_label_1
_geom_bond_atom_site_label_2
_ccdc_geom_bond_type
C14   C34   A    
C13   H11   S    
C21   C26   A    
C37   H18   S    
C24   C25   A    
C16   C28   A    
C6    C7    A    
C11   H15   S    
C29   C33   S    
O1    Zn1   S    
C9    C10   A    
C3    H12   S    
C19   C20   A    
N2    Zn2   S    
C27   N1    A    
C16   H3    S    
N1    Zn1   S    
C37   H16   S    
C17   N2    A    
C19   H6    S    
C7    C15   A    
C17   C18   A    
C10   H9    S    
C3    C15   A    
C23   O5    A    
C16   C24   A    
C37   H17   S    
O3    Zn1   S    
C29   O7    A    
C7    C11   A    
C5    H13   S    
C30   C31   T    
C26   H8    S    
C35   C36   S    
C28   N1    A    
C1    C15   S    
O4    Zn2   S    
O5    Zn1   S    
C20   C22   A    
C35   H22   S    
C22   C27   A    
C4    H14   S    
C5    C6    A    
C2    C14   A    
C1    O1    A    
C22   C24   A    
O8    Zn2   S    
C12   O4    A    
C10   C11   A    
C27   H4    S    
O7    Zn1   S    
C3    C4    A    
C8    C13   A    
C29   O8    A    
C21   N2    A    
C34   H10   S    
C20   C21   A    
C35   H21   S    
C2    C23   S    
C18   C19   A    
C17   H5    S    
C18   H7    S    
O6    Zn2   S    
C23   O6    A    
C2    C13   A    
C1    O2    A    
C36   H19   S    
C8    C9    A    
C6    C8    A    
C25   H2    S    
C12   C30   S    
C25   C26   A    
C36   C37   S    
O2    Zn2   S    
C14   H1    S    
C31   C32   S    
C12   O3    A    
C36   H20   S    
C32   C33   T    
C9    C34   A    
C4    C5    A    
C28   C35   S    
