data_mof_unit_48213.cif
_audit_creation_date              2012-12-10T19:10:06-0500
_audit_creation_method            fapswitch 2.2
_symmetry_space_group_name_H-M    P1
_symmetry_Int_Tables_number       1
_space_group_crystal_system       triclinic
_cell_length_a                    10.829001
_cell_length_b                    10.829476
_cell_length_c                    9.53542
_cell_angle_alpha                 89.635401
_cell_angle_beta                  90.044932
_cell_angle_gamma                 90.283737
_cell_volume                      1118.20498084

loop_
_atom_site_label
_atom_site_type_symbol
_atom_type_description
_atom_site_fract_x
_atom_site_fract_y
_atom_site_fract_z
_atom_type_partial_charge
C1    C     C_R   0.500819 0.262255 0.500179 0.851452
C2    C     C_R   0.847035 0.337462 0.978727 -0.144257
C3    C     C_R   0.777750 0.231214 0.951619 -0.182048
C4    C     C_R   0.262396 0.502797 0.499737 0.787166
C5    C     C_R   0.761864 0.191239 0.813753 -0.187282
C6    C     C_R   0.812529 0.258946 0.702085 0.635561
C7    C     C_R   0.880823 0.367206 0.728499 0.021109
C8    C     C_R   0.512792 0.062372 0.625058 0.117945
C9    C     C_R   0.510655 0.129081 0.499559 -0.058713
C10   C     C_R   0.525023 0.065298 0.372542 -0.187952
C11   C     C_R   0.525255 0.936604 0.372131 -0.177757
C12   C     C_R   0.244193 0.737355 0.043602 -0.107779
C13   C     C_R   0.512122 0.870744 0.498745 -0.101192
C14   C     C_R   0.514301 0.935388 0.624707 0.130867
C15   C     C_3   0.430006 0.926299 0.748125 -0.526592
C16   C     C_R   0.501597 0.737655 0.499550 0.799247
C17   C     C_3   0.428093 0.066362 0.748430 -0.394683
C18   C     C_R   0.548766 0.597512 0.072805 0.198773
C19   C     C_R   0.437486 0.412382 0.075299 -0.162331
C20   C     C_R   0.436616 0.412862 0.926385 0.656479
C21   C     C_R   0.547245 0.598316 0.925487 0.048766
C22   C     C_3   0.674539 0.649770 0.916154 -0.504462
C23   C     C_R   0.933588 0.551224 0.389834 -0.241857
C24   C     C_3   0.678739 0.643846 0.075272 0.421850
C25   C     C_R   0.737699 0.496148 0.500390 0.845747
C26   C     C_R   0.247797 0.790337 0.176852 -0.098635
C27   C     C_R   0.186882 0.732964 0.289116 -0.103209
C28   C     C_R   0.121780 0.622064 0.268198 0.135204
C29   C     C_R   0.117950 0.569804 0.133911 -0.135323
C30   C     C_R   0.179285 0.627259 0.022056 -0.142465
C31   C     C_R   0.871743 0.493028 0.501057 -0.044472
C32   C     C_R   0.939068 0.438170 0.612209 0.056570
C33   C     C_R   0.067085 0.446648 0.610664 -0.230729
C34   C     C_R   0.128558 0.504601 0.499278 -0.088546
C35   C     C_R   0.061503 0.557727 0.387454 -0.001931
C36   C     C_R   0.899835 0.404228 0.867874 -0.273231
Cu1   Cu    Cu3+1 0.499990 0.499980 0.640670 0.997905
Cu2   Cu    Cu3+1 0.500010 0.500020 0.359330 0.979951
F1    F     F_    0.797849 0.217419 0.569090 -0.697664
F2    F     F_    0.370421 0.325714 0.858043 -0.693353
F3    F     F_    0.687695 0.759597 0.134913 -0.668409
H1    H     H_    0.291992 0.781317 0.957168 0.127813
H2    H     H_    0.388373 0.340536 0.131804 0.167355
H3    H     H_    0.298153 0.875591 0.193207 0.125800
H4    H     H_    0.739911 0.586507 0.864756 0.189995
H5    H     H_    0.675145 0.745466 0.873252 0.220215
H6    H     H_    0.745571 0.575678 0.117349 0.077333
H7    H     H_    0.191350 0.774031 0.392300 0.102930
H8    H     H_    0.069758 0.483396 0.116915 0.127898
H9    H     H_    0.177347 0.585982 0.918962 0.142953
H10   H     H_    0.882122 0.595326 0.306185 0.170187
H11   H     H_    0.953421 0.486429 0.890161 0.150173
H12   H     H_    0.737588 0.179014 0.037528 0.168958
H13   H     H_    0.860247 0.367772 0.085672 0.152272
H14   H     H_    0.119341 0.403328 0.694580 0.185950
H15   H     H_    0.711508 0.106778 0.793935 0.154258
H16   H     H_    0.530371 0.114066 0.273175 0.162674
H17   H     H_    0.529665 0.889454 0.272595 0.217357
H18   H     H_    0.339217 0.884004 0.721555 0.199690
H19   H     H_    0.476875 0.886166 0.841500 0.211499
H20   H     H_    0.336137 0.105494 0.722042 0.232595
H21   H     H_    0.473640 0.106355 0.842371 0.227256
N1    N     N_R   0.500790 0.500930 0.147930 -0.244486
N2    N     N_R   0.500790 0.500890 0.852020 -0.222796
O1    O     O_R   0.500000 0.319640 0.618810 -0.525936
O2    O     O_R   0.500010 0.319680 0.381230 -0.600992
O3    O     O_R   0.319640 0.499990 0.618790 -0.559321
O4    O     O_R   0.319650 0.500030 0.381210 -0.573304
O5    O     O_R   0.499990 0.680320 0.618770 -0.582918
O6    O     O_R   0.500000 0.680360 0.381190 -0.557812
O7    O     O_R   0.680350 0.499970 0.618790 -0.594464
O8    O     O_R   0.680360 0.500010 0.381210 -0.582850

loop_
_geom_bond_atom_site_label_1
_geom_bond_atom_site_label_2
_ccdc_geom_bond_type
C27   H7    S    
C20   N2    A    
C4    O3    A    
C1    O1    A    
Cu2   O6    S    
C25   C31   S    
C29   C30   A    
C25   O7    A    
Cu1   O5    S    
C17   H21   S    
C11   H17   S    
C11   C13   A    
C9    C10   A    
C5    H15   S    
C23   H10   S    
C8    C17   S    
C36   H11   S    
C33   C34   A    
C12   C30   A    
C32   C33   A    
C10   H16   S    
C19   C20   A    
C2    C3    A    
C30   H9    S    
C26   H3    S    
C33   H14   S    
C25   O8    A    
C29   H8    S    
C21   C22   S    
C24   F3    S    
C3    H12   S    
C26   C27   A    
C6    C7    A    
C34   C35   A    
C18   C24   S    
Cu1   O3    S    
C22   C24   S    
C28   C29   A    
C22   H5    S    
Cu1   Cu2   S    
C19   H2    S    
C1    O2    A    
C23   C35   A    
C6    F1    S    
Cu1   O7    S    
C2    H13   S    
C5    C6    A    
C20   F2    S    
C31   C32   A    
C4    C34   S    
C18   N1    A    
C7    C32   S    
C10   C11   A    
Cu2   O4    S    
C2    C36   A    
C23   C31   A    
C18   C21   A    
C1    C9    S    
Cu2   O8    S    
Cu1   N2    S    
C16   O6    A    
C4    O4    A    
Cu2   N1    S    
C7    C36   A    
C13   C16   S    
C19   N1    A    
C27   C28   A    
C15   C17   S    
C14   C15   S    
C21   N2    A    
C12   H1    S    
C22   H4    S    
C8    C14   A    
C17   H20   S    
C13   C14   A    
C24   H6    S    
C15   H18   S    
C15   H19   S    
C16   O5    A    
Cu2   O2    S    
C28   C35   S    
C12   C26   A    
C8    C9    A    
C3    C5    A    
Cu1   O1    S    
