data_mof_unit_14661.cif
_audit_creation_date              2012-12-10T17:30:22-0500
_audit_creation_method            fapswitch 2.2
_symmetry_space_group_name_H-M    P1
_symmetry_Int_Tables_number       1
_space_group_crystal_system       triclinic
_cell_length_a                    12.053359
_cell_length_b                    12.886033
_cell_length_c                    14.993396
_cell_angle_alpha                 88.95047
_cell_angle_beta                  87.114403
_cell_angle_gamma                 93.302684
_cell_volume                      2321.43254016

loop_
_atom_site_label
_atom_site_type_symbol
_atom_type_description
_atom_site_fract_x
_atom_site_fract_y
_atom_site_fract_z
_atom_type_partial_charge
C1    C     C_R   0.522032 0.700923 0.501083 0.973990
C2    C     C_R   0.478396 0.299250 0.505097 1.030692
C3    C     C_R   0.569086 0.686458 0.949526 0.486507
C4    C     C_R   0.416040 0.320962 0.049746 0.508304
C5    C     C_R   0.467092 0.187402 0.521099 -0.323303
C6    C     C_R   0.535773 0.812672 0.513913 -0.375377
C7    C     C_R   0.651082 0.967336 0.543424 0.373067
C8    C     C_R   0.356929 0.030873 0.567005 0.407170
C9    C     C_R   0.642524 0.860749 0.526345 0.317067
C10   C     C_R   0.362219 0.138184 0.548865 0.333319
C11   C     C_R   0.439646 0.870956 0.522479 0.444275
C12   C     C_R   0.565175 0.130738 0.518188 0.471978
C13   C     C_R   0.450767 0.974539 0.545377 -0.270937
C14   C     C_R   0.556382 0.025109 0.537998 -0.244629
C15   C     C_R   0.954465 0.504794 0.384343 -0.304454
C16   C     C_R   0.045555 0.486556 0.615364 -0.291657
C17   C     C_R   0.839635 0.493376 0.399254 -0.056244
C18   C     C_R   0.160349 0.503017 0.600565 0.041048
C19   C     C_R   0.857573 0.471365 0.555113 0.073656
C20   C     C_R   0.141767 0.521387 0.444445 0.034761
C21   C     C_R   0.975338 0.487779 0.543467 -0.003399
C22   C     C_R   0.024244 0.505183 0.456642 0.030032
C23   C     C_R   0.501236 0.500674 0.672275 0.914515
C24   C     C_R   0.498871 0.499494 0.327503 0.942350
C25   C     C_R   0.468319 0.406508 0.189092 -0.086565
C26   C     C_R   0.537414 0.593156 0.809162 -0.089027
C27   C     C_R   0.496191 0.499753 0.232101 -0.225442
C28   C     C_R   0.503935 0.500907 0.767413 -0.223646
C29   C     C_R   0.522307 0.593458 0.184964 -0.023316
C30   C     C_R   0.465947 0.410703 0.815087 -0.037022
C31   C     C_R   0.526388 0.593123 0.091512 0.012850
C32   C     C_R   0.461573 0.411897 0.908212 0.004996
C33   C     C_R   0.492163 0.502115 0.046775 -0.011679
C34   C     C_R   0.494827 0.503783 0.952743 -0.004536
C35   C     C_R   0.458359 0.408706 0.095810 -0.046947
C36   C     C_R   0.533571 0.595911 0.903401 -0.033123
C37   C     C_R   0.568375 0.681529 0.042531 -0.291808
C38   C     C_R   0.425515 0.321913 0.957378 -0.290632
H1    H     H_    0.986975 0.517287 0.316193 0.176812
H2    H     H_    0.013434 0.471655 0.683265 0.185297
H3    H     H_    0.605815 0.746059 0.077002 0.169256
H4    H     H_    0.404802 0.249696 0.924858 0.172263
H5    H     H_    0.211229 0.498141 0.657308 0.174860
H6    H     H_    0.788876 0.499112 0.342510 0.180090
N1    N     N_R   0.207800 0.519350 0.516680 -0.146836
N2    N     N_R   0.792200 0.480650 0.483320 -0.135581
O1    O     O_R   0.421700 0.658830 0.504450 -0.589939
O2    O     O_R   0.578300 0.341170 0.495550 -0.594329
O3    O     O_R   0.609310 0.646410 0.493750 -0.549318
O4    O     O_R   0.390690 0.353590 0.506250 -0.578346
O5    O     O_R   0.406180 0.506230 0.637500 -0.648686
O6    O     O_R   0.593820 0.493770 0.362500 -0.642468
O7    O     O_R   0.593800 0.493820 0.626800 -0.575520
O8    O     O_R   0.406200 0.506180 0.373200 -0.589452
Zn1   Zn    Zn3+2 0.374730 0.508290 0.507150 1.018291
Zn2   Zn    Zn3+2 0.625270 0.491710 0.492850 1.032776
C39   C     C_2   0.458693 0.306902 0.241565 0.944922
O9    O     O_2   0.393765 0.296175 0.306669 -0.688054
O10   O     O_R   0.523500 0.225105 0.215317 -0.787466
H7    H     H_    0.502645 0.158563 0.250923 0.329479
C40   C     C_2   0.571363 0.686040 0.752000 1.003096
O11   O     O_2   0.663908 0.693786 0.714364 -0.551356
O12   O     O_R   0.497048 0.764027 0.741709 -0.846263
H8    H     H_    0.531501 0.825960 0.705572 0.313864
C41   C     C_2   0.544101 0.691811 0.233782 0.858888
O13   O     O_2   0.488818 0.766438 0.219597 -0.662924
O14   O     O_R   0.629124 0.699622 0.293711 -0.816813
H9    H     H_    0.636577 0.770836 0.321179 0.320370
C42   C     C_2   0.428759 0.316020 0.766643 0.883031
O15   O     O_2   0.494960 0.272674 0.717728 -0.623283
O16   O     O_R   0.318271 0.276828 0.778069 -0.812693
H10   H     H_    0.303881 0.210057 0.744892 0.357402
O17   O     O_3   0.616616 0.773629 0.902070 -0.640075
C43   C     C_3   0.587305 0.870852 0.936753 0.110407
H11   H     H_    0.625796 0.931746 0.889619 0.167714
H12   H     H_    0.625396 0.887190 0.001195 0.137278
C44   C     C_3   0.461024 0.884312 0.942558 -0.399553
H13   H     H_    0.426613 0.870790 0.876236 0.256910
H14   H     H_    0.418649 0.827486 0.991402 0.234666
C45   C     C_3   0.435680 0.993704 0.971907 -0.899087
H15   H     H_    0.469408 0.009442 0.038250 0.294357
H16   H     H_    0.344311 0.000975 0.977253 0.253178
H17   H     H_    0.472783 0.052562 0.922345 0.260579
O18   O     O_3   0.374760 0.230418 0.094505 -0.622498
C46   C     C_3   0.261278 0.207247 0.078177 0.040530
H18   H     H_    0.241761 0.124352 0.097644 0.176209
H19   H     H_    0.242682 0.214572 0.006475 0.147726
C47   C     C_3   0.185637 0.274207 0.135088 -0.348856
H20   H     H_    0.207142 0.267725 0.206025 0.276753
H21   H     H_    0.198899 0.356687 0.112315 0.215078
C48   C     C_3   0.063186 0.240121 0.127712 -0.936488
H22   H     H_    0.040078 0.244476 0.057007 0.273281
H23   H     H_    0.010841 0.292344 0.167520 0.271995
H24   H     H_    0.046509 0.159236 0.153948 0.262922
O19   O     O_3   0.670584 0.177589 0.497479 -0.551714
C49   C     C_3   0.690019 0.190889 0.403664 0.171240
H25   H     H_    0.743792 0.263333 0.392004 0.175192
H26   H     H_    0.612843 0.202244 0.368102 0.106692
C50   C     C_3   0.750994 0.100390 0.363568 -0.389061
H27   H     H_    0.823050 0.084220 0.403945 0.259954
H28   H     H_    0.692968 0.030260 0.364066 0.199622
C51   C     C_3   0.793899 0.124770 0.267579 -0.942827
H29   H     H_    0.723692 0.138814 0.224650 0.302700
H30   H     H_    0.838436 0.057873 0.241111 0.262620
H31   H     H_    0.852699 0.194481 0.265027 0.268970
O20   O     O_3   0.334179 0.829610 0.505235 -0.582388
C52   C     C_3   0.318720 0.833128 0.412039 0.190038
H32   H     H_    0.243628 0.782498 0.401349 0.212224
H33   H     H_    0.389277 0.801055 0.372932 0.168570
C53   C     C_3   0.296184 0.942310 0.376604 -0.443665
H34   H     H_    0.226031 0.972859 0.416852 0.238081
H35   H     H_    0.371148 0.995741 0.381299 0.207380
C54   C     C_3   0.266097 0.940552 0.278967 -0.881088
H36   H     H_    0.336574 0.914268 0.236296 0.307532
H37   H     H_    0.247793 0.020146 0.256593 0.261062
H38   H     H_    0.191370 0.887817 0.270654 0.272119
O21   O     O_3   0.273958 0.198490 0.574114 -0.605584
C55   C     C_3   0.175097 0.172792 0.529628 0.083433
H39   H     H_    0.105109 0.202171 0.571146 0.169028
H40   H     H_    0.155148 0.088606 0.523246 0.168258
C56   C     C_3   0.176709 0.225074 0.437160 -0.311366
H41   H     H_    0.199773 0.309184 0.442215 0.283014
H42   H     H_    0.239052 0.189091 0.392388 0.245264
C57   C     C_3   0.062861 0.212136 0.397040 -0.956576
H43   H     H_    0.039780 0.128465 0.387712 0.258687
H44   H     H_    0.065416 0.252933 0.331168 0.300226
H45   H     H_    0.998284 0.246276 0.441151 0.273622
O22   O     O_3   0.735502 0.801584 0.527698 -0.569411
C58   C     C_3   0.821138 0.841471 0.466057 0.148660
H46   H     H_    0.879700 0.894540 0.500943 0.186765
H47   H     H_    0.788706 0.883081 0.407871 0.103821
C59   C     C_3   0.886295 0.752314 0.429860 -0.309998
H48   H     H_    0.914876 0.705639 0.486439 0.248438
H49   H     H_    0.830770 0.702256 0.389764 0.254214
C60   C     C_3   0.987110 0.792527 0.370906 -0.988005
H50   H     H_    0.960329 0.838644 0.313324 0.268673
H51   H     H_    0.032587 0.726020 0.344992 0.285354
H52   H     H_    0.044405 0.842038 0.410116 0.270402
O23   O     O_3   0.752749 0.015138 0.561825 -0.633485
C61   C     C_3   0.758509 0.023306 0.655144 0.150563
H53   H     H_    0.751454 0.944599 0.687871 0.157806
H54   H     H_    0.691089 0.070837 0.683117 0.171787
C62   C     C_3   0.870822 0.076666 0.674932 -0.319582
H55   H     H_    0.938843 0.030960 0.646029 0.207511
H56   H     H_    0.878302 0.155518 0.643030 0.256178
C63   C     C_3   0.883735 0.086451 0.775179 -0.955246
H57   H     H_    0.817369 0.133192 0.805182 0.280249
H58   H     H_    0.965868 0.125870 0.787100 0.270687
H59   H     H_    0.879101 0.008256 0.808086 0.267928
O24   O     O_3   0.259518 0.981270 0.603162 -0.628635
C64   C     C_3   0.274399 0.950940 0.692486 0.132702
H60   H     H_    0.306807 0.017900 0.731613 0.121758
H61   H     H_    0.332999 0.887506 0.694897 0.190806
C65   C     C_3   0.162006 0.910662 0.735089 -0.319171
H62   H     H_    0.102933 0.973681 0.733655 0.224305
H63   H     H_    0.128100 0.844634 0.696021 0.249217
C66   C     C_3   0.172131 0.874347 0.831571 -0.944286
H64   H     H_    0.229474 0.810043 0.834556 0.277704
H65   H     H_    0.089048 0.845711 0.860304 0.276485
H66   H     H_    0.203655 0.939834 0.872172 0.260086
C67   C     C_2   0.192464 0.534581 0.353342 0.929657
O25   O     O_2   0.235664 0.618642 0.328035 -0.663593
O26   O     O_R   0.188571 0.451175 0.295268 -0.821152
H67   H     H_    0.226469 0.470143 0.234841 0.337883
C68   C     C_2   0.805319 0.438943 0.642800 0.933260
O27   O     O_2   0.754940 0.353964 0.651510 -0.579408
O28   O     O_R   0.812989 0.505104 0.715368 -0.779293
H68   H     H_    0.772761 0.474234 0.771583 0.345881

loop_
_geom_bond_atom_site_label_1
_geom_bond_atom_site_label_2
_ccdc_geom_bond_type
C24   O6    A    
C62   C63   S    
C7    O23   S    
C8    C13   A    
C60   H52   S    
O17   C43   S    
O19   C49   S    
C24   C27   S    
O2    Zn2   S    
O22   C58   S    
C6    C9    A    
C67   O25   D    
C19   N2    A    
C60   H50   S    
C15   C22   A    
C44   H13   S    
C68   O27   D    
C43   H12   S    
C57   H44   S    
C19   C21   A    
C26   C40   S    
C61   H54   S    
C63   H57   S    
C39   O10   S    
C27   C29   A    
O20   C52   S    
C24   O8    A    
C62   H55   S    
C49   C50   S    
C62   H56   S    
C51   H31   S    
C42   O16   S    
C64   C65   S    
C40   O12   S    
C53   H34   S    
C56   C57   S    
C2    O4    A    
C13   C14   A    
C51   H29   S    
C55   H39   S    
C7    C14   A    
O26   H67   S    
C59   H48   S    
C41   O14   S    
C43   C44   S    
C49   H26   S    
C52   H32   S    
C61   C62   S    
C12   O19   S    
C32   C38   A    
C65   H63   S    
C20   N1    A    
C58   C59   S    
O7    Zn2   S    
C44   H14   S    
C4    C35   A    
O10   H7    S    
C68   O28   S    
C60   H51   S    
C21   C22   A    
C66   H64   S    
C52   H33   S    
C42   O15   D    
C25   C39   S    
C45   H17   S    
C67   O26   S    
C23   O7    A    
C63   H58   S    
C46   H19   S    
O23   C61   S    
C9    O22   S    
C43   H11   S    
O14   H9    S    
O18   C46   S    
C65   C66   S    
C45   H16   S    
C48   H22   S    
C25   C35   A    
C58   H46   S    
C1    O1    A    
C2    O2    A    
C46   H18   S    
C31   C37   A    
C55   C56   S    
C32   C34   A    
C8    O24   S    
C48   H23   S    
C63   H59   S    
C23   O5    A    
C50   H27   S    
C4    O18   S    
C47   C48   S    
C64   H60   S    
C49   H25   S    
C11   O20   S    
C31   C33   A    
C33   C34   A    
C56   H41   S    
C16   C18   A    
C23   C28   S    
C61   H53   S    
C51   H30   S    
C53   C54   S    
C15   H1    S    
C65   H62   S    
C16   H2    S    
C57   H45   S    
C29   C41   S    
C55   H40   S    
C59   H49   S    
C50   H28   S    
C47   H21   S    
C66   H66   S    
C6    C11   A    
C52   C53   S    
C2    C5    S    
C20   C22   A    
C18   N1    A    
O28   H68   S    
C30   C42   S    
O1    Zn1   S    
C54   H36   S    
C46   C47   S    
C26   C36   A    
C15   C17   A    
O8    Zn1   S    
C8    C10   A    
C4    C38   A    
C45   H15   S    
C17   N2    A    
C16   C21   A    
C38   H4    S    
C25   C27   A    
O3    Zn2   S    
C26   C28   A    
O4    Zn1   S    
C54   H38   S    
C28   C30   A    
C12   C14   A    
C17   H6    S    
O16   H10   S    
C29   C31   A    
C10   O21   S    
O21   C55   S    
C48   H24   S    
C30   C32   A    
C11   C13   A    
C39   O9    D    
C44   C45   S    
C3    C36   A    
C59   C60   S    
C20   C67   S    
C33   C35   A    
C34   C36   A    
O5    Zn1   S    
C64   H61   S    
C37   H3    S    
C40   O11   D    
C3    O17   S    
C53   H35   S    
C56   H42   S    
C5    C12   A    
O12   H8    S    
C7    C9    A    
C5    C10   A    
C50   C51   S    
C47   H20   S    
N1    Zn1   S    
C66   H65   S    
C41   O13   D    
N2    Zn2   S    
C1    C6    S    
O24   C64   S    
C19   C68   S    
C58   H47   S    
C18   H5    S    
C1    O3    A    
O6    Zn2   S    
C3    C37   A    
C57   H43   S    
C54   H37   S    
