data_mof_unit_37308.cif
_audit_creation_date              2012-12-10T17:49:33-0500
_audit_creation_method            fapswitch 2.2
_symmetry_space_group_name_H-M    P1
_symmetry_Int_Tables_number       1
_space_group_crystal_system       triclinic
_cell_length_a                    10.48682
_cell_length_b                    10.800399
_cell_length_c                    9.957158
_cell_angle_alpha                 90.143863
_cell_angle_beta                  90.426022
_cell_angle_gamma                 91.671232
_cell_volume                      1127.250961

loop_
_atom_site_label
_atom_site_type_symbol
_atom_type_description
_atom_site_fract_x
_atom_site_fract_y
_atom_site_fract_z
_atom_type_partial_charge
C1    C     C_R   0.509656 0.261193 0.500576 0.871364
C2    C     C_R   0.527753 0.063454 0.623900 0.079595
C3    C     C_R   0.522001 0.129209 0.502471 -0.134726
C4    C     C_R   0.257605 0.499310 0.499435 0.843907
C5    C     C_R   0.509538 0.066850 0.381239 -0.266136
C6    C     C_R   0.506973 0.940328 0.378574 -0.016005
C7    C     C_R   0.488651 0.874242 0.500233 -0.185681
C8    C     C_R   0.330192 0.340569 0.137994 -0.163696
C9    C     C_R   0.247224 0.261087 0.067253 -0.205452
C10   C     C_R   0.247494 0.260612 0.928189 -0.192651
C11   C     C_R   0.330662 0.339682 0.858910 -0.147648
C12   C     C_3   0.960333 0.600165 0.435081 -0.178603
C13   C     C_R   0.415723 0.421961 0.927017 0.161848
C14   C     C_R   0.415449 0.422364 0.071363 0.175665
C15   C     C_R   0.584792 0.569845 0.072088 -0.082512
C16   C     C_R   0.493921 0.740087 0.500112 0.869568
C17   C     C_R   0.583507 0.571376 0.929351 -0.120707
C18   C     C_R   0.742434 0.500101 0.500578 0.860721
C19   C     C_3   0.039878 0.398204 0.565006 -0.188210
C20   C     C_3   0.953747 0.396270 0.438498 -0.181417
C21   C     C_3   0.877664 0.499510 0.501703 0.029237
C22   C     C_3   0.961062 0.501399 0.628381 -0.132136
C23   C     C_3   0.039092 0.496943 0.371700 -0.139369
C24   C     C_3   0.046364 0.602088 0.561595 -0.174830
C25   C     C_1   0.531718 0.884904 0.249875 0.217901
C26   C     C_1   0.585352 0.119785 0.989055 0.144985
C27   C     C_3   0.122448 0.498929 0.498368 0.037477
C28   C     C_R   0.571750 0.116554 0.745605 -0.204386
C29   C     C_R   0.539589 0.061877 0.867204 0.073687
C30   C     C_R   0.462960 0.953903 0.867319 -0.188196
C31   C     C_R   0.438165 0.890969 0.746611 -0.181096
C32   C     C_R   0.483397 0.940493 0.623619 0.085475
H1    H     H_    0.911128 0.312628 0.388672 0.139909
H2    H     H_    0.923072 0.682264 0.382471 0.134341
H3    H     H_    0.505162 0.116684 0.287698 0.199362
H4    H     H_    0.380246 0.806667 0.750743 0.170394
H5    H     H_    0.925287 0.503214 0.733021 0.143832
H6    H     H_    0.089047 0.685709 0.611418 0.129397
H7    H     H_    0.075005 0.494908 0.267105 0.149423
H8    H     H_    0.631299 0.200214 0.746864 0.165000
H9    H     H_    0.424589 0.916748 0.959454 0.161973
H10   H     H_    0.655679 0.625462 0.126018 0.156910
H11   H     H_    0.326216 0.333985 0.244536 0.203654
H12   H     H_    0.182957 0.198810 0.120865 0.149188
H13   H     H_    0.183465 0.197944 0.873435 0.145291
H14   H     H_    0.326729 0.332406 0.752348 0.204079
H15   H     H_    0.651722 0.630159 0.876709 0.152056
H16   H     H_    0.077299 0.316208 0.617703 0.125459
N1    N     N_R   0.498800 0.498800 0.142780 -0.123951
N2    N     N_R   0.498760 0.498720 0.857170 -0.129911
N3    N     N_1   0.554126 0.840951 0.147215 -0.246847
N4    N     N_1   0.625244 0.168536 0.084602 -0.223216
O1    O     O_R   0.500000 0.316780 0.614690 -0.650008
O2    O     O_R   0.499990 0.316750 0.385360 -0.634772
O3    O     O_R   0.313960 0.499980 0.614650 -0.641655
O4    O     O_R   0.313940 0.499960 0.385310 -0.645375
O5    O     O_R   0.500010 0.683250 0.614640 -0.621025
O6    O     O_R   0.500000 0.683220 0.385310 -0.604403
O7    O     O_R   0.686060 0.500040 0.614690 -0.629608
O8    O     O_R   0.686040 0.500020 0.385350 -0.616410
Zn1   Zn    Zn3+2 0.500010 0.500020 0.653130 0.922921
Zn2   Zn    Zn3+2 0.499990 0.499980 0.346870 0.946022

loop_
_geom_bond_atom_site_label_1
_geom_bond_atom_site_label_2
_ccdc_geom_bond_type
C17   N2    A    
O6    Zn2   S    
C24   H6    S    
C1    O2    A    
C20   C23   S    
C30   H9    S    
O5    Zn1   S    
C6    C7    A    
N1    Zn2   S    
C26   N4    T    
C18   C21   S    
C19   C27   S    
C9    C10   A    
C12   C24   S    
C19   C20   S    
C8    H11   S    
C30   C31   A    
C3    C5    A    
C24   C27   S    
C4    C27   S    
C10   H13   S    
C25   N3    T    
C2    C3    A    
C16   O6    A    
C21   C22   S    
C4    O4    A    
C11   C13   A    
C12   C23   S    
C29   C30   A    
C23   H7    S    
C20   H1    S    
O3    Zn1   S    
C2    C32   A    
C28   C29   A    
O4    Zn2   S    
C16   O5    A    
C15   N1    A    
C4    O3    A    
C5    C6    A    
C22   C24   S    
O7    Zn1   S    
C14   N1    A    
C2    C28   A    
C10   C11   A    
C28   H8    S    
C12   H2    S    
C13   N2    A    
C6    C25   S    
C5    H3    S    
C18   O7    A    
C19   C22   S    
C20   C21   S    
C15   H10   S    
C26   C29   S    
O8    Zn2   S    
C18   O8    A    
C15   C17   A    
N2    Zn1   S    
C1    O1    A    
C31   H4    S    
C7    C16   S    
C11   H14   S    
C8    C14   A    
C7    C32   A    
O2    Zn2   S    
C1    C3    S    
C13   C14   A    
C22   H5    S    
O1    Zn1   S    
C12   C21   S    
C23   C27   S    
C31   C32   A    
C17   H15   S    
C19   H16   S    
C8    C9    A    
C9    H12   S    
