data_mof_unit_27147.cif
_audit_creation_date              2012-12-11T15:29:42-0500
_audit_creation_method            fapswitch 2.2
_symmetry_space_group_name_H-M    P1
_symmetry_Int_Tables_number       1
_space_group_crystal_system       triclinic
_cell_length_a                    21.445746
_cell_length_b                    7.241793
_cell_length_c                    14.690953
_cell_angle_alpha                 89.990944
_cell_angle_beta                  74.582719
_cell_angle_gamma                 90.000473
_cell_volume                      2199.48568287

loop_
_atom_site_label
_atom_site_type_symbol
_atom_type_description
_atom_site_fract_x
_atom_site_fract_y
_atom_site_fract_z
_atom_type_partial_charge
O1    O     O_R   0.464160 0.506670 0.130070 -0.528880
O2    O     O_R   0.535840 0.006670 0.869930 -0.528873
O3    O     O_R   0.589710 0.179080 0.006710 -0.518524
O4    O     O_R   0.410290 0.679080 0.993290 -0.518245
C1    C     C_R   0.616686 0.344517 0.000201 0.749621
C2    C     C_R   0.383305 0.844511 0.999850 0.749345
O5    O     O_R   0.467940 0.177220 0.138010 -0.533816
O6    O     O_R   0.532060 0.677220 0.861990 -0.533847
O7    O     O_R   0.413200 0.002810 0.002170 -0.516655
O8    O     O_R   0.586800 0.502810 0.997830 -0.516795
C3    C     C_R   0.457416 0.345473 0.175633 0.834988
C4    C     C_R   0.542578 0.845491 0.824365 0.834727
O9    O     O_3   0.482180 0.337850 0.955280 -0.366278
O10   O     O_3   0.517820 0.837850 0.044720 -0.366493
V1    V     V_3+5 0.503310 0.064600 0.008300 1.677067
V2    V     V_3+5 0.496690 0.564600 0.991700 1.677303
C5    C     C_R   0.570719 0.853240 0.720487 -0.180935
C6    C     C_R   0.429285 0.353290 0.279504 -0.181044
C7    C     C_R   0.930349 0.867882 0.278031 -0.126220
C8    C     C_R   0.069669 0.367998 0.721963 -0.126185
C9    C     C_R   0.562296 0.905450 0.561073 -0.277599
C10   C     C_R   0.437667 0.407140 0.438795 -0.277450
C11   C     C_R   0.531362 0.892420 0.658974 0.375278
C12   C     C_R   0.468632 0.392908 0.340964 0.375462
C13   C     C_R   0.637899 0.820409 0.683199 0.293339
C14   C     C_R   0.362098 0.320603 0.316821 0.293256
C15   C     C_R   0.668837 0.858721 0.586561 0.016917
C16   C     C_R   0.331147 0.359468 0.413388 0.016843
C17   C     C_R   0.629044 0.887572 0.525656 -0.026701
C18   C     C_R   0.370927 0.389150 0.474235 -0.026664
C19   C     C_R   0.737460 0.872111 0.547833 0.047999
C20   C     C_R   0.262518 0.372664 0.452106 0.048188
C21   C     C_R   0.764839 0.871858 0.447531 -0.013498
C22   C     C_R   0.235155 0.372781 0.552406 -0.013449
C23   C     C_R   0.721948 0.894298 0.388911 0.362878
C24   C     C_R   0.278034 0.396023 0.610973 0.362773
C25   C     C_R   0.655710 0.903150 0.428652 -0.189849
C26   C     C_R   0.344259 0.405318 0.571206 -0.189920
C27   C     C_R   0.778483 0.912081 0.605891 -0.096399
C28   C     C_R   0.221460 0.412095 0.394021 -0.096434
C29   C     C_R   0.844594 0.936525 0.568788 -0.122841
C30   C     C_R   0.155340 0.436386 0.431138 -0.122937
C31   C     C_R   0.873293 0.915611 0.472075 0.038023
C32   C     C_R   0.126669 0.415702 0.527881 0.038058
C33   C     C_R   0.833836 0.870258 0.411335 0.051434
C34   C     C_R   0.166166 0.370793 0.588629 0.051522
C35   C     C_R   0.940520 0.944023 0.433936 0.477110
C36   C     C_R   0.059433 0.443887 0.566041 0.477182
C37   C     C_R   0.967751 0.928460 0.336724 -0.168930
C38   C     C_R   0.032223 0.428282 0.663262 -0.168845
C39   C     C_R   0.865172 0.825825 0.316647 -0.135054
C40   C     C_R   0.134883 0.326391 0.683349 -0.135009
H1    H     H_    0.624430 0.927779 0.382690 0.177856
H2    H     H_    0.375525 0.430585 0.617118 0.177732
H3    H     H_    0.839747 0.759867 0.271337 0.179161
H4    H     H_    0.160384 0.260797 0.728677 0.179110
H5    H     H_    0.018386 0.961395 0.306942 0.145535
H6    H     H_    0.981570 0.460976 0.693049 0.145546
H7    H     H_    0.872871 0.973465 0.617056 0.187786
H8    H     H_    0.127028 0.472950 0.382855 0.187677
H9    H     H_    0.535482 0.933931 0.509921 0.108392
H10   H     H_    0.464467 0.436568 0.489855 0.108390
H11   H     H_    0.759418 0.942000 0.679969 0.218393
H12   H     H_    0.240500 0.441738 0.319900 0.218079
C41   C     C_3   0.227009 0.754796 0.917335 -0.271413
C42   C     C_3   0.773046 0.253556 0.082401 -0.271292
H13   H     H_    0.207752 0.611750 0.919592 0.215532
H14   H     H_    0.792333 0.110457 0.079602 0.215138
H15   H     H_    0.222639 0.819824 0.850660 0.178449
H16   H     H_    0.777437 0.317498 0.149303 0.178493
C43   C     C_3   0.299254 0.746175 0.917205 -0.247482
C44   C     C_3   0.700785 0.245204 0.082596 -0.247399
H17   H     H_    0.329888 0.805223 0.851227 0.184602
H18   H     H_    0.670184 0.303662 0.148728 0.184558
H19   H     H_    0.314046 0.599408 0.918646 0.249163
H20   H     H_    0.685992 0.098504 0.080831 0.248889
H21   H     H_    0.173741 0.632206 0.101028 0.201978
H22   H     H_    0.826453 0.133716 0.898145 0.201775
C45   C     C_3   0.194891 0.773456 0.094682 -0.355738
C46   C     C_3   0.805124 0.274769 0.905112 -0.355794
C47   C     C_3   0.215839 0.063195 0.997925 -0.332608
C48   C     C_3   0.784006 0.563123 0.002929 -0.332828
C49   C     C_3   0.186723 0.865344 0.003287 -0.050520
C50   C     C_3   0.813253 0.365337 0.996826 -0.050314
H23   H     H_    0.188761 0.146357 0.059549 0.158017
H24   H     H_    0.811060 0.647318 0.941685 0.158287
H25   H     H_    0.209766 0.133800 0.933498 0.213429
H26   H     H_    0.789971 0.632636 0.067684 0.213508
C51   C     C_3   0.311633 0.853327 0.001967 -0.094249
C52   C     C_3   0.688347 0.353334 0.998135 -0.093894
C53   C     C_3   0.267592 0.766887 0.094869 0.209976
C54   C     C_3   0.732413 0.267903 0.905006 0.209724
C55   C     C_3   0.288052 0.057685 0.997570 0.228114
C56   C     C_3   0.711822 0.557635 0.003114 0.227373
H27   H     H_    0.293397 0.132150 0.061212 0.190011
H28   H     H_    0.706510 0.632799 0.939630 0.189636
H29   H     H_    0.167035 0.852488 0.157305 0.129993
H30   H     H_    0.832841 0.354897 0.842784 0.130234
H31   H     H_    0.273780 0.847837 0.156213 0.139682
H32   H     H_    0.726112 0.349339 0.843869 0.140359
O11   O     O_R   0.913210 0.208550 0.002110 -0.536784
O12   O     O_R   0.086790 0.708550 0.997890 -0.536771
O13   O     O_R   0.032060 0.539960 0.861980 -0.532819
O14   O     O_R   0.967940 0.039960 0.138020 -0.532892
C57   C     C_R   0.043336 0.372601 0.824868 0.728542
C58   C     C_R   0.956677 0.872570 0.175130 0.728481
O15   O     O_R   0.910290 0.538020 0.993280 -0.546143
O16   O     O_R   0.089710 0.038020 0.006720 -0.546186
O17   O     O_R   0.964160 0.712340 0.130090 -0.536568
O18   O     O_R   0.035840 0.212340 0.869910 -0.536522
C59   C     C_R   0.884171 0.370415 0.997349 0.683996
C60   C     C_R   0.115817 0.870414 0.002709 0.684060
O19   O     O_3   0.017820 0.379210 0.044690 -0.377040
O20   O     O_3   0.982180 0.879210 0.955310 -0.376970
V3    V     V_3+5 0.996690 0.652500 0.991710 1.459229
V4    V     V_3+5 0.003310 0.152500 0.008290 1.459069
Cl1   Cl    Cl    0.992167 0.008044 0.504128 -0.602746
Cl2   Cl    Cl    0.007754 0.507748 0.495864 -0.602723
Cl3   Cl    Cl    0.289158 0.533853 0.114052 -0.646775
Cl4   Cl    Cl    0.711004 0.034943 0.885378 -0.647496
Cl5   Cl    Cl    0.334961 0.185750 0.897903 -0.621333
Cl6   Cl    Cl    0.664758 0.684593 0.103061 -0.621251
O21   O     O_3   0.463965 0.908509 0.697085 -0.550846
C61   C     C_3   0.429629 0.929562 0.627076 0.106497
H33   H     H_    0.440262 0.812874 0.575807 0.118017
H34   H     H_    0.441863 0.064690 0.590461 0.132458
C62   C     C_3   0.356955 0.926695 0.669591 -0.652654
H35   H     H_    0.342448 0.032148 0.725619 0.282427
H36   H     H_    0.332291 0.958617 0.613844 0.186870
H37   H     H_    0.341440 0.787011 0.697231 0.240712
O22   O     O_3   0.536049 0.408400 0.302893 -0.550541
C63   C     C_3   0.570404 0.427986 0.372967 0.107181
H38   H     H_    0.559226 0.311593 0.424401 0.117478
H39   H     H_    0.558735 0.563458 0.409391 0.132746
C64   C     C_3   0.643067 0.422537 0.330573 -0.652789
H40   H     H_    0.658125 0.528073 0.274668 0.281969
H41   H     H_    0.667819 0.452665 0.386423 0.186951
H42   H     H_    0.657919 0.282543 0.302796 0.240943
Cl7   Cl    Cl    0.677798 0.689050 0.752689 -0.676976
Cl8   Cl    Cl    0.322208 0.188786 0.247515 -0.677185
Cl9   Cl    Cl    0.745128 0.957145 0.268566 -0.743619
Cl10  Cl    Cl    0.254803 0.459319 0.731229 -0.743992

loop_
_geom_bond_atom_site_label_1
_geom_bond_atom_site_label_2
_ccdc_geom_bond_type
C64   H42   S    
C42   H14   S    
C57   O18   A    
C3    C6    S    
C46   C54   S    
C48   C56   S    
C15   C17   A    
C21   C33   A    
O12   C60   A    
O1    C3    A    
C44   H20   S    
O2    C4    A    
C2    O7    A    
O14   C58   A    
O20   V3    S    
O21   C61   S    
C27   C29   A    
C41   H15   S    
O5    C3    A    
C5    C11   A    
C6    C12   A    
C10   C12   A    
C23   C25   A    
C55   Cl5   S    
C8    C57   S    
C14   Cl8   S    
H22   C46   S    
C41   C49   S    
C33   C39   A    
C34   C40   A    
C37   H5    S    
C18   C26   A    
O6    V2    S    
C24   Cl10  S    
C8    C38   A    
O12   V3    S    
O14   V4    S    
C42   C44   S    
C63   H38   S    
C41   H13   S    
C6    C14   A    
C4    C5    S    
C19   C21   A    
C22   C34   A    
C51   C53   S    
C64   H40   S    
C9    H9    S    
C1    C52   S    
C46   C50   S    
O19   V4    S    
C25   H1    S    
C36   C38   A    
C55   H27   S    
C29   C31   A    
C30   C32   A    
C47   C49   S    
C32   C34   A    
C52   C56   S    
H21   C45   S    
C50   C59   S    
C15   C19   A    
C45   C53   S    
C38   H6    S    
C16   C20   A    
C29   H7    S    
C44   H18   S    
C30   H8    S    
C43   H17   S    
C11   O21   S    
O5    V1    S    
C48   H24   S    
C9    C17   A    
O16   C60   A    
C20   C22   A    
O4    V2    S    
O13   V3    S    
C62   H36   S    
C7    C39   A    
C10   H10   S    
C47   C55   S    
C7    C37   A    
C52   C54   S    
C26   H2    S    
O6    C4    A    
O13   C57   A    
O1    V2    S    
C56   H28   S    
O2    V1    S    
C31   C33   A    
O15   V3    S    
C47   H25   S    
C43   C51   S    
C23   Cl9   S    
C61   C62   S    
C56   Cl6   S    
O4    C2    A    
C48   C50   S    
C9    C11   A    
C53   Cl3   S    
C13   C15   A    
O22   C63   S    
O18   V4    S    
O3    V1    S    
C54   H32   S    
C61   H34   S    
C44   C52   S    
C64   H41   S    
C10   C18   A    
C13   Cl7   S    
O10   V1    S    
O15   C59   A    
C45   H29   S    
O3    C1    A    
C36   Cl2   S    
C35   C37   A    
C2    C51   S    
C27   H11   S    
C14   C16   A    
C28   H12   S    
C5    C13   A    
O16   V4    S    
C16   C18   A    
C54   Cl4   S    
C62   H37   S    
C1    O8    A    
C8    C40   A    
C32   C36   A    
C41   C43   S    
C24   C26   A    
C43   H19   S    
C12   O22   S    
C42   H16   S    
C46   H30   S    
C63   C64   S    
C48   H26   S    
O11   C59   A    
C28   C30   A    
C21   C23   A    
C22   C24   A    
C19   C27   A    
C39   H3    S    
C20   C28   A    
C51   C55   S    
O17   V3    S    
C42   C50   S    
C45   C49   S    
C7    C58   S    
C40   H4    S    
C35   Cl1   S    
C63   H39   S    
O9    V2    S    
C17   C25   A    
O11   V4    S    
C49   C60   S    
O8    V2    S    
C53   H31   S    
C31   C35   A    
C47   H23   S    
C62   H35   S    
O7    V1    S    
C61   H33   S    
C58   O17   A    
