data_mof_unit_45840.cif
_audit_creation_date              2013-03-05T15:44:21-0500
_audit_creation_method            fapswitch 2.2
_symmetry_space_group_name_H-M    P1
_symmetry_Int_Tables_number       1
_space_group_crystal_system       triclinic
_cell_length_a                    10.643959
_cell_length_b                    10.691931
_cell_length_c                    10.019472
_cell_angle_alpha                 90.491768
_cell_angle_beta                  89.879488
_cell_angle_gamma                 89.930118
_cell_volume                      1140.21535732

loop_
_atom_site_label
_atom_site_type_symbol
_atom_site_description
_atom_site_fract_x
_atom_site_fract_y
_atom_site_fract_z
_atom_type_partial_charge
O1    O     O_R   0.499980 0.319060 0.613040 -0.582449
O2    O     O_R   0.500020 0.319100 0.386900 -0.625617
C1    C     C_R   0.498464 0.262279 0.499184 0.945811
O3    O     O_R   0.314770 0.499960 0.613070 -0.621489
O4    O     O_R   0.314820 0.500000 0.386930 -0.624757
C2    C     C_R   0.257674 0.499115 0.500015 0.863978
Zn1   Zn    Zn3+2 0.499970 0.499970 0.650990 1.018977
Zn2   Zn    Zn3+2 0.500030 0.500030 0.349010 0.951705
O5    O     O_R   0.499980 0.680900 0.613100 -0.545189
O6    O     O_R   0.500020 0.680940 0.386960 -0.635952
O7    O     O_R   0.685180 0.500000 0.613070 -0.619826
O8    O     O_R   0.685230 0.500040 0.386930 -0.626183
C3    C     C_R   0.509413 0.737427 0.500632 0.854879
C4    C     C_R   0.742075 0.497981 0.499691 0.884335
C5    C     C_3   0.072784 0.393970 0.594067 -0.471340
H1    H     H_    0.111909 0.404554 0.696406 0.156459
H2    H     H_    0.105591 0.301347 0.556129 0.214394
C6    C     C_3   0.928650 0.399507 0.601700 0.169794
H3    H     H_    0.903742 0.433888 0.703861 0.108775
H4    H     H_    0.884062 0.654881 0.640959 0.185492
C7    C     C_3   0.069770 0.630120 0.544961 -0.171334
C8    C     C_3   0.071941 0.469191 0.357452 -0.398198
C9    C     C_3   0.120995 0.498724 0.500540 0.025697
H5    H     H_    0.105858 0.540554 0.285477 0.189317
H6    H     H_    0.107140 0.376335 0.322512 0.200457
C10   C     C_3   0.878238 0.496970 0.499303 0.022923
C11   C     C_3   0.924738 0.628602 0.541968 -0.519104
C12   C     C_3   0.929160 0.468950 0.356508 -0.356266
H7    H     H_    0.893920 0.378015 0.317565 0.227195
H8    H     H_    0.896270 0.541881 0.285824 0.179088
H9    H     H_    0.102766 0.700277 0.471013 0.176805
H10   H     H_    0.890633 0.699889 0.470080 0.203779
C13   C     C_2   0.532998 0.932231 0.388946 -0.280170
C14   C     C_2   0.547419 0.866339 0.501383 0.135919
H11   H     H_    0.501563 0.888886 0.296381 0.176480
C15   C     C_2   0.538591 0.066969 0.390516 -0.076906
C16   C     C_2   0.494158 0.129572 0.496380 -0.234426
H12   H     H_    0.571883 0.114292 0.301641 0.183235
H13   H     H_    0.454424 0.083055 0.582648 0.177827
C17   C     C_2   0.581110 0.561768 0.925287 -0.064767
N1    N     N_2   0.501360 0.501330 0.852150 -0.184180
H14   H     H_    0.655141 0.613582 0.875892 0.170159
H15   H     H_    0.427099 0.457779 0.897596 0.160772
C18   C     C_2   0.576519 0.567371 0.075455 -0.118866
N2    N     N_2   0.501390 0.501360 0.147810 -0.192584
H16   H     H_    0.642090 0.629458 0.125577 0.162289
H17   H     H_    0.443821 0.437508 0.101684 0.165628
N3    N     N_R   0.612877 0.916122 0.616260 0.204024
O9    O     O_R   0.575953 0.889362 0.736604 -0.368031
O10   O     O_R   0.716472 0.978813 0.600363 -0.293083
N4    N     N_R   0.872585 0.275001 0.584076 0.215929
O11   O     O_R   0.801451 0.229710 0.677641 -0.325063
O12   O     O_R   0.896712 0.206675 0.478993 -0.384178
C19   C     C_2   0.115675 0.671235 0.681242 0.474555
H18   H     H_    0.089630 0.619013 0.769448 0.053120
O13   O     O_2   0.181821 0.763837 0.693302 -0.539836

loop_
_geom_bond_atom_site_label_1
_geom_bond_atom_site_label_2
_geom_bond_distance
_ccdc_geom_bond_type
C5    C6    1.536945 S    
N4    O12   1.301308 A    
C5    H2    1.113234 S    
H4    C11   1.115011 S    
O4    Zn2   2.006863 S    
N1    H15   1.025657 S    
C10   C12   1.555471 S    
C6    C10   1.563883 S    
Zn2   O8    2.008326 S    
C5    C9    1.553484 S    
N3    O10   1.301311 A    
O2    C1    1.283250 A    
C7    C11   1.544171 S    
C3    C14   1.436888 S    
C16   H13   1.086146 S    
C8    C12   1.519809 S    
C4    C10   1.449343 S    
Zn1   O7    2.006864 S    
C7    H9    1.115372 S    
C12   H7    1.110518 S    
C10   C11   1.549436 S    
O4    C2    1.284979 A    
C15   C16   1.334810 D    
O3    Zn1   2.008326 S    
C2    C9    1.454822 S    
C15   H12   1.086908 S    
C17   N1    1.292651 D    
C13   H11   1.086833 S    
O8    C4    1.283083 A    
C6    N4    1.468924 S    
C13   C14   1.342806 D    
C19   O13   1.220890 D    
Zn1   N1    2.015529 S    
C7    C9    1.566982 S    
C7    C19   1.513115 S    
Zn2   O6    1.968092 S    
O7    C4    1.286214 A    
C8    H5    1.114267 S    
C14   N3    1.444760 S    
N4    O11   1.300892 A    
C17   H14   1.084846 S    
C17   C18   1.505974 S    
C13   C15   1.441861 S    
C18   N2    1.292626 D    
C1    C16   1.419721 S    
O3    C2    1.286571 A    
C6    H3    1.115954 S    
N2    H17   1.025643 S    
Zn1   O5    1.974586 S    
O5    C3    1.287075 A    
C19   H18   1.085121 S    
N3    O9    1.301709 A    
O1    Zn1   1.968092 S    
C11   H10   1.114171 S    
Zn2   N2    2.016112 S    
O6    C3    1.288699 A    
C8    C9    1.556758 S    
O2    Zn2   1.974584 S    
C5    H1    1.112453 S    
C18   H16   1.084834 S    
C12   H8    1.114466 S    
O1    C1    1.287797 A    
C8    H6    1.114077 S    
