data_mof_unit_50182.cif
_audit_creation_date              2012-12-10T17:01:13-0500
_audit_creation_method            fapswitch 2.2
_symmetry_space_group_name_H-M    P1
_symmetry_Int_Tables_number       1
_space_group_crystal_system       triclinic
_cell_length_a                    15.444526
_cell_length_b                    15.677853
_cell_length_c                    9.873038
_cell_angle_alpha                 93.42572
_cell_angle_beta                  62.314442
_cell_angle_gamma                 91.357254
_cell_volume                      2113.1215279

loop_
_atom_site_label
_atom_site_type_symbol
_atom_type_description
_atom_site_fract_x
_atom_site_fract_y
_atom_site_fract_z
_atom_type_partial_charge
C1    C     C_R   0.371220 0.116786 0.561990 0.851846
C2    C     C_R   0.628118 0.882270 0.438465 0.843592
C3    C     C_R   0.633831 0.109291 0.440914 0.917944
C4    C     C_R   0.377279 0.878327 0.553979 0.884354
C5    C     C_R   0.871239 0.616807 0.561986 0.851869
C6    C     C_R   0.128116 0.382268 0.438467 0.843676
C7    C     C_R   0.133849 0.609268 0.440908 0.917984
C8    C     C_R   0.877284 0.378329 0.553975 0.884319
C9    C     C_2   0.508901 0.015610 0.922703 0.492653
C10   C     C_2   0.487627 0.998604 0.081673 0.462794
C11   C     C_2   0.008909 0.515597 0.922691 0.492547
C12   C     C_2   0.987605 0.498678 0.081715 0.462568
C13   C     C_2   0.310251 0.808207 0.568404 -0.422630
C14   C     C_2   0.727668 0.142326 0.415557 -0.403724
C15   C     C_2   0.695905 0.811560 0.407769 -0.431380
C16   C     C_2   0.302820 0.186542 0.594727 -0.460118
C17   C     C_2   0.810234 0.308237 0.568400 -0.422584
C18   C     C_2   0.227709 0.642254 0.415566 -0.403850
C19   C     C_2   0.195913 0.311565 0.407767 -0.431224
C20   C     C_2   0.802906 0.686623 0.594700 -0.460027
C21   C     C_2   0.327079 0.756897 0.444252 0.362430
C22   C     C_2   0.739979 0.225465 0.428833 0.279170
C23   C     C_2   0.720059 0.787714 0.515147 0.369721
C24   C     C_2   0.270066 0.205626 0.495230 0.384888
C25   C     C_2   0.827005 0.256985 0.444215 0.362680
C26   C     C_2   0.240087 0.725391 0.428727 0.279309
C27   C     C_2   0.219981 0.287651 0.515201 0.369664
C28   C     C_2   0.770055 0.705654 0.495300 0.385097
Cu1   Cu    Cu3+1 0.522650 0.000000 0.349410 0.983469
Cu2   Cu    Cu3+1 0.477350 0.000000 0.650590 0.963190
Cu3   Cu    Cu3+1 0.022650 0.500000 0.349410 0.983366
Cu4   Cu    Cu3+1 0.977350 0.500000 0.650590 0.963278
H1    H     H_    0.627141 0.011682 0.042801 0.194857
H2    H     H_    0.371260 0.003031 0.957734 0.199825
H3    H     H_    0.127169 0.511527 0.042732 0.194952
H4    H     H_    0.871265 0.503231 0.957730 0.199935
H5    H     H_    0.775579 0.098282 0.430078 0.074274
H6    H     H_    0.239881 0.809425 0.670378 0.078427
H7    H     H_    0.284287 0.226196 0.698289 0.170692
H8    H     H_    0.721810 0.775315 0.298733 0.168164
H9    H     H_    0.275546 0.598201 0.430247 0.074181
H10   H     H_    0.739886 0.309454 0.670415 0.078440
H11   H     H_    0.784530 0.726369 0.698119 0.170605
H12   H     H_    0.221925 0.275396 0.298643 0.168147
N1    N     N_2   0.443290 0.000000 0.876860 -0.335309
N2    N     N_2   0.556710 0.000000 0.123140 -0.343666
N3    N     N_2   0.943290 0.500000 0.876860 -0.335244
N4    N     N_2   0.056710 0.500000 0.123140 -0.343838
O1    O     O_R   0.422430 0.089640 0.419570 -0.495068
O2    O     O_R   0.577570 0.910360 0.580430 -0.507895
O3    O     O_R   0.577570 0.089640 0.580430 -0.583702
O4    O     O_R   0.422430 0.910360 0.419570 -0.550269
O5    O     O_R   0.922430 0.589640 0.419570 -0.494996
O6    O     O_R   0.077570 0.410360 0.580430 -0.507815
O7    O     O_R   0.077570 0.589640 0.580430 -0.583712
O8    O     O_R   0.922430 0.410360 0.419570 -0.550442
O9    O     O_R   0.384170 0.089650 0.673910 -0.599013
O10   O     O_R   0.615830 0.910350 0.326090 -0.587021
O11   O     O_R   0.615830 0.089650 0.326090 -0.571885
O12   O     O_R   0.384170 0.910350 0.673910 -0.589355
O13   O     O_R   0.884170 0.589650 0.673910 -0.599017
O14   O     O_R   0.115830 0.410350 0.326090 -0.587093
O15   O     O_R   0.115830 0.589650 0.326090 -0.571830
O16   O     O_R   0.884170 0.410350 0.673910 -0.589291
O17   O     O_3   0.678444 0.280499 0.408029 -0.589674
C29   C     C_3   0.618594 0.327801 0.544977 0.061824
H13   H     H_    0.658795 0.384570 0.558691 0.124935
H14   H     H_    0.591960 0.288818 0.647589 0.126388
C30   C     C_3   0.529927 0.359555 0.534709 -0.808464
H15   H     H_    0.481588 0.304947 0.539658 0.240824
H16   H     H_    0.489303 0.406605 0.631379 0.197638
H17   H     H_    0.552996 0.390942 0.425439 0.251966
O18   O     O_3   0.424600 0.745492 0.330265 -0.578002
C31   C     C_3   0.437611 0.687425 0.206845 0.035564
H18   H     H_    0.387068 0.700923 0.159307 0.156173
H19   H     H_    0.428191 0.620897 0.243942 0.151618
C32   C     C_3   0.541466 0.694748 0.077183 -0.781661
H20   H     H_    0.595464 0.682169 0.118026 0.247865
H21   H     H_    0.552814 0.647304 0.982201 0.199716
H22   H     H_    0.554666 0.759508 0.032048 0.246737
O19   O     O_3   0.280791 0.148408 0.375797 -0.556684
C33   C     C_3   0.200730 0.091119 0.428715 0.133659
H23   H     H_    0.138284 0.110406 0.542641 0.100339
H24   H     H_    0.226580 0.027655 0.439327 0.172285
C34   C     C_3   0.161279 0.082716 0.313362 -0.798757
H25   H     H_    0.105764 0.031404 0.344529 0.196567
H26   H     H_    0.126028 0.143691 0.314454 0.240693
H27   H     H_    0.221381 0.067509 0.196541 0.261614
O20   O     O_3   0.694505 0.837159 0.649462 -0.572116
C35   C     C_3   0.767785 0.898993 0.625405 0.097545
H28   H     H_    0.745177 0.960167 0.599732 0.193390
H29   H     H_    0.841255 0.881351 0.529243 0.104993
C36   C     C_3   0.778076 0.912220 0.771128 -0.788590
H30   H     H_    0.705318 0.909136 0.872117 0.262963
H31   H     H_    0.823586 0.860740 0.778169 0.214699
H32   H     H_    0.812393 0.974972 0.773472 0.205974
O21   O     O_3   0.178660 0.780424 0.407662 -0.589530
C37   C     C_3   0.118812 0.827848 0.544457 0.061764
H33   H     H_    0.159074 0.884587 0.558116 0.124950
H34   H     H_    0.092042 0.788943 0.647186 0.126415
C38   C     C_3   0.030265 0.859674 0.533918 -0.808421
H35   H     H_    0.981820 0.805124 0.539023 0.240805
H36   H     H_    0.989706 0.906854 0.630387 0.197619
H37   H     H_    0.053465 0.890930 0.424493 0.252025
O22   O     O_3   0.924523 0.245442 0.330270 -0.577830
C39   C     C_3   0.937399 0.187777 0.206408 0.035682
H38   H     H_    0.886868 0.201693 0.159056 0.156063
H39   H     H_    0.927834 0.121118 0.242906 0.151602
C40   C     C_3   0.041270 0.195128 0.076804 -0.781304
H40   H     H_    0.095220 0.181419 0.117178 0.247272
H41   H     H_    0.052251 0.148469 0.980945 0.199848
H42   H     H_    0.054899 0.260238 0.033072 0.247034
O23   O     O_3   0.780586 0.648340 0.376092 -0.556540
C41   C     C_3   0.700467 0.591111 0.429363 0.133603
H43   H     H_    0.638231 0.610363 0.543533 0.100311
H44   H     H_    0.726364 0.527603 0.439656 0.172189
C42   C     C_3   0.660603 0.582853 0.314518 -0.799266
H45   H     H_    0.605155 0.531483 0.345777 0.196662
H46   H     H_    0.625160 0.643824 0.316152 0.240804
H47   H     H_    0.720518 0.567809 0.197457 0.261611
O24   O     O_3   0.194250 0.336986 0.649678 -0.572070
C43   C     C_3   0.267525 0.398757 0.626063 0.097559
H48   H     H_    0.245034 0.459998 0.600427 0.193606
H49   H     H_    0.341052 0.381148 0.530028 0.104956
C44   C     C_3   0.277570 0.411780 0.772031 -0.788831
H50   H     H_    0.204760 0.408412 0.872852 0.262821
H51   H     H_    0.323214 0.360363 0.778900 0.214636
H52   H     H_    0.311636 0.474592 0.774893 0.206041
O25   O     O_3   0.390595 0.986832 0.186796 -0.583756
C45   C     C_3   0.366812 0.898778 0.192242 0.093758
H53   H     H_    0.312140 0.889732 0.311418 0.219089
H54   H     H_    0.430645 0.857132 0.162974 0.190439
C46   C     C_3   0.316641 0.868279 0.096114 -0.893618
H55   H     H_    0.370445 0.858930 0.973510 0.248423
H56   H     H_    0.283702 0.804638 0.130735 0.265561
H57   H     H_    0.256953 0.912650 0.113660 0.255015
O26   O     O_3   0.600235 0.046218 0.823676 -0.592160
C47   C     C_3   0.599192 0.137164 0.838846 0.058940
H58   H     H_    0.528472 0.165824 0.858729 0.146828
H59   H     H_    0.655951 0.160447 0.729234 0.178290
C48   C     C_3   0.627015 0.172669 0.960759 -0.883047
H60   H     H_    0.695725 0.142508 0.944607 0.255312
H61   H     H_    0.639351 0.242570 0.950015 0.219314
H62   H     H_    0.567098 0.162990 0.077367 0.268353
O27   O     O_3   0.890540 0.487101 0.186928 -0.583238
C49   C     C_3   0.866499 0.399095 0.192586 0.093963
H63   H     H_    0.811868 0.390121 0.311835 0.218619
H64   H     H_    0.930232 0.357319 0.163261 0.190042
C50   C     C_3   0.816144 0.368725 0.096660 -0.894005
H65   H     H_    0.869872 0.359200 0.974051 0.248414
H66   H     H_    0.782971 0.305183 0.131485 0.265744
H67   H     H_    0.756610 0.413262 0.114146 0.254988
O28   O     O_3   0.100257 0.546161 0.823624 -0.592153
C51   C     C_3   0.099305 0.637107 0.838876 0.058985
H68   H     H_    0.028519 0.665853 0.859253 0.146514
H69   H     H_    0.155882 0.660407 0.729134 0.178325
C52   C     C_3   0.127571 0.672484 0.960364 -0.882903
H70   H     H_    0.196277 0.642142 0.943838 0.255241
H71   H     H_    0.140106 0.742359 0.949510 0.219363
H72   H     H_    0.067804 0.662914 0.077143 0.268347

loop_
_geom_bond_atom_site_label_1
_geom_bond_atom_site_label_2
_ccdc_geom_bond_type
C29   H14   S    
C21   C26   S    
C9    N1    D    
C36   H30   S    
C42   H45   S    
O18   C31   S    
Cu2   N1    S    
C11   N3    D    
C18   C26   D    
C24   C27   S    
C7    O7    A    
C12   N4    D    
C8    O8    A    
O21   C37   S    
C27   O24   S    
C25   O22   S    
C5    C20   S    
Cu1   O1    S    
C34   H25   S    
C6    C19   S    
C16   H7    S    
C38   H35   S    
C31   H19   S    
C4    O4    A    
C5    O5    A    
Cu2   O3    S    
Cu4   O13   S    
C49   H63   S    
C40   H41   S    
C34   H27   S    
C29   C30   S    
C39   H38   S    
C37   H33   S    
Cu2   O9    S    
C21   O18   S    
H4    N3    S    
C4    C13   S    
C30   H16   S    
C17   H10   S    
C2    O2    A    
C9    O26   S    
C52   H70   S    
Cu1   O11   S    
C22   C25   S    
Cu2   O12   S    
C10   N2    D    
C44   H52   S    
C23   O20   S    
Cu3   O8    S    
C19   C27   D    
C9    C10   S    
Cu4   O7    S    
C51   H69   S    
C15   C23   D    
C29   H13   S    
Cu2   O2    S    
C16   C24   D    
C42   H47   S    
H1    N2    S    
Cu3   O14   S    
C6    O6    A    
H3    N4    S    
Cu4   O6    S    
O27   C49   S    
C49   H64   S    
C34   H26   S    
C36   H31   S    
C31   H18   S    
C5    O13   A    
Cu3   O15   S    
Cu4   O16   S    
C51   C52   S    
C47   H58   S    
C50   H67   S    
O20   C35   S    
C1    C16   S    
C3    O3    A    
C20   C28   D    
C32   H20   S    
C31   C32   S    
O19   C33   S    
C18   H9    S    
C48   H61   S    
C12   O27   S    
C30   H17   S    
C45   H54   S    
C24   O19   S    
C22   O17   S    
Cu1   Cu2   S    
C1    O9    A    
C46   H57   S    
C49   C50   S    
C35   H29   S    
Cu3   Cu4   S    
C7    C18   S    
C4    O12   A    
C13   H6    S    
C32   H21   S    
C13   C21   D    
H2    N1    S    
C23   C28   S    
Cu3   O5    S    
C2    C15   S    
C7    O15   A    
O24   C43   S    
C3    C14   S    
C47   H59   S    
C8    O16   A    
O17   C29   S    
C36   H32   S    
C33   H24   S    
Cu3   N4    S    
C44   H50   S    
Cu4   N3    S    
C50   H66   S    
C40   H42   S    
C45   C46   S    
C43   H49   S    
C37   C38   S    
C20   H11   S    
C19   H12   S    
C35   C36   S    
C44   H51   S    
O23   C41   S    
O26   C47   S    
C32   H22   S    
C47   C48   S    
C41   H44   S    
C11   C12   S    
C2    O10   A    
C41   H43   S    
C48   H62   S    
C52   H72   S    
C38   H37   S    
C33   C34   S    
O22   C39   S    
C37   H34   S    
C8    C17   S    
C38   H36   S    
Cu1   N2    S    
C17   C25   D    
C14   C22   D    
C43   C44   S    
C42   H46   S    
C45   H53   S    
O25   C45   S    
C10   O25   S    
C48   H60   S    
C14   H5    S    
C6    O14   A    
C35   H28   S    
C46   H55   S    
C39   H39   S    
C30   H15   S    
C15   H8    S    
C41   C42   S    
C28   O23   S    
C11   O28   S    
C26   O21   S    
C51   H68   S    
Cu1   O10   S    
C52   H71   S    
C33   H23   S    
C40   H40   S    
C46   H56   S    
C43   H48   S    
C50   H65   S    
C1    O1    A    
Cu1   O4    S    
O28   C51   S    
C39   C40   S    
C3    O11   A    
