data_mof_unit_28468.cif
_audit_creation_date              2012-12-11T15:27:01-0500
_audit_creation_method            fapswitch 2.2
_symmetry_space_group_name_H-M    P1
_symmetry_Int_Tables_number       1
_space_group_crystal_system       triclinic
_cell_length_a                    13.941934
_cell_length_b                    13.94193
_cell_length_c                    27.394628
_cell_angle_alpha                 90.0
_cell_angle_beta                  90.000011
_cell_angle_gamma                 119.999894
_cell_volume                      4611.50223384

loop_
_atom_site_label
_atom_site_type_symbol
_atom_type_description
_atom_site_fract_x
_atom_site_fract_y
_atom_site_fract_z
_atom_type_partial_charge
C1    C     C_R   0.234044 0.787414 0.568561 0.533880
C2    C     C_R   0.212586 0.446630 0.568561 0.533880
C3    C     C_R   0.553370 0.765956 0.568561 0.533880
C4    C     C_3   0.655106 0.733504 0.788690 -0.213175
C5    C     C_3   0.266498 0.921595 0.788691 -0.213175
C6    C     C_3   0.078399 0.344895 0.788690 -0.213174
C7    C     C_3   0.634312 0.720985 0.732918 -0.212614
C8    C     C_3   0.279018 0.913320 0.732919 -0.212613
C9    C     C_3   0.086674 0.365690 0.732918 -0.212613
C10   C     C_1   0.711674 0.864200 0.857963 -0.079046
C11   C     C_1   0.135801 0.847475 0.857963 -0.079046
C12   C     C_1   0.152525 0.288326 0.857963 -0.079046
C13   C     C_1   0.632362 0.817322 0.657649 -0.077765
C14   C     C_1   0.182679 0.815041 0.657649 -0.077765
C15   C     C_1   0.184960 0.367638 0.657649 -0.077765
C16   C     C_1   0.603288 0.798212 0.615712 -0.021793
C17   C     C_1   0.201788 0.805075 0.615712 -0.021793
C18   C     C_1   0.194925 0.396713 0.615712 -0.021793
C19   C     C_R   0.106858 0.219892 0.948809 0.550135
C20   C     C_R   0.780108 0.886966 0.948809 0.550135
C21   C     C_R   0.113034 0.893142 0.948809 0.550135
C22   C     C_R   0.625523 0.812135 0.387941 0.010229
C23   C     C_R   0.187864 0.813388 0.387941 0.010229
C24   C     C_R   0.186612 0.374476 0.387941 0.010229
C25   C     C_R   0.645613 0.912643 0.365795 -0.015046
C26   C     C_R   0.087357 0.732970 0.365795 -0.015046
C27   C     C_R   0.267030 0.354386 0.365795 -0.015046
C28   C     C_R   0.671414 0.928587 0.316108 -0.118932
C29   C     C_R   0.071413 0.742827 0.316107 -0.118932
C30   C     C_R   0.257173 0.328585 0.316108 -0.118932
C31   C     C_R   0.685247 0.850465 0.289434 0.025010
C32   C     C_R   0.149535 0.834781 0.289434 0.025010
C33   C     C_R   0.165218 0.314752 0.289434 0.025010
C34   C     C_R   0.231804 0.788722 0.432234 0.535567
C35   C     C_R   0.211278 0.443081 0.432234 0.535567
C36   C     C_R   0.556918 0.768196 0.432234 0.535567
C37   C     C_R   0.684098 0.761719 0.313870 -0.129960
C38   C     C_R   0.238281 0.922379 0.313870 -0.129960
C39   C     C_R   0.077620 0.315900 0.313871 -0.129960
C40   C     C_R   0.654018 0.742492 0.362593 -0.141843
C41   C     C_R   0.257507 0.911526 0.362593 -0.141843
C42   C     C_R   0.088474 0.345981 0.362593 -0.141843
C43   C     C_R   0.651282 0.763687 0.206921 -0.120098
C44   C     C_R   0.236313 0.887595 0.206922 -0.120099
C45   C     C_R   0.112404 0.348717 0.206922 -0.120098
C46   C     C_R   0.670962 0.771646 0.156916 -0.137057
C47   C     C_R   0.228354 0.899317 0.156916 -0.137057
C48   C     C_R   0.100683 0.329037 0.156916 -0.137057
C49   C     C_R   0.774625 0.971934 0.163924 -0.125353
C50   C     C_R   0.028066 0.802690 0.163924 -0.125353
C51   C     C_R   0.197309 0.225375 0.163924 -0.125353
C52   C     C_R   0.758090 0.963929 0.213967 -0.123593
C53   C     C_R   0.036071 0.794160 0.213967 -0.123593
C54   C     C_R   0.205838 0.241909 0.213967 -0.123594
C55   C     C_R   0.698251 0.859662 0.236097 0.035214
C56   C     C_R   0.140338 0.838589 0.236097 0.035214
C57   C     C_R   0.161410 0.301748 0.236097 0.035214
C58   C     C_R   0.734816 0.875742 0.135435 0.021897
C59   C     C_R   0.124259 0.859075 0.135435 0.021897
C60   C     C_R   0.140925 0.265183 0.135435 0.021897
C61   C     C_R   0.106638 0.221243 0.086372 0.542796
C62   C     C_R   0.778757 0.885396 0.086372 0.542797
C63   C     C_R   0.114604 0.893362 0.086372 0.542797
C64   C     C_3   0.576490 0.865359 0.735547 -0.212869
C65   C     C_3   0.134632 0.711129 0.735547 -0.212868
C66   C     C_3   0.288869 0.423509 0.735547 -0.212868
C67   C     C_3   0.776292 0.921965 0.720962 -0.216611
C68   C     C_3   0.078042 0.854336 0.720962 -0.216611
C69   C     C_3   0.145673 0.223708 0.720962 -0.216611
C70   C     C_3   0.796995 0.934643 0.776884 -0.212506
C71   C     C_3   0.065363 0.862360 0.776884 -0.212507
C72   C     C_3   0.137648 0.203005 0.776884 -0.212507
C73   C     C_1   0.736947 0.873614 0.900410 -0.026658
C74   C     C_1   0.126386 0.863333 0.900410 -0.026658
C75   C     C_1   0.136667 0.263053 0.900410 -0.026658
C76   C     C_3   0.655100 0.831717 0.710299 0.073468
C77   C     C_3   0.168283 0.823383 0.710299 0.073467
C78   C     C_3   0.176617 0.344900 0.710299 0.073467
C79   C     C_3   0.597184 0.877773 0.791442 -0.216362
C80   C     C_3   0.122218 0.719408 0.791441 -0.216363
C81   C     C_3   0.280589 0.402815 0.791442 -0.216363
C82   C     C_3   0.690311 0.852955 0.805181 0.074197
C83   C     C_3   0.147045 0.837356 0.805181 0.074196
C84   C     C_3   0.162644 0.309689 0.805181 0.074196
Cr1   Cr    Cr6+3 0.164410 0.584450 0.499910 1.029190
Cr2   Cr    Cr6+3 0.415550 0.579960 0.499910 1.029190
Cr3   Cr    Cr6+3 0.420040 0.835590 0.499910 1.029190
Cr4   Cr    Cr6+3 0.156760 0.076070 0.017830 1.018711
Cr5   Cr    Cr6+3 0.923930 0.080690 0.017830 1.018711
Cr6   Cr    Cr6+3 0.919310 0.843240 0.017830 1.018712
H1    H     H_    0.620629 0.963377 0.802839 0.110669
H2    H     H_    0.036612 0.657253 0.802838 0.110670
H3    H     H_    0.342748 0.379371 0.802839 0.110670
H4    H     H_    0.488599 0.801698 0.728407 0.107063
H5    H     H_    0.198289 0.686892 0.728406 0.107063
H6    H     H_    0.313099 0.511401 0.728407 0.107063
H7    H     H_    0.519421 0.819891 0.811008 0.107256
H8    H     H_    0.180095 0.699521 0.811007 0.107256
H9    H     H_    0.300470 0.480578 0.811008 0.107256
H10   H     H_    0.720920 0.713643 0.798138 0.111315
H11   H     H_    0.286366 0.007272 0.798139 0.111315
H12   H     H_    0.992724 0.279082 0.798138 0.111314
H13   H     H_    0.601625 0.682298 0.222874 0.105033
H14   H     H_    0.317702 0.919327 0.222874 0.105033
H15   H     H_    0.080673 0.398374 0.222874 0.105033
H16   H     H_    0.640047 0.696791 0.135363 0.114577
H17   H     H_    0.303210 0.943257 0.135363 0.114577
H18   H     H_    0.056743 0.359952 0.135363 0.114577
H19   H     H_    0.677350 0.000543 0.298152 0.094532
H20   H     H_    0.999457 0.676806 0.298152 0.094532
H21   H     H_    0.323193 0.322650 0.298152 0.094532
H22   H     H_    0.796649 0.039283 0.235366 0.103723
H23   H     H_    0.960717 0.757365 0.235365 0.103723
H24   H     H_    0.242634 0.203350 0.235366 0.103723
H25   H     H_    0.825888 0.053349 0.148162 0.136560
H26   H     H_    0.946651 0.772538 0.148162 0.136560
H27   H     H_    0.227461 0.174112 0.148162 0.136561
H28   H     H_    0.701392 0.704002 0.294788 0.100139
H29   H     H_    0.295997 0.997390 0.294788 0.100139
H30   H     H_    0.002609 0.298606 0.294788 0.100139
H31   H     H_    0.589821 0.945003 0.720156 0.111304
H32   H     H_    0.054987 0.644820 0.720155 0.111304
H33   H     H_    0.355182 0.410178 0.720157 0.111304
H34   H     H_    0.645956 0.668681 0.379393 0.133476
H35   H     H_    0.331319 0.977276 0.379393 0.133476
H36   H     H_    0.022724 0.354042 0.379393 0.133476
H37   H     H_    0.834462 0.899412 0.703549 0.107316
H38   H     H_    0.100601 0.935061 0.703549 0.107316
H39   H     H_    0.064950 0.165538 0.703549 0.107316
H40   H     H_    0.793372 0.002538 0.705154 0.109268
H41   H     H_    0.997467 0.790848 0.705154 0.109268
H42   H     H_    0.209166 0.206628 0.705154 0.109268
H43   H     H_    0.824074 0.021395 0.787866 0.109426
H44   H     H_    0.978610 0.802693 0.787865 0.109426
H45   H     H_    0.197320 0.175925 0.787866 0.109426
H46   H     H_    0.865534 0.918714 0.786161 0.105827
H47   H     H_    0.081298 0.946830 0.786161 0.105828
H48   H     H_    0.053180 0.134467 0.786161 0.105828
H49   H     H_    0.547530 0.654499 0.725758 0.109437
H50   H     H_    0.345499 0.893017 0.725759 0.109437
H51   H     H_    0.106970 0.452472 0.725758 0.109437
H52   H     H_    0.689973 0.694923 0.715677 0.110852
H53   H     H_    0.305086 0.995044 0.715678 0.110852
H54   H     H_    0.004951 0.310029 0.715677 0.110852
H55   H     H_    0.578375 0.672993 0.808209 0.109504
H56   H     H_    0.327005 0.905369 0.808210 0.109503
H57   H     H_    0.094618 0.421626 0.808209 0.109504
O1    O     O_R   0.137310 0.468260 0.552980 -0.512711
O2    O     O_R   0.531740 0.669050 0.552980 -0.512712
O3    O     O_R   0.330950 0.862690 0.552980 -0.512711
O4    O     O_R   0.180530 0.983530 0.965090 -0.511639
O5    O     O_R   0.016470 0.197000 0.965090 -0.511639
O6    O     O_R   0.803000 0.819470 0.965090 -0.511638
O7    O     O_R   0.174120 0.688790 0.549730 -0.500941
O8    O     O_R   0.311210 0.485330 0.549730 -0.500941
O9    O     O_R   0.514670 0.825880 0.549730 -0.500941
O10   O     O_R   0.139940 0.470480 0.446230 -0.513350
O11   O     O_R   0.529520 0.669460 0.446230 -0.513350
O12   O     O_R   0.330540 0.860060 0.446230 -0.513350
O13   O     O_R   0.176560 0.690850 0.450770 -0.485631
O14   O     O_R   0.309150 0.485710 0.450770 -0.485631
O15   O     O_R   0.514290 0.823440 0.450770 -0.485631
O16   O     O_3   0.333333 0.666667 0.499990 -0.266140
O17   O     O_3   0.000000 0.000000 0.017910 -0.216124
O18   O     O_R   0.149710 0.171070 0.967700 -0.496091
O19   O     O_R   0.828930 0.978640 0.967700 -0.496091
O20   O     O_R   0.021360 0.850290 0.967700 -0.496091
O21   O     O_R   0.178510 0.985930 0.071830 -0.518852
O22   O     O_R   0.014070 0.192580 0.071830 -0.518852
O23   O     O_R   0.807420 0.821490 0.071830 -0.518852
O24   O     O_R   0.147830 0.173300 0.066650 -0.501744
O25   O     O_R   0.826700 0.974530 0.066650 -0.501744
O26   O     O_R   0.025470 0.852170 0.066650 -0.501744
C85   C     C_R   0.639414 0.001213 0.393183 0.052397
C86   C     C_R   0.700376 0.043242 0.436531 -0.069900
C87   C     C_R   0.689784 0.121757 0.464085 -0.113656
C88   C     C_R   0.619540 0.159889 0.448305 -0.105570
C89   C     C_R   0.562009 0.121968 0.404328 -0.109161
C90   C     C_R   0.571582 0.042680 0.376796 -0.088497
H58   H     H_    0.754170 0.013374 0.449441 0.093927
H59   H     H_    0.735195 0.152241 0.497918 0.100109
H60   H     H_    0.609445 0.218507 0.470293 0.094826
H61   H     H_    0.508817 0.152949 0.391960 0.106594
H62   H     H_    0.524235 0.011814 0.343416 0.094356
C91   C     C_R   0.998787 0.638201 0.393183 0.052397
C92   C     C_R   0.956757 0.657134 0.436530 -0.069901
C93   C     C_R   0.878242 0.568028 0.464085 -0.113656
C94   C     C_R   0.840111 0.459652 0.448305 -0.105570
C95   C     C_R   0.878034 0.440042 0.404329 -0.109161
C96   C     C_R   0.957321 0.528902 0.376796 -0.088496
H63   H     H_    0.986625 0.740797 0.449440 0.093928
H64   H     H_    0.847758 0.582956 0.497917 0.100109
H65   H     H_    0.781493 0.390939 0.470293 0.094826
H66   H     H_    0.847053 0.355869 0.391960 0.106593
H67   H     H_    0.988189 0.512421 0.343417 0.094357
C97   C     C_R   0.361800 0.360586 0.393183 0.052397
C98   C     C_R   0.342867 0.299624 0.436531 -0.069901
C99   C     C_R   0.431973 0.310215 0.464085 -0.113656
C100  C     C_R   0.540349 0.380460 0.448305 -0.105569
C101  C     C_R   0.559959 0.437992 0.404329 -0.109161
C102  C     C_R   0.471098 0.428419 0.376796 -0.088497
H68   H     H_    0.259204 0.245829 0.449441 0.093927
H69   H     H_    0.417046 0.264804 0.497918 0.100108
H70   H     H_    0.609062 0.390555 0.470293 0.094825
H71   H     H_    0.644131 0.491184 0.391960 0.106594
H72   H     H_    0.487578 0.475766 0.343416 0.094356

loop_
_geom_bond_atom_site_label_1
_geom_bond_atom_site_label_2
_ccdc_geom_bond_type
C58   C62   S    
C15   C18   T    
Cr3   O16   S    
C101  H71   S    
Cr6   O20   S    
C2    C18   S    
C24   C42   A    
C24   C27   A    
C6    C9    S    
C89   C90   A    
C44   H14   S    
C91   C96   A    
C71   H47   S    
C25   C28   A    
Cr6   O26   S    
C45   C57   A    
C35   O14   A    
C50   C59   A    
C21   O4    A    
C29   C32   A    
C4    C7    S    
C5    C83   S    
C26   C91   S    
C14   C77   S    
C15   C78   S    
C52   H22   S    
C2    O1    A    
C64   H31   S    
C39   H30   S    
C100  H70   S    
C12   C84   S    
C23   C26   A    
C92   H63   S    
C85   C86   A    
C95   H66   S    
Cr5   O5    S    
C37   H28   S    
C45   H15   S    
C101  C102  A    
Cr4   O21   S    
Cr3   O3    S    
C70   H43   S    
C102  H72   S    
Cr1   O1    S    
C48   C60   A    
C99   C100  A    
C61   O24   A    
Cr1   O13   S    
C32   C38   A    
C98   C99   A    
C68   H38   S    
Cr5   O17   S    
C79   H1    S    
C89   H61   S    
C44   C47   A    
C36   O11   A    
Cr1   O7    S    
C34   O12   A    
C49   C52   A    
C72   H48   S    
C100  C101  A    
C65   C80   S    
C46   C58   A    
C27   C30   A    
C70   H46   S    
C14   C17   T    
C69   C78   S    
C95   C96   A    
Cr1   O10   S    
C71   H44   S    
C80   C83   S    
C40   H34   S    
C25   C85   S    
C9    H54   S    
C53   H23   S    
C63   O26   A    
C39   C42   A    
C71   C83   S    
C87   H59   S    
C62   O23   A    
C5    H11   S    
C3    O2    A    
C24   C35   S    
C6    C84   S    
C20   O6    A    
C50   C53   A    
C41   H35   S    
C29   H20   S    
C1    O3    A    
C65   C77   S    
C38   C41   A    
C64   C79   S    
Cr2   O2    S    
Cr2   O14   S    
C9    H51   S    
C72   H45   S    
C81   H9    S    
C11   C83   S    
Cr4   O17   S    
C47   C59   A    
C21   C74   S    
C10   C82   S    
C49   C58   A    
C31   C37   A    
Cr6   O17   S    
C94   C95   A    
C80   H2    S    
C68   H41   S    
Cr2   O8    S    
C35   O10   A    
C67   H37   S    
C5    C8    S    
C81   H3    S    
C44   C56   A    
C86   C87   A    
C13   C76   S    
C23   C34   S    
C22   C40   A    
Cr6   O23   S    
C19   O5    A    
C64   C76   S    
C98   H68   S    
C2    O8    A    
C33   C39   A    
C65   H32   S    
Cr6   O6    S    
Cr2   O11   S    
C93   H64   S    
C72   C84   S    
C96   H67   S    
C10   C73   T    
C38   H29   S    
C66   C78   S    
C43   C55   A    
C63   O21   A    
C49   H25   S    
C22   C25   A    
C94   H65   S    
Cr4   O18   S    
C47   H17   S    
C4    H10   S    
C8    C77   S    
Cr1   O16   S    
Cr4   O4    S    
C13   C16   T    
C67   H40   S    
C61   O22   A    
C69   H42   S    
C81   C84   S    
C62   O25   A    
C66   H6    S    
C90   H62   S    
C45   C48   A    
C68   C77   S    
C87   C88   A    
C33   C57   S    
C5    H56   S    
C30   C33   A    
C80   H8    S    
Cr3   O9    S    
C59   C63   S    
C20   O19   A    
C79   H7    S    
C28   C31   A    
Cr5   O25   S    
C69   C72   S    
C97   C98   A    
Cr2   O16   S    
C11   C74   T    
C21   O20   A    
C54   H24   S    
C79   C82   S    
C52   C55   A    
C86   H58   S    
C27   C97   S    
C28   H19   S    
C37   C40   A    
C7    C76   S    
C22   C36   S    
C1    C17   S    
C23   C41   A    
C30   H21   S    
C8    H50   S    
C67   C70   S    
C51   C54   A    
C51   C60   A    
C19   C75   S    
C97   C102  A    
Cr5   O22   S    
C93   C94   A    
C66   C81   S    
C7    H49   S    
C6    H57   S    
C91   C92   A    
C48   H18   S    
C36   O15   A    
C68   C71   S    
C4    H55   S    
C46   H16   S    
C3    O9    A    
C51   H27   S    
Cr3   O12   S    
C20   C73   S    
C8    H53   S    
C50   H26   S    
C9    C78   S    
C6    H12   S    
C1    O7    A    
C70   C82   S    
C43   C46   A    
C43   H13   S    
Cr5   O19   S    
C42   H36   S    
C64   H4    S    
C65   H5    S    
Cr3   O15   S    
C4    C82   S    
C26   C29   A    
C69   H39   S    
C88   C89   A    
C12   C75   T    
C53   C56   A    
C99   H69   S    
Cr4   O24   S    
C66   H33   S    
C60   C61   S    
C67   C76   S    
C19   O18   A    
C31   C55   S    
C92   C93   A    
C85   C90   A    
C32   C56   S    
C7    H52   S    
C3    C16   S    
C88   H60   S    
C54   C57   A    
C34   O13   A    
