data_mof_unit_9681.cif
_audit_creation_date              2013-03-05T15:45:11-0500
_audit_creation_method            fapswitch 2.2
_symmetry_space_group_name_H-M    P1
_symmetry_Int_Tables_number       1
_space_group_crystal_system       triclinic
_cell_length_a                    24.763034
_cell_length_b                    17.208015
_cell_length_c                    15.653994
_cell_angle_alpha                 90.274338
_cell_angle_beta                  50.733582
_cell_angle_gamma                 90.049624
_cell_volume                      5164.31387491

loop_
_atom_site_label
_atom_site_type_symbol
_atom_site_description
_atom_site_fract_x
_atom_site_fract_y
_atom_site_fract_z
_atom_type_partial_charge
C1    C     C_R   0.360162 0.148630 0.737976 -0.099540
C2    C     C_R   0.665622 0.889680 0.199404 -0.092899
C3    C     C_R   0.640711 0.147953 0.260759 -0.109418
C4    C     C_R   0.335741 0.885927 0.795395 -0.100243
C5    C     C_R   0.847468 0.638687 0.764976 -0.099384
C6    C     C_R   0.165668 0.392489 0.197419 -0.089748
C7    C     C_R   0.155317 0.633974 0.229588 -0.122944
C8    C     C_R   0.834409 0.392844 0.802509 -0.085757
H1    H     H_    0.319599 0.170078 0.737246 0.150299
H2    H     H_    0.718661 0.892177 0.168592 0.207606
H3    H     H_    0.681462 0.169074 0.261276 0.153770
H4    H     H_    0.283018 0.885607 0.825144 0.233207
H5    H     H_    0.800788 0.654935 0.777964 0.185264
H6    H     H_    0.218823 0.395417 0.166294 0.199421
H7    H     H_    0.204048 0.646340 0.211920 0.202055
H8    H     H_    0.781240 0.395640 0.833715 0.199982
N1    N     N_R   0.388930 0.078160 0.705470 -0.037169
N2    N     N_R   0.611070 0.921840 0.294530 -0.070817
N3    N     N_R   0.611070 0.078160 0.294530 -0.042885
N4    N     N_R   0.388930 0.921840 0.705470 -0.072748
N5    N     N_R   0.888930 0.578160 0.705470 -0.053618
N6    N     N_R   0.111070 0.421840 0.294530 -0.069314
N7    N     N_R   0.111070 0.578160 0.294530 -0.057760
N8    N     N_R   0.888930 0.421840 0.705470 -0.070117
C9    C     C_R   0.615915 0.103248 0.589669 -0.114607
C10   C     C_R   0.416330 0.853350 0.407651 -0.160624
C11   C     C_R   0.383879 0.102597 0.410604 -0.107929
C12   C     C_R   0.583983 0.853195 0.590987 -0.184755
C13   C     C_R   0.116852 0.602132 0.588482 -0.128467
C14   C     C_R   0.916983 0.352641 0.408200 -0.165311
C15   C     C_R   0.884890 0.605370 0.410332 -0.112312
C16   C     C_R   0.083485 0.353178 0.591545 -0.171006
H9    H     H_    0.599729 0.097777 0.671235 0.165759
H10   H     H_    0.445025 0.836171 0.322960 0.180248
H11   H     H_    0.399965 0.096338 0.329113 0.168510
H12   H     H_    0.555933 0.835883 0.675015 0.170247
H13   H     H_    0.102824 0.593048 0.668055 0.170976
H14   H     H_    0.945988 0.334716 0.323787 0.182651
H15   H     H_    0.901065 0.600853 0.328728 0.173680
H16   H     H_    0.054614 0.336036 0.676087 0.180350
N9    N     N_R   0.580500 0.077840 0.556650 -0.073679
N10   N     N_R   0.419500 0.922160 0.443350 -0.067550
N11   N     N_R   0.419500 0.077840 0.443350 -0.072817
N12   N     N_R   0.580500 0.922160 0.556650 -0.065530
N13   N     N_R   0.080500 0.577840 0.556650 -0.070388
N14   N     N_R   0.919500 0.422160 0.443350 -0.066970
N15   N     N_R   0.919500 0.577840 0.443350 -0.068577
N16   N     N_R   0.080500 0.422160 0.556650 -0.067578
C17   C     C_R   0.688355 0.102274 0.407217 0.270118
C18   C     C_R   0.337139 0.856184 0.590572 0.292820
C19   C     C_R   0.311505 0.102156 0.592988 0.264358
C20   C     C_R   0.662643 0.855874 0.408326 0.316010
C21   C     C_R   0.188383 0.602790 0.406122 0.293475
C22   C     C_R   0.838901 0.354961 0.590928 0.328681
C23   C     C_R   0.812172 0.604660 0.593229 0.271403
C24   C     C_R   0.161469 0.354907 0.408664 0.334864
N17   N     N_R   0.626210 0.077590 0.443410 -0.091366
N18   N     N_R   0.373790 0.922410 0.556590 -0.083980
N19   N     N_R   0.373790 0.077590 0.556590 -0.092825
N20   N     N_R   0.626210 0.922410 0.443410 -0.085323
N21   N     N_R   0.126210 0.577590 0.443410 -0.089410
N22   N     N_R   0.873790 0.422410 0.556590 -0.084601
N23   N     N_R   0.873790 0.577590 0.556590 -0.092374
N24   N     N_R   0.126210 0.422410 0.443410 -0.084521
C25   C     C_R   0.557836 0.142376 0.243796 0.263189
C26   C     C_R   0.423787 0.888185 0.799603 0.203401
C27   C     C_R   0.442643 0.142666 0.755767 0.270476
C28   C     C_R   0.576807 0.892352 0.197535 0.233849
C29   C     C_R   0.069888 0.630299 0.218224 0.235860
C30   C     C_R   0.924215 0.396006 0.802345 0.244511
C31   C     C_R   0.932809 0.634431 0.776301 0.252437
C32   C     C_R   0.075783 0.394925 0.197713 0.235293
N25   N     N_R   0.554800 0.077270 0.294580 -0.086004
N26   N     N_R   0.445200 0.922730 0.705420 -0.082770
N27   N     N_R   0.445200 0.077270 0.705420 -0.083007
N28   N     N_R   0.554800 0.922730 0.294580 -0.085720
N29   N     N_R   0.054800 0.577270 0.294580 -0.083236
N30   N     N_R   0.945200 0.422730 0.705420 -0.087751
N31   N     N_R   0.945200 0.577270 0.705420 -0.085231
N32   N     N_R   0.054800 0.422730 0.294580 -0.086100
C33   C     C_R   0.391861 0.189978 0.771532 -0.128730
C34   C     C_R   0.645351 0.868326 0.138188 -0.100820
C35   C     C_R   0.609298 0.189162 0.226960 -0.123835
C36   C     C_R   0.356927 0.860855 0.852838 -0.094730
C37   C     C_R   0.873503 0.675375 0.810368 -0.125573
C38   C     C_R   0.144424 0.373436 0.136660 -0.111771
C39   C     C_R   0.131775 0.666812 0.179096 -0.095645
C40   C     C_R   0.855686 0.374273 0.863253 -0.110008
C41   C     C_R   0.682567 0.120543 0.497706 -0.108544
C42   C     C_R   0.364391 0.810921 0.497850 -0.106267
C43   C     C_R   0.317134 0.119940 0.502694 -0.107555
C44   C     C_R   0.636042 0.810748 0.500194 -0.102407
C45   C     C_R   0.183060 0.620254 0.496189 -0.114112
C46   C     C_R   0.865536 0.309805 0.498484 -0.106174
C47   C     C_R   0.818665 0.624046 0.502581 -0.116451
C48   C     C_R   0.135246 0.310275 0.500874 -0.103164
Ni1   Ni    Ni4+2 0.382710 0.000000 0.629850 0.324329
Ni2   Ni    Ni4+2 0.617290 1.000000 0.370150 0.312288
Ni3   Ni    Ni4+2 0.882710 0.500000 0.629850 0.312415
Ni4   Ni    Ni4+2 0.117290 0.500000 0.370150 0.303172
Ni5   Ni    Ni4+2 0.513020 0.000000 0.629850 0.244812
Ni6   Ni    Ni4+2 0.486980 1.000000 0.370150 0.238953
Ni7   Ni    Ni4+2 0.013020 0.500000 0.629850 0.241054
Ni8   Ni    Ni4+2 0.986980 0.500000 0.370150 0.240033
C49   C     C_R   0.246867 0.140048 0.442993 -0.114725
C50   C     C_R   0.700370 0.781889 0.563856 -0.117434
C51   C     C_R   0.754158 0.139942 0.555214 -0.117151
C52   C     C_R   0.301314 0.778833 0.432788 -0.113431
C53   C     C_R   0.744845 0.640138 0.449362 -0.102069
C54   C     C_R   0.195153 0.275971 0.570959 -0.106508
C55   C     C_R   0.257089 0.638654 0.549134 -0.104713
C56   C     C_R   0.804350 0.276273 0.430187 -0.106020
H17   H     H_    0.267590 0.087595 0.393197 0.146656
H18   H     H_    0.685352 0.837821 0.605362 0.145130
H19   H     H_    0.734100 0.087270 0.603735 0.138268
H20   H     H_    0.316109 0.834196 0.390714 0.149593
H21   H     H_    0.762867 0.585419 0.404737 0.144718
H22   H     H_    0.177655 0.329817 0.617740 0.148935
H23   H     H_    0.239196 0.584588 0.594489 0.138669
H24   H     H_    0.821277 0.330283 0.384640 0.150527
C57   C     C_R   0.697519 0.685469 0.452010 -0.041482
C58   C     C_R   0.240736 0.230104 0.569525 -0.046001
C59   C     C_R   0.304206 0.684942 0.546063 -0.043368
C60   C     C_R   0.758153 0.230891 0.432464 -0.047228
C61   C     C_R   0.199973 0.186211 0.445336 -0.047420
C62   C     C_R   0.746267 0.736731 0.562446 -0.054265
C63   C     C_R   0.801649 0.185629 0.552031 -0.046112
C64   C     C_R   0.255475 0.732885 0.434919 -0.058112
H25   H     H_    0.678888 0.666532 0.408663 0.159171
H26   H     H_    0.257242 0.248268 0.616272 0.139212
H27   H     H_    0.322656 0.667453 0.590037 0.143295
H28   H     H_    0.740713 0.249443 0.387321 0.139002
H29   H     H_    0.184156 0.169756 0.397212 0.165453
H30   H     H_    0.765653 0.757215 0.604202 0.133194
H31   H     H_    0.818414 0.168763 0.598578 0.157467
H32   H     H_    0.235990 0.752325 0.393065 0.146199
C65   C     C_R   0.676674 0.756780 0.507714 0.129222
C66   C     C_R   0.266814 0.162724 0.505277 0.157718
C67   C     C_R   0.324849 0.755523 0.489532 0.142559
C68   C     C_R   0.732830 0.163341 0.495294 0.161315
C69   C     C_R   0.175397 0.254746 0.507938 0.127520
C70   C     C_R   0.768688 0.666581 0.504744 0.160133
C71   C     C_R   0.825417 0.254389 0.491005 0.132155
C72   C     C_R   0.233155 0.663442 0.493463 0.159163
H33   H     H_    0.319327 0.727043 0.834461 0.161512
H34   H     H_    0.736387 0.225275 0.094891 0.178598
H35   H     H_    0.779255 0.897290 0.979507 0.180522
H36   H     H_    0.264991 0.224890 0.905766 0.181966
H37   H     H_    0.718802 0.382242 0.017950 0.190747
H38   H     H_    0.258677 0.631931 0.008640 0.164133
H39   H     H_    0.280994 0.383942 0.981503 0.185486
H40   H     H_    0.817888 0.798634 0.792608 0.164841
C73   C     C_2   0.635977 0.262619 0.166185 0.351791
C74   C     C_2   0.317582 0.804742 0.941608 0.378347
C75   C     C_2   0.365129 0.263578 0.832776 0.348959
C76   C     C_2   0.690886 0.834589 0.025813 0.346681
C77   C     C_2   0.176504 0.714032 0.080387 0.370920
C78   C     C_2   0.813392 0.339700 0.972965 0.327308
C79   C     C_2   0.839266 0.741572 0.887842 0.349162
C80   C     C_2   0.187049 0.339161 0.026417 0.326629
C81   C     C_2   0.704951 0.273303 0.103145 -0.213322
C82   C     C_2   0.297954 0.740156 0.918689 -0.211385
C83   C     C_2   0.296058 0.273689 0.896727 -0.191891
C84   C     C_2   0.759423 0.852197 0.957228 -0.207009
C85   C     C_2   0.242841 0.689554 0.003753 -0.204797
C86   C     C_2   0.743782 0.340711 0.034705 -0.177957
C87   C     C_2   0.810893 0.798482 0.868493 -0.216954
C88   C     C_2   0.256603 0.341396 0.964604 -0.205427
N33   N     N_R   0.752574 0.085846 0.298610 0.249690
O1    O     O_R   0.812498 0.098008 0.275238 -0.304431
O2    O     O_R   0.751609 0.051682 0.225323 -0.359255
N34   N     N_R   0.267559 0.848900 0.692206 0.224865
O3    O     O_R   0.225417 0.908122 0.732661 -0.282705
O4    O     O_R   0.244033 0.781702 0.739911 -0.379505
N35   N     N_R   0.247378 0.086282 0.701607 0.250716
O5    O     O_R   0.187398 0.097719 0.724872 -0.304004
O6    O     O_R   0.248524 0.053209 0.774959 -0.340632
N36   N     N_R   0.731209 0.847290 0.304920 0.224938
O7    O     O_R   0.774330 0.905381 0.263674 -0.291467
O8    O     O_R   0.753510 0.779413 0.257896 -0.332889
N37   N     N_R   0.252405 0.583206 0.299031 0.244192
O9    O     O_R   0.312182 0.606513 0.268942 -0.311954
O10   O     O_R   0.251887 0.535061 0.235300 -0.378050
N38   N     N_R   0.771322 0.344811 0.695405 0.222625
O11   O     O_R   0.723160 0.396867 0.731525 -0.284937
O12   O     O_R   0.754929 0.279404 0.747812 -0.395794
N39   N     N_R   0.747547 0.587252 0.700314 0.248406
O13   O     O_R   0.688250 0.610493 0.728375 -0.308341
O14   O     O_R   0.747105 0.541798 0.766852 -0.351703
N40   N     N_R   0.229001 0.344314 0.304080 0.223778
O15   O     O_R   0.278584 0.393040 0.272436 -0.281508
O16   O     O_R   0.244351 0.279628 0.249643 -0.389928
I1    I     I_    0.525513 0.152556 0.147117 -0.177615
I2    I     I_    0.467010 0.907793 0.879407 -0.216541
I3    I     I_    0.472843 0.151398 0.855521 -0.159361
I4    I     I_    0.531107 0.918630 0.123257 -0.245287
I5    I     I_    0.028164 0.640064 0.135236 -0.192634
I6    I     I_    0.972984 0.426198 0.871109 -0.211216
I7    I     I_    0.980971 0.652172 0.848574 -0.172130
I8    I     I_    0.025974 0.420655 0.129448 -0.227276
N41   N     N_R   0.294901 0.822778 0.049861 0.261305
O17   O     O_R   0.286776 0.767963 0.114026 -0.379704
O18   O     O_R   0.288779 0.894873 0.080330 -0.319699
N42   N     N_R   0.589129 0.319060 0.176898 0.260203
O19   O     O_R   0.527045 0.327620 0.271379 -0.340394
O20   O     O_R   0.602819 0.350678 0.089776 -0.297542
N43   N     N_R   0.662929 0.775848 0.997408 0.265146
O21   O     O_R   0.609596 0.734590 0.074476 -0.313677
O22   O     O_R   0.686514 0.767880 0.896275 -0.365049
N44   N     N_R   0.411888 0.320458 0.821566 0.257163
O23   O     O_R   0.474350 0.327344 0.727517 -0.347078
O24   O     O_R   0.397588 0.354420 0.908237 -0.306038
N45   N     N_R   0.847128 0.292610 0.003184 0.256402
O25   O     O_R   0.900040 0.248684 0.930008 -0.326821
O26   O     O_R   0.825040 0.293807 0.103940 -0.347052
N46   N     N_R   0.150886 0.786534 0.072645 0.263980
O27   O     O_R   0.098021 0.820904 0.161859 -0.314455
O28   O     O_R   0.173099 0.812327 0.977414 -0.305594
N47   N     N_R   0.154054 0.290652 0.995832 0.258467
O29   O     O_R   0.102362 0.245668 0.068366 -0.313377
O30   O     O_R   0.176036 0.291056 0.895137 -0.352887
N48   N     N_R   0.828684 0.739611 0.989324 0.262087
O31   O     O_R   0.842128 0.800539 0.022492 -0.298684
O32   O     O_R   0.809777 0.675385 0.045052 -0.314203

loop_
_geom_bond_atom_site_label_1
_geom_bond_atom_site_label_2
_geom_bond_distance
_ccdc_geom_bond_type
C17   N33   1.439806 S    
N40   O15   1.299346 A    
C2    N2    1.339996 A    
N8    Ni3   1.865576 S    
N33   O2    1.300221 A    
N41   O17   1.300797 A    
C14   N14   1.332177 A    
C29   N29   1.358500 A    
C74   N41   1.440088 S    
C30   C40   1.372172 A    
N27   Ni5   1.860594 S    
N10   N18   1.372430 A    
C31   N31   1.360853 A    
C42   C67   1.429388 S    
N41   O18   1.301044 A    
C53   H21   1.083316 S    
N35   O6    1.300272 A    
N45   O25   1.301463 A    
C17   C41   1.365522 A    
C78   N45   1.443386 S    
C10   N10   1.330241 A    
C50   H18   1.084243 S    
C2    C34   1.382210 A    
C46   C71   1.433381 S    
C56   C71   1.397444 A    
C49   H17   1.083231 S    
C63   H31   1.082884 S    
C56   C60   1.366345 A    
N20   Ni2   1.866139 S    
H35   C84   1.085591 S    
C64   H32   1.084696 S    
N15   N23   1.372477 A    
N5    Ni3   1.857191 S    
N39   O14   1.300069 A    
C15   C47   1.369918 A    
C25   C35   1.384465 A    
C80   N47   1.443551 S    
C30   N30   1.338589 A    
H33   C82   1.087885 S    
C1    C33   1.384113 A    
H39   C88   1.081864 S    
C6    N6    1.336450 A    
C59   C67   1.398619 A    
C32   N32   1.339545 A    
C25   N25   1.351115 A    
N38   O11   1.299197 A    
C60   H28   1.084680 S    
C55   H23   1.083241 S    
N33   O1    1.300971 A    
C57   C65   1.397761 A    
C51   C68   1.397121 A    
C76   N43   1.443220 S    
C60   C68   1.393107 A    
N23   Ni3   1.866139 S    
C20   N20   1.339788 A    
N16   N24   1.372477 A    
C19   C43   1.365884 A    
C49   C66   1.397312 A    
C31   C37   1.394389 A    
C36   C74   1.452596 S    
C18   C42   1.385272 A    
C7    C39   1.368218 A    
N4    Ni1   1.865576 S    
C79   C87   1.348278 D    
C23   N23   1.328554 A    
N40   O16   1.300498 A    
C24   N24   1.342405 A    
C11   C43   1.370998 A    
C53   C70   1.396782 A    
C23   N39   1.438377 S    
C4    H4    1.073217 S    
N13   Ni7   1.867215 S    
C5    H5    1.076189 S    
C81   C86   1.457333 S    
C29   C39   1.390076 A    
N11   N19   1.372477 A    
C73   N42   1.439227 S    
C5    C37   1.376248 A    
N32   Ni8   1.860598 S    
N45   O26   1.301889 A    
N7    Ni4   1.865577 S    
C48   C69   1.433759 S    
C8    H8    1.077092 S    
C15   N15   1.337867 A    
C10   H10   1.074273 S    
C29   I5    2.117769 S    
N42   O19   1.301040 A    
C16   N16   1.330562 A    
N31   Ni7   1.860594 S    
N18   Ni1   1.857991 S    
C21   N21   1.327698 A    
C27   I3    2.120398 S    
C44   C65   1.428734 S    
N10   Ni6   1.867215 S    
C62   H30   1.084758 S    
C19   N35   1.439852 S    
C26   I2    2.123205 S    
N3    Ni2   1.865577 S    
N34   O4    1.300230 A    
N36   O7    1.299204 A    
C25   I1    2.120846 S    
N37   O10   1.300021 A    
N28   Ni6   1.860598 S    
H34   C81   1.085572 S    
C24   N40   1.429014 S    
N6    Ni4   1.857195 S    
C61   C69   1.398862 A    
C55   C59   1.387741 A    
N43   O21   1.301311 A    
C18   N18   1.341000 A    
N3    N25   1.392989 A    
C1    H1    1.077268 S    
N46   O27   1.301180 A    
C58   C66   1.393161 A    
C23   C47   1.366117 A    
C77   C85   1.347906 D    
N47   O29   1.301489 A    
C56   H24   1.084069 S    
C50   C65   1.397172 A    
C22   N22   1.341216 A    
C75   C83   1.337648 D    
N37   O9    1.300798 A    
H38   C85   1.087313 S    
N14   Ni8   1.867215 S    
C12   N12   1.330305 A    
C52   C64   1.365855 A    
C39   C77   1.455565 S    
C73   C81   1.338847 D    
C8    C40   1.386128 A    
C5    N5    1.337388 A    
C4    N4    1.325974 A    
C54   C69   1.397568 A    
N48   O32   1.301155 A    
C21   N37   1.438243 S    
C28   C34   1.384367 A    
C32   I8    2.129144 S    
C43   C66   1.426162 S    
C32   C38   1.371365 A    
N35   O5    1.300977 A    
C4    C36   1.367950 A    
N24   Ni4   1.866139 S    
C41   C68   1.425549 S    
N5    N31   1.393021 A    
N4    N26   1.392994 A    
C28   I4    2.123367 S    
C63   C71   1.398902 A    
C28   N28   1.350164 A    
N7    N29   1.392989 A    
C3    N3    1.331917 A    
C54   H22   1.084028 S    
C64   C72   1.393367 A    
C51   H19   1.083235 S    
C45   C72   1.422906 S    
C55   C72   1.396603 A    
N26   Ni5   1.866602 S    
N8    N30   1.392994 A    
N25   Ni6   1.866604 S    
C16   C48   1.375204 A    
N14   N22   1.372430 A    
C27   C33   1.382779 A    
C40   C78   1.460208 S    
C16   H16   1.074827 S    
C3    C35   1.383244 A    
N19   Ni1   1.866139 S    
C22   N38   1.429493 S    
C20   C44   1.384084 A    
N21   Ni4   1.857989 S    
C19   N19   1.329895 A    
C9    N9    1.341047 A    
C2    H2    1.075974 S    
C6    C38   1.385269 A    
H40   C87   1.086595 S    
N34   O3    1.299114 A    
C78   C86   1.340418 D    
N1    N27   1.393021 A    
C15   H15   1.072243 S    
C61   H29   1.082780 S    
C24   C48   1.385028 A    
C57   H25   1.083233 S    
C77   N46   1.440069 S    
N2    N28   1.393016 A    
N15   Ni8   1.861409 S    
C59   H27   1.083297 S    
N30   Ni7   1.866602 S    
C82   C85   1.450014 S    
C9    C41   1.371371 A    
C74   C82   1.347638 D    
C84   C87   1.468672 S    
H37   C86   1.081731 S    
N42   O20   1.300941 A    
C33   C75   1.465565 S    
C52   C67   1.395955 A    
N36   O8    1.299780 A    
N12   Ni5   1.861412 S    
C31   I7    2.121250 S    
C35   C73   1.467596 S    
C10   C42   1.374899 A    
C79   N48   1.437715 S    
C37   C79   1.474475 S    
C50   C62   1.365916 A    
N44   O24   1.300881 A    
N38   O12   1.300425 A    
C49   C61   1.388601 A    
C51   C63   1.388598 A    
C11   H11   1.073828 S    
C52   H20   1.084241 S    
C83   C88   1.455001 S    
N11   Ni6   1.861409 S    
N9    N17   1.372430 A    
C6    H6    1.077417 S    
C14   C46   1.375857 A    
C54   C58   1.366320 A    
C76   C84   1.349271 D    
C13   C45   1.370252 A    
N16   Ni7   1.861412 S    
C53   C57   1.386865 A    
C17   N17   1.329344 A    
C38   C80   1.457964 S    
C75   N44   1.439445 S    
N12   N20   1.372477 A    
N13   N21   1.372430 A    
C7    N7    1.324391 A    
N17   Ni2   1.857989 S    
C7    H7    1.074987 S    
C8    N8    1.337627 A    
N9    Ni5   1.867215 S    
H36   C83   1.085925 S    
N47   O30   1.301902 A    
C80   C88   1.339730 D    
N48   O31   1.301014 A    
C62   C70   1.391837 A    
C20   N36   1.429684 S    
C22   C46   1.383791 A    
C3    H3    1.077113 S    
C26   C36   1.383007 A    
N22   Ni3   1.857991 S    
C12   C44   1.373974 A    
C11   N11   1.340688 A    
N39   O13   1.300718 A    
C27   N27   1.349078 A    
C1    N1    1.331788 A    
C12   H12   1.071570 S    
C47   C70   1.420142 S    
C30   I6    2.127490 S    
N44   O23   1.301056 A    
C13   H13   1.072723 S    
C34   C76   1.477655 S    
N43   O22   1.301488 A    
N29   Ni8   1.866604 S    
C18   N34   1.430797 S    
N2    Ni2   1.857195 S    
C14   H14   1.073403 S    
N1    Ni1   1.857191 S    
C58   H26   1.084658 S    
C21   C45   1.362460 A    
C13   N13   1.341093 A    
N6    N32   1.393016 A    
N46   O28   1.299918 A    
C9    H9    1.073824 S    
C26   N26   1.351463 A    
