data_mof_unit_68102.cif
_audit_creation_date              2013-03-05T15:58:24-0500
_audit_creation_method            fapswitch 2.2
_symmetry_space_group_name_H-M    P1
_symmetry_Int_Tables_number       1
_space_group_crystal_system       triclinic
_cell_length_a                    7.199723
_cell_length_b                    14.674053
_cell_length_c                    15.569916
_cell_angle_alpha                 90.003223
_cell_angle_beta                  90.001504
_cell_angle_gamma                 89.998539
_cell_volume                      1644.94787171

loop_
_atom_site_label
_atom_site_type_symbol
_atom_site_description
_atom_site_fract_x
_atom_site_fract_y
_atom_site_fract_z
_atom_type_partial_charge
O1    O     O_R   0.388780 0.834790 0.412340 -0.591106
O2    O     O_R   0.111220 0.165210 0.912340 -0.592046
O3    O     O_R   0.888780 0.665210 0.587660 -0.591107
O4    O     O_R   0.611220 0.334790 0.087660 -0.592033
O5    O     O_R   0.059040 0.845930 0.587040 -0.598961
O6    O     O_R   0.440960 0.154070 0.087040 -0.601492
O7    O     O_R   0.559040 0.654070 0.412960 -0.598951
O8    O     O_R   0.940960 0.345930 0.912960 -0.601497
C1    C     C_R   0.228259 0.868104 0.615404 0.857940
C2    C     C_R   0.271630 0.132478 0.115812 0.872833
C3    C     C_R   0.728265 0.631896 0.384596 0.857903
C4    C     C_R   0.771625 0.367523 0.884190 0.872812
O9    O     O_R   0.059070 0.845930 0.412970 -0.591054
O10   O     O_R   0.440930 0.154070 0.912970 -0.589852
O11   O     O_R   0.559070 0.654070 0.587030 -0.591044
O12   O     O_R   0.940930 0.345930 0.087030 -0.589854
O13   O     O_R   0.888760 0.665210 0.412340 -0.571268
O14   O     O_R   0.611240 0.334790 0.912340 -0.581474
O15   O     O_R   0.388760 0.834790 0.587660 -0.571243
O16   O     O_R   0.111240 0.165210 0.087660 -0.581473
C5    C     C_R   0.227814 0.868319 0.384994 0.872214
C6    C     C_R   0.272353 0.133809 0.883277 0.868921
C7    C     C_R   0.727819 0.631679 0.615004 0.872223
C8    C     C_R   0.772356 0.366197 0.116718 0.868905
O17   O     O_3   0.222280 0.690700 0.500000 -0.281862
O18   O     O_3   0.277720 0.309300 0.000000 -0.282870
O19   O     O_3   0.722280 0.809300 0.500000 -0.281864
O20   O     O_3   0.777720 0.190700 0.000000 -0.282872
V1    V     V_3+5 0.947430 0.761000 0.500000 1.142386
V2    V     V_3+5 0.552570 0.239000 0.000000 1.137800
V3    V     V_3+5 0.447430 0.739000 0.500000 1.142395
V4    V     V_3+5 0.052570 0.261000 0.000000 1.137798
C9    C     C_3   0.849448 0.598032 0.764095 -0.361256
C10   C     C_3   0.600652 0.414447 0.251775 -0.373464
C11   C     C_3   0.349432 0.901961 0.235904 -0.361257
C12   C     C_3   0.100520 0.085519 0.748259 -0.373400
H1    H     H_    0.988763 0.621617 0.742931 0.157833
H2    H     H_    0.466791 0.408757 0.216477 0.168709
H3    H     H_    0.488742 0.878365 0.257070 0.157828
H4    H     H_    0.966693 0.091165 0.783588 0.168698
H5    H     H_    0.776493 0.657900 0.791956 0.152127
H6    H     H_    0.628265 0.347868 0.283487 0.141549
H7    H     H_    0.276463 0.842100 0.208038 0.152128
H8    H     H_    0.128001 0.152110 0.716548 0.141520
C13   C     C_3   0.874371 0.523516 0.833854 -0.489332
C14   C     C_3   0.581390 0.489941 0.320811 -0.470874
C15   C     C_3   0.374371 0.976479 0.166149 -0.489346
C16   C     C_3   0.081277 0.010028 0.679218 -0.470661
H9    H     H_    0.831229 0.551206 0.897366 0.159790
H10   H     H_    0.583173 0.458347 0.385788 0.172176
H11   H     H_    0.331229 0.948795 0.102634 0.159791
H12   H     H_    0.082965 0.041630 0.614243 0.172164
H13   H     H_    0.024015 0.505171 0.838673 0.172545
H14   H     H_    0.444579 0.524282 0.312968 0.173438
H15   H     H_    0.524017 0.994817 0.161337 0.172541
H16   H     H_    0.944505 0.975658 0.687077 0.173450
H17   H     H_    0.986014 0.488484 0.639493 0.135476
H18   H     H_    0.588986 0.533158 0.117543 0.124551
H19   H     H_    0.486019 0.011497 0.360512 0.135473
H20   H     H_    0.089203 0.966811 0.882515 0.124495
H21   H     H_    0.974112 0.369806 0.736586 -0.031078
H22   H     H_    0.594809 0.645238 0.219582 -0.035442
H23   H     H_    0.474126 0.130189 0.263431 -0.031105
H24   H     H_    0.094890 0.854769 0.780441 -0.035432
C17   C     C_3   0.838411 0.472799 0.654741 -0.480917
C18   C     C_3   0.725876 0.532070 0.150790 -0.483255
C19   C     C_3   0.338418 0.027190 0.345262 -0.480901
C20   C     C_3   0.226026 0.967929 0.849213 -0.483264
C21   C     C_3   0.541427 0.532365 0.717787 -0.351250
C22   C     C_3   0.944366 0.439230 0.241802 -0.355212
C23   C     C_3   0.041423 0.967641 0.282210 -0.351305
C24   C     C_3   0.444276 0.060832 0.758144 -0.355309
C25   C     C_3   0.738392 0.560580 0.686120 0.091831
C26   C     C_3   0.761546 0.436196 0.188626 0.097529
C27   C     C_3   0.238386 0.939416 0.313878 0.091863
C28   C     C_3   0.261527 0.063812 0.811368 0.097533
H25   H     H_    0.467066 0.495906 0.665309 0.174701
H26   H     H_    0.061938 0.460977 0.200130 0.174693
H27   H     H_    0.967066 0.004102 0.334687 0.174700
H28   H     H_    0.561943 0.039135 0.799785 0.174671
H29   H     H_    0.456590 0.592958 0.733839 0.135967
H30   H     H_    0.978007 0.370065 0.266500 0.154533
H31   H     H_    0.956583 0.907051 0.266153 0.135967
H32   H     H_    0.477770 0.130005 0.733421 0.154537
C29   C     C_3   0.758516 0.437308 0.811683 0.019897
C30   C     C_3   0.741029 0.560905 0.312971 0.007529
C31   C     C_3   0.258526 0.062692 0.188319 0.019936
C32   C     C_3   0.241001 0.939098 0.687028 0.007513
C33   C     C_3   0.830939 0.396560 0.724969 0.524451
C34   C     C_3   0.728649 0.606717 0.222257 0.552320
C35   C     C_3   0.330953 0.103433 0.275037 0.524345
C36   C     C_3   0.228729 0.893285 0.777742 0.552339
C37   C     C_3   0.554138 0.469634 0.797169 -0.301352
C38   C     C_3   0.926820 0.506457 0.318041 -0.322238
C39   C     C_3   0.054143 0.030375 0.202830 -0.301297
C40   C     C_3   0.426724 0.993584 0.681922 -0.322408
H33   H     H_    0.504004 0.506976 0.854921 0.142057
H34   H     H_    0.931651 0.468019 0.379578 0.146842
H35   H     H_    0.004003 0.993036 0.145076 0.142048
H36   H     H_    0.431432 0.032012 0.620378 0.146680
H37   H     H_    0.459117 0.410707 0.787508 0.186700
H38   H     H_    0.048732 0.553022 0.317409 0.192577
H39   H     H_    0.959127 0.089305 0.212490 0.186692
H40   H     H_    0.548684 0.947047 0.682539 0.192556
H41   H     H_    0.773295 0.448467 0.594085 0.149379
H42   H     H_    0.833029 0.546596 0.101181 0.159482
H43   H     H_    0.273306 0.051522 0.405918 0.149410
H44   H     H_    0.333294 0.953422 0.898778 0.159553
O21   O     O_3   0.706750 0.327020 0.697816 -0.680946
C41   C     C_3   0.796505 0.258576 0.649123 0.151144
H45   H     H_    0.817636 0.199156 0.691797 0.122222
H46   H     H_    0.933281 0.279804 0.621972 0.083319
C42   C     C_3   0.670658 0.230357 0.574559 -0.250461
H47   H     H_    0.526279 0.220405 0.598096 0.206836
H48   H     H_    0.670114 0.285500 0.525684 0.179184
C43   C     C_3   0.736738 0.142179 0.532452 -1.065871
H49   H     H_    0.640943 0.123454 0.479405 0.264743
H50   H     H_    0.738756 0.085806 0.579983 0.271477
H51   H     H_    0.878228 0.150843 0.505679 0.267304
O22   O     O_3   0.886508 0.663300 0.209166 -0.676603
C44   C     C_3   0.840656 0.747373 0.169902 0.182554
H52   H     H_    0.966872 0.790318 0.173267 0.131763
H53   H     H_    0.729686 0.783630 0.205893 0.071042
C45   C     C_3   0.789671 0.737097 0.074555 -0.331491
H54   H     H_    0.896337 0.695220 0.041524 0.216471
H55   H     H_    0.653077 0.702660 0.068307 0.195941
C46   C     C_3   0.778403 0.829702 0.030188 -1.022049
H56   H     H_    0.668108 0.872005 0.060078 0.267310
H57   H     H_    0.745064 0.819969 0.961153 0.275077
H58   H     H_    0.913400 0.865998 0.034967 0.258083
O23   O     O_3   0.206771 0.172976 0.302189 -0.680936
C47   C     C_3   0.296520 0.241373 0.350942 0.151128
H59   H     H_    0.318042 0.300749 0.308267 0.122128
H60   H     H_    0.433087 0.220043 0.378237 0.083307
C48   C     C_3   0.170415 0.269719 0.425361 -0.250009
H61   H     H_    0.026176 0.279746 0.401670 0.206909
H62   H     H_    0.169518 0.214605 0.474255 0.179136
C49   C     C_3   0.236512 0.357868 0.467514 -1.066873
H63   H     H_    0.377370 0.348957 0.494884 0.267589
H64   H     H_    0.139920 0.376946 0.520108 0.264882
H65   H     H_    0.239889 0.414107 0.419886 0.271647
O24   O     O_3   0.386594 0.836696 0.790805 -0.676586
C50   C     C_3   0.340758 0.752624 0.830072 0.182538
H66   H     H_    0.466990 0.709686 0.826726 0.131768
H67   H     H_    0.229813 0.716360 0.794071 0.071062
C51   C     C_3   0.289725 0.762900 0.925415 -0.331539
H68   H     H_    0.396371 0.804776 0.958459 0.216475
H69   H     H_    0.153126 0.797336 0.931649 0.195940
C52   C     C_3   0.278438 0.670295 0.969779 -1.022044
H70   H     H_    0.168153 0.627996 0.939876 0.267318
H71   H     H_    0.245070 0.680028 0.038811 0.275071
H72   H     H_    0.413435 0.633994 0.965014 0.258076

loop_
_geom_bond_atom_site_label_1
_geom_bond_atom_site_label_2
_geom_bond_distance
_ccdc_geom_bond_type
O17   V3    1.769207 S    
C48   C49   1.526529 S    
C32   C40   1.560014 S    
O1    C5    1.329054 A    
C31   C35   1.565964 S    
O19   V1    1.769173 S    
C9    C13   1.551662 S    
C21   H25   1.113735 S    
O3    C7    1.329071 A    
C10   H6    1.112589 S    
C6    C28   1.521355 S    
C24   C28   1.555591 S    
C11   C15   1.551668 S    
C23   H27   1.113735 S    
C17   C25   1.554470 S    
C48   H61   1.111814 S    
C18   C34   1.561507 S    
O7    C3    1.336159 A    
C11   C27   1.554081 S    
O5    C1    1.336120 A    
C4    C29   1.527132 S    
C15   H15   1.113036 S    
C22   H26   1.113283 S    
C22   C38   1.548565 S    
C18   H42   1.112322 S    
C42   H47   1.111851 S    
C21   C37   1.543854 S    
C52   H71   1.110563 S    
C1    C32   1.528783 S    
O4    C8    1.327768 A    
C39   H35   1.113133 S    
C35   O23   1.421057 S    
C38   H34   1.112400 S    
C3    C30   1.528782 S    
C50   H66   1.107089 S    
C18   C26   1.546717 S    
C33   O21   1.421082 S    
O1    V3    2.004269 S    
O13   V1    2.004208 S    
C43   H49   1.110537 S    
O2    V4    2.004178 S    
O3    V1    2.004299 S    
C41   H45   1.106762 S    
C44   C45   1.536660 S    
C30   C38   1.560069 S    
H19   C19   1.112967 S    
C7    C25   1.523303 S    
C29   C37   1.562447 S    
C1    O15   1.326975 A    
C23   H31   1.107290 S    
C50   H67   1.111481 S    
C32   C36   1.566770 S    
C39   H39   1.112810 S    
C47   H59   1.106664 S    
C12   C28   1.552634 S    
O2    C6    1.327745 A    
C16   C32   1.555799 S    
C21   C25   1.557437 S    
C10   C14   1.549740 S    
C11   H7    1.111670 S    
O5    V1    2.008799 S    
H18   C18   1.113346 S    
C42   C43   1.526534 S    
O11   C7    1.331811 A    
O15   V3    2.004206 S    
O12   C8    1.332344 A    
C48   H62   1.110727 S    
O10   V2    2.008783 S    
C17   H41   1.113160 S    
H21   C33   1.117758 S    
C51   H69   1.109943 S    
C2    C31   1.527149 S    
O7    V3    2.008804 S    
O8    V4    2.008870 S    
C12   H4    1.112579 S    
C30   C34   1.566792 S    
C52   H72   1.110811 S    
C37   H37   1.112811 S    
C29   C33   1.565953 S    
O18   V4    1.769206 S    
C15   H11   1.113299 S    
C9    H1    1.111068 S    
C31   C39   1.562468 S    
C34   O22   1.422232 S    
C11   H3    1.111063 S    
C46   H57   1.110562 S    
C22   C26   1.555613 S    
C51   C52   1.526578 S    
C13   H9    1.113299 S    
O8    C4    1.336931 A    
C14   H14   1.113124 S    
C19   C35   1.565320 S    
O9    C5    1.331819 A    
C41   C42   1.529750 S    
H20   C20   1.113350 S    
C44   H52   1.107094 S    
C24   H32   1.112078 S    
C49   H64   1.110209 S    
C10   C26   1.552601 S    
C45   C46   1.526577 S    
O14   V2    2.004330 S    
C9    C25   1.554080 S    
O6    V2    2.008923 S    
C40   H40   1.112402 S    
C12   H8    1.112587 S    
C19   C27   1.554464 S    
C50   C51   1.536682 S    
H24   C36   1.117935 S    
H23   C35   1.117763 S    
C46   H56   1.110172 S    
C37   H33   1.113131 S    
C36   O24   1.422219 S    
O22   C44   1.415895 S    
C45   H55   1.109943 S    
C51   H68   1.109879 S    
O16   V4    2.004299 S    
O9    V1    2.008905 S    
C16   H16   1.113126 S    
C5    C27   1.523293 S    
C3    O13   1.326943 A    
C10   H2    1.112574 S    
H17   C17   1.112967 S    
C49   H65   1.109793 S    
O6    C2    1.336942 A    
C8    C26   1.521358 S    
O11   V3    2.008851 S    
C17   C33   1.565317 S    
C20   C28   1.546707 S    
C14   H10   1.112951 S    
C43   H51   1.108017 S    
C13   C29   1.554084 S    
C9    H5    1.111664 S    
O10   C6    1.332361 A    
O20   V2    1.769174 S    
H22   C34   1.117928 S    
C46   H58   1.110814 S    
C24   H28   1.113284 S    
C52   H70   1.110171 S    
C23   C27   1.557419 S    
C19   H43   1.113161 S    
C2    O16   1.325246 A    
C47   C48   1.529674 S    
O12   V4    2.008784 S    
C40   H36   1.112390 S    
C20   C36   1.561498 S    
C43   H50   1.110081 S    
C12   C16   1.549753 S    
C22   H30   1.112056 S    
C41   H46   1.116030 S    
C44   H53   1.111473 S    
C21   H29   1.107283 S    
C49   H63   1.107765 S    
C13   H13   1.113036 S    
C24   C40   1.548552 S    
C16   H12   1.112949 S    
C23   C39   1.543858 S    
C38   H38   1.112403 S    
C47   H60   1.115945 S    
C4    O14   1.325253 A    
O24   C50   1.415909 S    
C20   H44   1.112332 S    
C42   H48   1.110824 S    
O21   C41   1.414571 S    
O4    V2    2.004175 S    
O23   C47   1.414560 S    
C15   C31   1.554077 S    
C45   H54   1.109885 S    
C14   C30   1.555761 S    
