data_mof_unit_66546.cif
_audit_creation_date              2013-03-05T15:54:50-0500
_audit_creation_method            fapswitch 2.2
_symmetry_space_group_name_H-M    P1
_symmetry_Int_Tables_number       1
_space_group_crystal_system       triclinic
_cell_length_a                    8.491987
_cell_length_b                    16.623343
_cell_length_c                    16.743122
_cell_angle_alpha                 109.507616
_cell_angle_beta                  95.241811
_cell_angle_gamma                 83.041389
_cell_volume                      2208.186249

loop_
_atom_site_label
_atom_site_type_symbol
_atom_site_description
_atom_site_fract_x
_atom_site_fract_y
_atom_site_fract_z
_atom_type_partial_charge
P1    P     P_3+3 0.385820 0.698700 0.604730 0.533108
O1    O     O_2   0.554430 0.712240 0.583340 -0.280670
O2    O     O_3   0.337760 0.603960 0.562660 -0.441912
O3    O     O_3   0.813110 0.658990 0.426440 -0.375412
O4    O     O_2   0.660548 0.805296 0.517376 -0.263449
O5    O     O_3   0.422527 0.718296 0.714004 -0.566739
O6    O     O_3   0.707380 0.801718 0.362019 -0.550859
H1    H     H_    0.742554 0.677970 0.275887 0.048428
C1    C     C_3   0.698316 0.765909 0.202109 -0.049420
H2    H     H_    0.575798 0.753479 0.183689 0.132527
P2    P     P_3+3 0.884390 0.431600 0.301750 0.589183
P3    P     P_3+3 0.384690 0.606807 0.269888 0.573388
O7    O     O_2   0.703570 0.457750 0.294670 -0.314122
O8    O     O_3   0.412810 0.615240 0.376810 -0.355613
O9    O     O_2   0.522915 0.542332 0.229424 -0.317467
O10   O     O_3   0.853300 0.320458 0.249136 -0.522713
O11   O     O_3   0.448432 0.701113 0.262440 -0.580663
C2    C     C_3   0.346134 0.775332 0.297760 0.706417
H3    H     H_    0.243254 0.755897 0.310106 0.173961
C3    C     C_3   0.305028 0.827334 0.236517 -0.631265
H4    H     H_    0.402907 0.864467 0.234797 0.263136
H5    H     H_    0.276375 0.784553 0.171429 0.267391
C4    C     C_3   0.373422 0.364053 0.274159 0.458165
H6    H     H_    0.268214 0.400869 0.308285 0.004599
H7    H     H_    0.477123 0.399895 0.298835 0.155151
C5    C     C_3   0.348633 0.355803 0.181254 -0.813340
H8    H     H_    0.220852 0.356190 0.165031 0.198380
H9    H     H_    0.387753 0.411397 0.169410 0.219156
H10   H     H_    0.416030 0.298233 0.140059 0.344635
Ba1   Ba    Ba6+2 0.642070 0.542310 0.469620 1.742003
C6    C     C_3   0.341419 0.663980 0.739862 0.350668
H11   H     H_    0.381093 0.595644 0.706357 0.104722
H12   H     H_    0.213496 0.678369 0.727664 0.175654
C7    C     C_3   0.374708 0.680386 0.834427 -0.853135
H13   H     H_    0.501392 0.661386 0.847478 0.184285
H14   H     H_    0.301523 0.641379 0.856051 0.274655
H15   H     H_    0.346348 0.749361 0.870290 0.304210
C8    C     C_3   0.978844 0.255265 0.245067 0.469360
H16   H     H_    0.095112 0.281495 0.253948 0.018218
C9    C     C_3   0.970640 0.174112 0.158084 0.600152
P4    P     P_3+3 0.424480 0.301290 0.395200 0.545388
O12   O     O_2   0.255890 0.287710 0.416620 -0.298588
O13   O     O_3   0.472550 0.396030 0.437270 -0.443269
O14   O     O_3   0.997190 0.341000 0.573500 -0.258571
O15   O     O_3   0.398936 0.283499 0.285634 -0.486724
P5    P     P_3+3 0.424349 0.397252 0.731101 0.585411
O16   O     O_3   0.856110 0.544300 0.605450 -0.365200
O17   O     O_3   0.397490 0.384750 0.623120 -0.425759
O18   O     O_2   0.265297 0.440727 0.770236 -0.310404
O19   O     O_3   0.436706 0.293802 0.740600 -0.397397
Ba2   Ba    Ba6+2 0.168110 0.457680 0.530320 1.723450
P6    P     P_3+3 0.788992 0.771296 0.451805 0.624552
C10   C     C_3   0.765152 0.744825 0.284195 0.764914
H17   H     H_    0.757596 0.719092 0.146480 0.114196
O20   O     O_3   0.954190 0.455690 0.394480 -0.364278
C11   C     C_3   0.795655 0.738760 0.775962 0.710728
H18   H     H_    0.695699 0.704343 0.739263 0.011955
C12   C     C_3   0.776665 0.757611 0.871447 -0.220095
H19   H     H_    0.665648 0.800429 0.890276 0.136105
H20   H     H_    0.761994 0.698497 0.884763 0.061079
P7    P     P_3+3 0.926225 0.580382 0.712464 0.460586
O21   O     O_2   0.106750 0.542200 0.705290 -0.367990
O22   O     O_3   0.941217 0.691649 0.748824 -0.594659
H21   H     H_    0.201906 0.875049 0.257079 0.313177
C13   C     C_3   0.469886 0.231030 0.661184 0.350617
H22   H     H_    0.387339 0.241949 0.609968 0.106005
H23   H     H_    0.592630 0.232076 0.644953 0.019822
C14   C     C_3   0.446380 0.140407 0.659630 -0.123335
H24   H     H_    0.457797 0.096163 0.593558 0.111091
H25   H     H_    0.325688 0.137874 0.677070 0.180216
P8    P     P_3+3 0.012758 0.234641 0.569318 0.569951
C15   C     C_3   0.003934 0.220588 0.726702 0.853875
O23   O     O_2   0.150555 0.196286 0.509390 -0.305256
O24   O     O_3   0.098807 0.240869 0.671584 -0.587888
C16   C     C_3   0.980535 0.123511 0.693181 -0.301819
H26   H     H_    0.073317 0.090737 0.647970 0.118609
H27   H     H_    0.864058 0.113805 0.657525 0.093064
C17   C     C_2   0.697622 0.250603 0.501795 -0.308309
C18   C     C_R   0.095199 0.752417 0.527476 -0.329648
C19   C     C_2   0.537977 0.137503 0.410020 0.270720
C20   C     C_2   0.558755 0.222488 0.438757 0.012811
C21   C     C_2   0.817524 0.193294 0.517674 0.123427
C22   C     C_3   0.802969 0.098086 0.470492 -0.044038
C23   C     C_3   0.630126 0.077738 0.452684 0.050950
C24   C     C_2   0.925922 0.029837 0.487932 0.238470
C25   C     C_2   0.887771 0.969454 0.519928 -0.327448
C26   C     C_R   0.143759 0.924635 0.586730 0.230490
C27   C     C_R   0.004937 0.900649 0.536216 0.011885
C28   C     C_R   0.256277 0.865197 0.607622 -0.119331
C29   C     C_R   0.235259 0.777981 0.576436 0.228680
C30   C     C_R   0.977822 0.812719 0.507960 0.322753
H28   H     H_    0.361147 0.887346 0.646703 0.213120
H29   H     H_    0.708326 0.318866 0.528866 0.189202
H30   H     H_    0.076166 0.685205 0.506245 0.163097
H31   H     H_    0.765684 0.970127 0.534484 0.211618
C31   C     C_R   0.107817 0.525200 0.263444 -0.484914
C32   C     C_R   0.970187 0.482776 0.230975 0.056181
C33   C     C_R   0.916613 0.473095 0.144578 0.341106
C34   C     C_R   0.003108 0.507300 0.095637 -0.090736
C35   C     C_R   0.145578 0.546028 0.129311 0.394049
C36   C     C_R   0.197362 0.557131 0.215306 0.157427
C37   C     C_R   0.868549 0.540891 0.858800 -0.302643
C38   C     C_R   0.816564 0.535658 0.775645 0.207391
C39   C     C_R   0.776675 0.512265 0.907929 0.165229
N1    N     N_2   0.958179 0.496264 0.008224 0.041742
N2    N     N_2   0.819127 0.525253 0.995218 0.011910
C40   C     C_R   0.675389 0.498425 0.740110 -0.365677
H32   H     H_    0.976046 0.570674 0.886357 0.221740
C41   C     C_R   0.588703 0.463630 0.786052 0.242740
C42   C     C_R   0.636829 0.473635 0.871032 -0.119442
H33   H     H_    0.568942 0.448374 0.907198 0.210000
H34   H     H_    0.147507 0.533658 0.328759 0.188345
H35   H     H_    0.637132 0.492574 0.675124 0.144972
S1    S     S_3+6 0.953770 0.221366 0.332566 0.038163
O25   O     O_2   0.093948 0.162123 0.344946 -0.171322
O26   O     O_2   0.934410 0.298551 0.410221 -0.275679
O27   O     O_3   0.791435 0.169166 0.313810 -0.492790
H36   H     H_    0.705742 0.212784 0.308058 0.363710
S2    S     S_3+6 0.773863 0.163368 0.103119 0.152612
O28   O     O_2   0.644171 0.199065 0.163817 -0.250064
O29   O     O_2   0.753868 0.207335 0.037299 -0.111501
O30   O     O_3   0.751594 0.059169 0.051439 -0.392728
H37   H     H_    0.641562 0.058282 0.026008 0.401010
N3    N     N_R   0.024238 0.092203 0.174029 0.254498
O31   O     O_R   0.174565 0.067078 0.180602 -0.227866
O32   O     O_R   0.922838 0.045038 0.185793 -0.166658
S3    S     S_3+6 0.100873 0.181348 0.082055 0.074516
O33   O     O_2   0.270670 0.175474 0.115215 -0.246190
O34   O     O_2   0.081793 0.108097 0.000776 -0.108925
O35   O     O_3   0.055268 0.273475 0.061637 -0.511269
H38   H     H_    0.147202 0.279026 0.032090 0.399316
S4    S     S_3+6 0.966645 0.749020 0.288835 -0.129303
O36   O     O_2   0.042093 0.692759 0.337957 -0.420599
O37   O     O_2   0.028447 0.719473 0.201707 -0.367009
O38   O     O_3   0.011005 0.849540 0.341464 -0.545958
H39   H     H_    0.910309 0.886478 0.347368 0.400272
S5    S     S_3+6 0.786194 0.837835 0.754527 0.072840
O39   O     O_2   0.902546 0.895426 0.812077 -0.174458
O40   O     O_2   0.828215 0.819130 0.664825 -0.276723
O41   O     O_3   0.601223 0.887741 0.767231 -0.479690
H40   H     H_    0.598588 0.922100 0.828281 0.377512
N4    N     N_R   0.911651 0.797296 0.923729 0.305777
O42   O     O_R   0.049093 0.753099 0.922336 -0.337160
O43   O     O_R   0.891286 0.874139 0.978269 -0.246442
S6    S     S_3+6 0.718803 0.871055 0.198926 0.086290
O44   O     O_2   0.612124 0.886347 0.127634 -0.205985
O45   O     O_2   0.671640 0.938187 0.280613 -0.205753
O46   O     O_3   0.907167 0.878982 0.181648 -0.377414
H41   H     H_    0.926629 0.836718 0.124823 0.395303
N5    N     N_R   0.560756 0.109641 0.715663 0.282145
O47   O     O_R   0.561257 0.148078 0.797223 -0.164483
O48   O     O_R   0.635334 0.033464 0.686541 -0.331490
N6    N     N_R   0.850725 0.272467 0.737134 0.154608
O49   O     O_R   0.824825 0.336004 0.707793 -0.489183
O50   O     O_R   0.754010 0.267242 0.790670 -0.322368
S7    S     S_3+6 0.108291 0.250101 0.829722 0.106127
O51   O     O_2   0.002662 0.244661 0.894210 -0.160742
O52   O     O_2   0.256163 0.191098 0.830096 -0.186918
O53   O     O_3   0.157402 0.350845 0.857981 -0.428465
H42   H     H_    0.056363 0.385553 0.852595 0.358272
N7    N     N_R   0.991433 0.082725 0.759082 0.321831
O54   O     O_R   0.876699 0.096033 0.809609 -0.150545
O55   O     O_R   0.114724 0.030338 0.765970 -0.296573
N8    N     N_R   0.404741 0.827253 0.381036 0.255250
O56   O     O_R   0.385891 0.802464 0.444755 -0.385229
O57   O     O_R   0.438067 0.905437 0.395875 -0.292583
N9    N     N_R   0.441289 0.100712 0.334758 0.296159
O58   O     O_R   0.366438 0.035272 0.328975 -0.227855
O59   O     O_R   0.464267 0.115286 0.265330 -0.224503
N10   N     N_R   0.076251 0.019622 0.451389 0.286044
O60   O     O_R   0.207847 0.027212 0.498232 -0.389163
O61   O     O_R   0.078512 0.015784 0.372764 -0.216111
S8    S     S_3+6 0.241820 0.584794 0.060325 -0.014668
O62   O     O_2   0.274476 0.511812 0.979874 -0.302982
O63   O     O_2   0.129022 0.651958 0.038042 -0.255066
O64   O     O_3   0.412536 0.627391 0.099606 -0.493509
H43   H     H_    0.451410 0.642649 0.052997 0.364273
S9    S     S_3+6 0.750875 0.415410 0.090928 0.056757
O65   O     O_2   0.797714 0.355570 0.005525 -0.161642
O66   O     O_2   0.687472 0.365018 0.137418 -0.214524
O67   O     O_3   0.600883 0.483429 0.073602 -0.503874
H44   H     H_    0.512240 0.447236 0.050358 0.394474

loop_
_geom_bond_atom_site_label_1
_geom_bond_atom_site_label_2
_geom_bond_distance
_ccdc_geom_bond_type
C8    C9    1.624139 S    
C26   C27   1.403757 A    
C3    H21   1.104059 S    
P1    C29   1.869231 S    
C15   S7    1.806135 S    
C7    H15   1.110367 S    
P4    O13   1.582857 S    
P4    O12   1.566986 D    
C19   C23   1.514315 S    
S6    O46   1.679530 S    
C39   N2    1.422817 S    
S1    O25   1.495678 D    
O38   H39   0.982712 S    
N9    O59   1.299631 A    
S8    O62   1.502838 D    
C31   H34   1.081995 S    
P5    O18   1.544300 D    
C5    H8    1.094040 S    
O3    P6    1.761073 S    
C22   C23   1.526656 S    
C4    O15   1.403894 S    
N8    O56   1.293979 A    
P7    C38   1.847162 S    
Ba1   Ba2   4.720794 S    
O6    P6    1.796767 S    
P1    O1    1.566746 D    
S6    O44   1.503130 D    
C8    H16   1.105116 S    
C8    S1    1.773835 S    
C25   C27   1.501855 S    
S8    O64   1.673062 S    
N10   O60   1.299155 A    
C17   H29   1.084138 S    
C12   H20   1.100894 S    
C32   C33   1.437855 A    
C11   H18   1.101345 S    
O14   P8    1.735149 S    
C7    H13   1.107093 S    
C4    C5    1.512444 S    
P7    O22   1.760349 S    
C12   N4    1.459337 S    
C42   H33   1.080570 S    
C40   H35   1.082272 S    
C18   C29   1.406725 A    
N7    O55   1.300740 A    
C14   H24   1.110436 S    
C2    N8    1.452674 S    
S7    O52   1.497712 D    
O17   Ba2   2.794827 S    
O53   H42   0.988881 S    
P2    Ba1   3.493680 S    
S4    O36   1.494602 D    
C13   H23   1.104506 S    
P3    O11   1.764841 S    
C4    H6    1.107470 S    
C6    H12   1.099153 S    
O4    P6    1.539320 D    
C37   H32   1.082264 S    
N6    O50   1.299738 A    
C1    H2    1.082208 S    
C19   N9    1.433191 S    
C18   C30   1.422081 A    
O12   Ba2   2.884374 S    
P8    C21   1.893690 S    
S2    O29   1.500368 D    
O5    C6    1.394046 S    
S5    O39   1.503465 D    
N6    O49   1.294526 A    
C31   C36   1.416017 A    
C40   C41   1.404246 A    
C37   C38   1.398928 A    
Ba2   O21   2.860133 S    
O8    Ba1   2.794329 S    
C15   C16   1.552769 S    
C34   N1    1.434173 S    
S6    O45   1.499606 D    
S9    O65   1.500158 D    
S8    O63   1.502357 D    
C9    N3    1.484193 S    
S5    O41   1.681746 S    
P5    O17   1.746156 S    
C6    C7    1.519767 S    
P1    O5    1.752996 S    
S9    O67   1.669612 S    
O7    Ba1   2.860181 S    
O41   H40   0.991320 S    
C18   H30   1.081125 S    
C15   O24   1.422625 S    
N9    O58   1.297201 A    
P8    O23   1.545670 D    
O2    Ba2   2.847568 S    
C2    H3    1.027806 S    
O16   Ba2   3.024965 S    
Ba2   O20   2.771889 S    
C12   H19   1.112040 S    
C24   C25   1.367163 D    
C9    S3    1.802702 S    
P1    O2    1.582829 S    
O67   H44   0.989900 S    
O2    Ba1   3.030289 S    
C16   H26   1.104605 S    
S3    O34   1.503903 D    
Ba1   O16   2.772354 S    
S5    O40   1.496274 D    
P2    O10   1.802195 S    
C17   C21   1.378272 D    
S1    O26   1.495855 D    
C6    H11   1.111227 S    
P3    O9    1.530052 D    
C13   C14   1.534826 S    
P4    C20   1.916288 S    
C31   C32   1.409409 A    
O11   C2    1.404793 S    
C11   O22   1.406456 S    
C10   S4    1.714550 S    
O46   H41   0.990093 S    
C28   H28   1.081147 S    
C37   C39   1.407267 A    
C16   H27   1.107805 S    
O14   Ba2   2.863897 S    
S4    O37   1.497885 D    
O64   H43   0.990883 S    
C22   C24   1.530068 S    
C3    H5    1.108344 S    
C21   C22   1.529295 S    
C26   C28   1.397345 A    
N5    O48   1.300807 A    
Ba1   O13   2.846892 S    
C1    C10   1.569996 S    
O1    Ba1   2.883770 S    
O6    C10   1.419268 S    
S3    O33   1.500907 D    
N4    O43   1.300691 A    
P2    O20   1.548019 S    
N3    O32   1.301034 A    
C33   S9    1.796682 S    
Ba1   O20   3.025895 S    
S2    O30   1.683230 S    
S7    O51   1.496798 D    
C15   N6    1.461512 S    
N5    O47   1.299980 A    
S7    O53   1.675239 S    
P3    O8    1.744685 S    
C19   C20   1.359913 D    
H1    C10   1.111232 S    
O16   P7    1.760254 S    
P8    O24   1.774197 S    
S9    O66   1.489579 D    
S2    O28   1.497091 D    
N1    N2    1.248687 D    
P5    O19   1.769040 S    
C5    H9    1.101173 S    
C24   N10   1.433063 S    
C34   C35   1.420477 A    
P2    C32   1.907877 S    
C16   N7    1.466793 S    
C38   C40   1.406360 A    
N8    O57   1.300624 A    
O35   H38   0.990596 S    
O30   H37   0.990485 S    
S3    O35   1.671512 S    
P3    C36   1.896400 S    
C13   H22   1.105883 S    
N7    O54   1.298958 A    
C41   C42   1.404032 A    
C39   C42   1.410712 A    
C11   S5    1.790299 S    
P2    O7    1.549278 D    
C17   C20   1.516485 S    
O13   Ba2   3.031318 S    
C27   C30   1.418870 A    
N10   O61   1.298321 A    
S4    O38   1.679001 S    
C1    S6    1.796046 S    
P1    Ba1   3.494599 S    
C7    H14   1.110563 S    
C11   C12   1.542849 S    
C2    C3    1.540801 S    
C4    H7    1.094275 S    
P7    O21   1.585687 D    
O19   C13   1.416628 S    
S1    O27   1.667551 S    
C14   N5    1.455569 S    
C25   H31   1.084404 S    
C9    S2    1.831044 S    
C3    H4    1.101494 S    
C5    H10   1.103502 S    
C14   H25   1.100379 S    
C33   C34   1.434095 A    
P5    C41   1.863458 S    
C35   S8    1.792922 S    
P4    O15   1.755078 S    
N4    O42   1.299369 A    
P6    C30   1.867930 S    
C35   C36   1.423736 A    
C1    H17   1.110514 S    
C28   C29   1.395199 A    
O27   H36   0.985152 S    
P4    Ba2   3.495278 S    
O3    Ba1   2.864519 S    
O10   C8    1.414114 S    
N3    O31   1.300782 A    
