data_mof_unit_68601.cif
_audit_creation_date              2012-12-10T19:42:32-0500
_audit_creation_method            fapswitch 2.2
_symmetry_space_group_name_H-M    P1
_symmetry_Int_Tables_number       1
_space_group_crystal_system       triclinic
_cell_length_a                    10.837492
_cell_length_b                    10.912739
_cell_length_c                    9.795559
_cell_angle_alpha                 98.7433
_cell_angle_beta                  98.13228
_cell_angle_gamma                 91.307778
_cell_volume                      1132.34817641

loop_
_atom_site_label
_atom_site_type_symbol
_atom_type_description
_atom_site_fract_x
_atom_site_fract_y
_atom_site_fract_z
_atom_type_partial_charge
C1    C     C_R   0.497904 0.262020 0.499729 0.784480
C2    C     C_R   0.501322 0.738015 0.500213 0.835094
C3    C     C_R   0.871850 0.496908 0.500663 -0.069599
C4    C     C_R   0.128853 0.507074 0.501359 -0.052546
C5    C     C_R   0.952522 0.463935 0.614893 0.065802
C6    C     C_R   0.048539 0.539835 0.387339 0.048038
C7    C     C_R   0.273087 0.113969 0.043313 -0.156054
C8    C     C_R   0.715785 0.877589 0.956819 -0.165780
C9    C     C_R   0.307571 0.078146 0.174087 -0.154817
C10   C     C_R   0.685319 0.913207 0.825372 -0.144128
C11   C     C_R   0.433913 0.080133 0.231771 0.129546
C12   C     C_R   0.560000 0.919503 0.767747 0.132093
C13   C     C_R   0.525159 0.120368 0.157873 -0.062885
C14   C     C_R   0.465375 0.885010 0.840431 -0.057146
C15   C     C_R   0.490237 0.157980 0.028220 -0.111444
C16   C     C_R   0.496214 0.846670 0.970323 -0.102738
C17   C     C_R   0.364390 0.153484 0.970181 -0.169659
C18   C     C_R   0.621225 0.845057 0.029694 -0.172871
C19   C     C_R   0.475054 0.916347 0.375479 -0.226731
C20   C     C_R   0.525604 0.083792 0.624139 -0.282266
C21   C     C_R   0.502052 0.872314 0.502504 -0.057723
C22   C     C_R   0.496542 0.127756 0.497200 -0.096815
C23   C     C_R   0.262487 0.503004 0.500821 0.844076
C24   C     C_R   0.737705 0.497142 0.499490 0.784307
C25   C     C_R   0.528061 0.957491 0.628823 -0.018422
C26   C     C_R   0.469977 0.042564 0.370709 -0.002108
C27   C     C_2   0.512866 0.506957 0.078592 -0.079187
C28   C     C_2   0.486903 0.493295 0.921443 -0.075711
C29   C     C_R   0.204704 0.730542 0.161933 -0.211676
C30   C     C_R   0.859999 0.221725 0.824048 -0.254099
C31   C     C_R   0.158193 0.696685 0.278249 0.479178
C32   C     C_R   0.899869 0.276421 0.715799 0.462948
C33   C     C_R   0.095583 0.580149 0.266082 0.022913
C34   C     C_R   0.906693 0.406352 0.726840 0.026231
C35   C     C_R   0.087879 0.496387 0.141403 -0.181571
C36   C     C_R   0.870133 0.480034 0.843521 -0.157193
C37   C     C_R   0.138924 0.529284 0.028367 -0.145593
C38   C     C_R   0.824823 0.424389 0.947083 -0.130867
C39   C     C_R   0.194416 0.647324 0.037142 -0.191844
C40   C     C_R   0.820959 0.295440 0.938111 -0.191871
C41   C     C_R   0.920505 0.534119 0.388005 -0.281906
C42   C     C_R   0.080392 0.469938 0.613754 -0.215711
Cu1   Cu    Cu3+1 0.521120 0.521140 0.639640 0.951446
Cu2   Cu    Cu3+1 0.478880 0.478860 0.360360 0.960106
H1    H     H_    0.232682 0.672849 0.948607 0.150087
H2    H     H_    0.789725 0.252753 0.020734 0.144275
H3    H     H_    0.622736 0.124109 0.201320 0.111500
H4    H     H_    0.368246 0.887090 0.796144 0.118230
H5    H     H_    0.560779 0.189976 0.972497 0.124478
H6    H     H_    0.423166 0.819582 0.025515 0.116847
H7    H     H_    0.457343 0.851950 0.278716 0.150006
H8    H     H_    0.547416 0.148149 0.720862 0.168432
H9    H     H_    0.410711 0.430605 0.866309 0.152816
H10   H     H_    0.589119 0.569530 0.133758 0.146086
H11   H     H_    0.627868 0.607472 0.903872 0.204885
H12   H     H_    0.371290 0.393643 0.096249 0.215550
H13   H     H_    0.252084 0.819832 0.169620 0.126799
H14   H     H_    0.860795 0.122526 0.820436 0.130591
H15   H     H_    0.046275 0.403978 0.133757 0.156105
H16   H     H_    0.875623 0.580311 0.853323 0.141967
H17   H     H_    0.135936 0.462593 0.934419 0.133826
H18   H     H_    0.795918 0.481452 0.036294 0.121723
H19   H     H_    0.858869 0.560735 0.301218 0.138620
H20   H     H_    0.142235 0.439409 0.697630 0.133384
H21   H     H_    0.337665 0.181650 0.869220 0.129929
H22   H     H_    0.644809 0.816690 0.131015 0.115989
H23   H     H_    0.175560 0.111816 0.999047 0.134102
H24   H     H_    0.812610 0.873770 0.001427 0.124021
H25   H     H_    0.235988 0.049694 0.230700 0.115789
H26   H     H_    0.758911 0.933763 0.767361 0.100567
N1    N     N_2   0.447120 0.447110 0.150550 -0.272499
N2    N     N_2   0.552880 0.552890 0.849450 -0.275805
O1    O     O_R   0.517830 0.337490 0.617920 -0.583785
O2    O     O_R   0.482170 0.662510 0.382080 -0.579792
O3    O     O_R   0.482150 0.301790 0.382070 -0.565905
O4    O     O_R   0.517850 0.698210 0.617930 -0.568783
O5    O     O_R   0.337480 0.517860 0.617920 -0.592365
O6    O     O_R   0.662520 0.482140 0.382080 -0.590736
O7    O     O_R   0.301810 0.482160 0.382070 -0.565506
O8    O     O_R   0.698190 0.517840 0.617930 -0.576920
O9    O     O_3   0.192130 0.767137 0.408305 -0.599331
C43   C     C_3   0.110256 0.864476 0.425867 0.032612
H27   H     H_    0.012650 0.827511 0.420346 0.143632
H28   H     H_    0.114313 0.925514 0.345356 0.129231
C44   C     C_3   0.149961 0.941530 0.569073 -0.781068
H29   H     H_    0.246157 0.981695 0.576265 0.254531
H30   H     H_    0.086139 0.018211 0.586760 0.244753
H31   H     H_    0.147285 0.882468 0.651589 0.236219
O10   O     O_3   0.939763 0.205330 0.602152 -0.606539
C45   C     C_3   0.840204 0.127265 0.524678 0.064454
H32   H     H_    0.748333 0.170632 0.526092 0.142708
H33   H     H_    0.837019 0.038337 0.566666 0.143313
C46   C     C_3   0.861170 0.100237 0.372948 -0.830499
H34   H     H_    0.957287 0.070279 0.365975 0.247004
H35   H     H_    0.794178 0.025264 0.315149 0.195697
H36   H     H_    0.847678 0.185256 0.323922 0.243477

loop_
_geom_bond_atom_site_label_1
_geom_bond_atom_site_label_2
_ccdc_geom_bond_type
Cu1   O1    S    
C38   C40   A    
C5    C42   A    
Cu1   N2    S    
O9    C43   S    
C27   H10   S    
C27   N1    D    
C44   H29   S    
C40   H2    S    
C46   H34   S    
C19   C21   A    
C9    H25   S    
C20   C25   A    
Cu2   N1    S    
C35   H15   S    
C19   C26   A    
C24   O8    A    
C7    C17   A    
C6    C41   A    
C31   C33   A    
H11   N2    S    
C2    O2    A    
C39   H1    S    
C1    C22   S    
C46   H35   S    
C3    C24   S    
C28   N2    D    
C44   H30   S    
C37   C39   A    
C29   H13   S    
C1    O3    A    
C4    C6    A    
C13   H3    S    
C4    C23   S    
C14   H4    S    
C11   C26   S    
C36   H16   S    
Cu1   O8    S    
C8    C18   A    
C32   C34   A    
Cu2   O3    S    
Cu1   Cu2   S    
C45   H33   S    
C32   O10   S    
C29   C31   A    
H12   N1    S    
C5    C34   S    
C29   C39   A    
C2    C21   S    
C30   C40   A    
C23   O5    A    
Cu2   O2    S    
C9    C11   A    
C10   C12   A    
C10   H26   S    
C8    C10   A    
C12   C14   A    
C8    H24   S    
C46   H36   S    
C43   H28   S    
C13   C15   A    
C14   C16   A    
C18   H22   S    
C41   H19   S    
C42   H20   S    
C2    O4    A    
C45   C46   S    
C44   H31   S    
C24   O6    A    
Cu1   O4    S    
C7    C9    A    
C21   C25   A    
C3    C41   A    
C35   C37   A    
Cu2   O7    S    
C20   C22   A    
C3    C5    A    
C37   H17   S    
C28   H9    S    
C15   C17   A    
Cu1   O5    S    
C43   C44   S    
C17   H21   S    
C31   O9    S    
C6    C33   S    
C12   C25   S    
C1    O1    A    
C36   C38   A    
C20   H8    S    
C30   C32   A    
C11   C13   A    
C45   H32   S    
C4    C42   A    
C30   H14   S    
Cu2   O6    S    
C33   C35   A    
C34   C36   A    
C15   H5    S    
C16   H6    S    
C7    H23   S    
C19   H7    S    
C16   C18   A    
C43   H27   S    
C22   C26   A    
C27   C28   S    
C23   O7    A    
O10   C45   S    
C38   H18   S    
