data_mof_unit_29821.cif
_audit_creation_date              2012-12-10T17:15:42-0500
_audit_creation_method            fapswitch 2.2
_symmetry_space_group_name_H-M    P1
_symmetry_Int_Tables_number       1
_space_group_crystal_system       triclinic
_cell_length_a                    17.115266
_cell_length_b                    13.035224
_cell_length_c                    11.709081
_cell_angle_alpha                 100.117722
_cell_angle_beta                  87.219982
_cell_angle_gamma                 91.035665
_cell_volume                      2568.53930666

loop_
_atom_site_label
_atom_site_type_symbol
_atom_type_description
_atom_site_fract_x
_atom_site_fract_y
_atom_site_fract_z
_atom_type_partial_charge
C1    C     C_R   0.497922 0.299164 0.478715 0.850111
C2    C     C_R   0.500297 0.700702 0.521468 0.950603
C3    C     C_R   0.497160 0.814001 0.533994 -0.396704
C4    C     C_R   0.497049 0.185468 0.466044 -0.422202
C5    C     C_R   0.519206 0.016089 0.347050 0.652614
C6    C     C_R   0.469906 0.982482 0.651932 0.632237
C7    C     C_R   0.513611 0.123212 0.357087 0.361682
C8    C     C_R   0.474485 0.874988 0.641173 0.420163
C9    C     C_R   0.481661 0.138551 0.564100 0.600327
C10   C     C_R   0.513774 0.861320 0.436655 0.633324
C11   C     C_R   0.485825 0.030437 0.554574 -0.355574
C12   C     C_R   0.506507 0.968880 0.445435 -0.354997
C13   C     C_R   0.425557 0.405015 0.032981 -0.341554
C14   C     C_R   0.574611 0.595539 0.966854 -0.371001
C15   C     C_R   0.433005 0.411482 0.154200 0.580520
C16   C     C_R   0.566841 0.589626 0.844982 0.583399
C17   C     C_R   0.533326 0.539743 0.150984 0.785384
C18   C     C_R   0.467815 0.459148 0.848826 0.790807
C19   C     C_R   0.527848 0.533594 0.029438 -0.172302
C20   C     C_R   0.473404 0.465306 0.970037 -0.175683
C21   C     C_R   0.350299 0.500023 0.517976 0.913922
C22   C     C_R   0.649498 0.498617 0.481747 0.935752
C23   C     C_R   0.264843 0.503308 0.534171 -0.350162
C24   C     C_R   0.734455 0.494159 0.462764 -0.356571
C25   C     C_R   0.223041 0.562224 0.469814 0.424124
C26   C     C_R   0.781094 0.575466 0.517227 0.436028
C27   C     C_R   0.140592 0.557157 0.471146 0.339701
C28   C     C_R   0.863208 0.569834 0.503252 0.344864
C29   C     C_R   0.100463 0.501045 0.549948 -0.241931
C30   C     C_R   0.897438 0.483432 0.427860 -0.243176
C31   C     C_R   0.143712 0.464524 0.634620 0.309218
C32   C     C_R   0.848958 0.416002 0.353693 0.309061
C33   C     C_R   0.224946 0.453785 0.617272 0.258356
C34   C     C_R   0.768544 0.414149 0.380050 0.283990
C35   C     C_2   0.014917 0.476438 0.540053 0.430784
C36   C     C_2   0.982036 0.459786 0.434940 0.474929
Cu1   Cu    Cu3+1 0.505800 0.507690 0.615350 1.098729
Cu2   Cu    Cu3+1 0.494200 0.492310 0.384650 1.110560
H1    H     H_    0.382566 0.353720 0.987749 0.200977
H2    H     H_    0.615014 0.648839 0.015144 0.218976
N1    N     N_R   0.514530 0.519260 0.788680 -0.271991
N2    N     N_R   0.485470 0.480740 0.211320 -0.266817
O1    O     O_R   0.504120 0.354440 0.581590 -0.516465
O2    O     O_R   0.495880 0.645560 0.418410 -0.506148
O3    O     O_R   0.494320 0.341440 0.386760 -0.530422
O4    O     O_R   0.505680 0.658560 0.613240 -0.508607
O5    O     O_R   0.391870 0.507230 0.608700 -0.532438
O6    O     O_R   0.608130 0.492770 0.391300 -0.530205
O7    O     O_R   0.382070 0.494240 0.413880 -0.529347
O8    O     O_R   0.617930 0.505760 0.586120 -0.563684
F1    F     F_    0.263373 0.627474 0.409941 -0.675183
F2    F     F_    0.746248 0.661643 0.578892 -0.681056
O9    O     O_3   0.608735 0.652610 0.777687 -0.528141
C37   C     C_3   0.659082 0.728812 0.837711 0.030830
H3    H     H_    0.699022 0.756235 0.771758 0.226891
H4    H     H_    0.698746 0.695744 0.893982 0.111547
C38   C     C_3   0.613613 0.824597 0.900578 -0.313931
H5    H     H_    0.586875 0.863489 0.835122 0.270353
H6    H     H_    0.565682 0.801697 0.958527 0.264999
C39   C     C_3   0.667302 0.902455 0.972607 -0.797726
H7    H     H_    0.694875 0.865620 0.039079 0.268669
H8    H     H_    0.632733 0.970275 0.017483 0.312027
H9    H     H_    0.713596 0.930771 0.915680 0.234306
O10   O     O_3   0.383555 0.355663 0.219101 -0.586105
C40   C     C_3   0.374715 0.249733 0.166667 0.116719
H10   H     H_    0.382540 0.201764 0.234724 0.199609
H11   H     H_    0.419488 0.222243 0.095929 0.188585
C41   C     C_3   0.291704 0.229333 0.124194 -0.448818
H12   H     H_    0.249638 0.245696 0.199792 0.237223
H13   H     H_    0.277767 0.281981 0.063358 0.221171
C42   C     C_3   0.281154 0.116661 0.063813 -0.840508
H14   H     H_    0.322089 0.099251 0.986476 0.298768
H15   H     H_    0.220339 0.104318 0.034883 0.243488
H16   H     H_    0.292096 0.062379 0.124459 0.263460
O11   O     O_3   0.723213 0.336383 0.319008 -0.559651
C43   C     C_3   0.707510 0.258057 0.387016 0.097464
H17   H     H_    0.653890 0.216917 0.354906 0.214012
H18   H     H_    0.694921 0.289747 0.480894 0.086809
C44   C     C_3   0.773669 0.178391 0.372360 -0.336309
H19   H     H_    0.788224 0.151658 0.278410 0.256586
H20   H     H_    0.826662 0.215086 0.413932 0.211015
C45   C     C_3   0.749958 0.084248 0.427932 -0.897685
H21   H     H_    0.733623 0.109242 0.521535 0.255662
H22   H     H_    0.799748 0.029597 0.419645 0.264289
H23   H     H_    0.699484 0.042721 0.383815 0.279001
O12   O     O_3   0.265093 0.400520 0.687930 -0.523340
C46   C     C_3   0.263225 0.292629 0.641297 0.163700
H24   H     H_    0.315619 0.273274 0.581897 0.146359
H25   H     H_    0.209989 0.267709 0.591609 0.096324
C47   C     C_3   0.264545 0.230177 0.740264 -0.257940
H26   H     H_    0.318529 0.248660 0.788850 0.300557
H27   H     H_    0.213426 0.251904 0.801458 0.206448
C48   C     C_3   0.261406 0.113164 0.694492 -0.849572
H28   H     H_    0.205853 0.091727 0.650577 0.234034
H29   H     H_    0.264546 0.070063 0.767919 0.276850
H30   H     H_    0.311432 0.089724 0.631956 0.275244
O13   O     O_3   0.027180 0.422272 0.334938 -0.643092
C49   C     C_3   0.034643 0.312246 0.321466 0.060728
H31   H     H_    0.037131 0.281247 0.226748 0.186062
H32   H     H_    0.983660 0.273118 0.359442 0.150770
C50   C     C_3   0.109763 0.281222 0.372107 -0.437827
H33   H     H_    0.159907 0.327880 0.344646 0.223911
H34   H     H_    0.103243 0.296372 0.468057 0.202148
C51   C     C_3   0.126168 0.165208 0.334059 -0.913319
H35   H     H_    0.078167 0.118094 0.366900 0.260045
H36   H     H_    0.181833 0.145805 0.369993 0.253596
H37   H     H_    0.131414 0.144680 0.237892 0.263284
O14   O     O_3   0.967728 0.474451 0.639661 -0.661245
C52   C     C_3   0.945138 0.370757 0.648968 0.037999
H38   H     H_    0.973369 0.350040 0.725117 0.205317
H39   H     H_    0.962971 0.310752 0.572306 0.104346
C53   C     C_3   0.856382 0.364578 0.669807 -0.376811
H40   H     H_    0.836547 0.430266 0.738134 0.234747
H41   H     H_    0.827339 0.371164 0.589101 0.192152
C54   C     C_3   0.831131 0.261689 0.706099 -0.899419
H42   H     H_    0.850898 0.195082 0.638799 0.257765
H43   H     H_    0.766347 0.258544 0.716598 0.265623
H44   H     H_    0.856225 0.254716 0.790082 0.258464
O15   O     O_3   0.108809 0.437016 0.734183 -0.587823
C55   C     C_3   0.085368 0.528542 0.812413 0.111416
H45   H     H_    0.046341 0.504572 0.881882 0.145249
H46   H     H_    0.050625 0.580733 0.769853 0.172393
C56   C     C_3   0.154402 0.591310 0.869274 -0.347953
H47   H     H_    0.183085 0.545591 0.926804 0.226900
H48   H     H_    0.198380 0.608571 0.802290 0.242311
C57   C     C_3   0.126156 0.695464 0.938723 -0.948863
H49   H     H_    0.092856 0.738662 0.883529 0.256628
H50   H     H_    0.177131 0.744643 0.969214 0.279076
H51   H     H_    0.088148 0.682519 0.014606 0.255216
O16   O     O_3   0.878793 0.347444 0.258584 -0.599683
C58   C     C_3   0.895997 0.402191 0.165727 0.100669
H52   H     H_    0.940871 0.357197 0.106708 0.147971
H53   H     H_    0.922176 0.480980 0.194773 0.157268
C59   C     C_3   0.823349 0.410859 0.096386 -0.304656
H54   H     H_    0.800080 0.331570 0.063460 0.242344
H55   H     H_    0.777234 0.455563 0.153085 0.252468
C60   C     C_3   0.842758 0.466543 0.994191 -0.961950
H56   H     H_    0.863660 0.547261 0.025730 0.259299
H57   H     H_    0.789405 0.470410 0.944863 0.270045
H58   H     H_    0.888807 0.423862 0.935399 0.256229
O17   O     O_3   0.910800 0.654011 0.546633 -0.571572
C61   C     C_3   0.899102 0.686696 0.668243 0.198093
H59   H     H_    0.954643 0.674779 0.708635 0.150280
H60   H     H_    0.853120 0.642269 0.710438 0.143876
C62   C     C_3   0.881767 0.803412 0.694979 -0.328380
H61   H     H_    0.928623 0.846535 0.653567 0.226327
H62   H     H_    0.825319 0.818917 0.658698 0.264754
C63   C     C_3   0.877994 0.843907 0.825602 -0.970426
H63   H     H_    0.832214 0.801269 0.869503 0.256528
H64   H     H_    0.863641 0.928103 0.842411 0.266893
H65   H     H_    0.935340 0.833883 0.862644 0.260923
O18   O     O_3   0.097278 0.616005 0.408451 -0.571883
C64   C     C_3   0.126354 0.610249 0.291828 0.209852
H66   H     H_    0.076708 0.588653 0.234325 0.125843
H67   H     H_    0.170049 0.547330 0.262947 0.153243
C65   C     C_3   0.157527 0.717692 0.272441 -0.309941
H68   H     H_    0.110310 0.759739 0.238403 0.174490
H69   H     H_    0.174115 0.765790 0.355996 0.270440
C66   C     C_3   0.228730 0.709221 0.187255 -0.812045
H70   H     H_    0.281863 0.688685 0.228421 0.318282
H71   H     H_    0.239838 0.785297 0.158882 0.245169
H72   H     H_    0.219072 0.648316 0.110409 0.240230
F3    F     F_    0.537906 0.802689 0.333646 -0.542357
F4    F     F_    0.462386 0.198095 0.668662 -0.570055
F5    F     F_    0.454400 0.830595 0.735191 -0.617687
F6    F     F_    0.528023 0.165860 0.260247 -0.638238
F7    F     F_    0.537391 0.959311 0.240551 -0.574846
F8    F     F_    0.448485 0.038675 0.757475 -0.582781
F9    F     F_    0.415170 0.393705 0.790808 -0.612112
F10   F     F_    0.586628 0.604655 0.208987 -0.602893

loop_
_geom_bond_atom_site_label_1
_geom_bond_atom_site_label_2
_ccdc_geom_bond_type
C22   O6    A    
C46   H24   S    
C27   O18   S    
C27   C29   A    
C54   H43   S    
C35   C36   D    
C63   H65   S    
O11   C43   S    
C58   C59   S    
C62   C63   S    
C59   C60   S    
C51   H36   S    
C62   H61   S    
C38   H5    S    
C56   H47   S    
Cu2   O7    S    
O9    C37   S    
C2    O4    A    
C60   H57   S    
C48   H28   S    
C39   H9    S    
C65   H68   S    
C43   H18   S    
Cu2   N2    S    
C52   H39   S    
C38   H6    S    
C54   H42   S    
C32   O16   S    
O14   C52   S    
C18   C20   A    
C39   H8    S    
C17   N2    A    
C51   H35   S    
Cu2   O3    S    
C35   O14   S    
C16   O9    S    
C1    O1    A    
C64   H66   S    
C19   C20   A    
C2    O2    A    
C41   H12   S    
C23   C33   A    
C15   O10   S    
C66   H71   S    
C36   O13   S    
C64   H67   S    
Cu2   O6    S    
C55   C56   S    
C34   O11   S    
C22   O8    A    
C54   H44   S    
C23   C25   A    
C50   H34   S    
C61   C62   S    
C4    C7    A    
C21   O7    A    
C53   H40   S    
C62   H62   S    
C50   H33   S    
C55   H46   S    
O13   C49   S    
C6    F8    S    
C60   H58   S    
C37   H4    S    
C10   F3    S    
C63   H63   S    
C5    C12   A    
C3    C8    A    
C52   C53   S    
C6    C11   A    
C44   H20   S    
O12   C46   S    
C56   C57   S    
C59   H55   S    
C57   H51   S    
C40   H11   S    
C24   C34   A    
C39   H7    S    
C32   C34   A    
Cu1   O1    S    
C9    F4    S    
C33   O12   S    
C25   F1    S    
Cu2   O2    S    
Cu1   Cu2   S    
C26   F2    S    
C42   H16   S    
C47   H27   S    
C66   H70   S    
O15   C55   S    
C40   C41   S    
C31   C33   A    
C66   H72   S    
C43   H17   S    
C64   C65   S    
C9    C11   A    
C31   O15   S    
C51   H37   S    
C10   C12   A    
C53   H41   S    
C63   H64   S    
C7    F6    S    
C45   H21   S    
C48   H30   S    
C45   H22   S    
C21   C23   S    
C25   C27   A    
C14   C16   A    
C18   N1    A    
Cu1   O5    S    
C40   H10   S    
C58   H52   S    
C49   C50   S    
C61   H60   S    
C55   H45   S    
C47   C48   S    
C5    C7    A    
C18   F9    S    
C37   H3    S    
C57   H50   S    
C13   C20   A    
C17   F10   S    
C14   C19   A    
C65   C66   S    
C15   N2    A    
C24   C26   A    
C58   H53   S    
C44   C45   S    
C6    C8    A    
C11   C12   A    
C41   C42   S    
C59   H54   S    
C50   C51   S    
C45   H23   S    
C60   H56   S    
C29   C35   S    
C26   C28   A    
C30   C36   S    
C1    C4    S    
O10   C40   S    
C13   C15   A    
C2    C3    S    
C4    C9    A    
C42   H14   S    
C29   C31   A    
C3    C10   A    
O17   C61   S    
C30   C32   A    
Cu1   O8    S    
C1    O3    A    
C47   H26   S    
C48   H29   S    
C57   H49   S    
C65   H69   S    
C17   C19   A    
C28   C30   A    
O16   C58   S    
C22   C24   S    
C5    F7    S    
Cu1   N1    S    
C49   H32   S    
C13   H1    S    
C56   H48   S    
C8    F5    S    
C14   H2    S    
C44   H19   S    
C38   C39   S    
C43   C44   S    
O18   C64   S    
C41   H13   S    
C49   H31   S    
C46   C47   S    
C42   H15   S    
C46   H25   S    
C61   H59   S    
C28   O17   S    
Cu1   O4    S    
C52   H38   S    
C16   N1    A    
C53   C54   S    
C21   O5    A    
C37   C38   S    
