data_mof_unit_42762.cif
_audit_creation_date              2013-03-05T15:57:55-0500
_audit_creation_method            fapswitch 2.2
_symmetry_space_group_name_H-M    P1
_symmetry_Int_Tables_number       1
_space_group_crystal_system       triclinic
_cell_length_a                    15.058005
_cell_length_b                    15.257255
_cell_length_c                    16.914214
_cell_angle_alpha                 108.553826
_cell_angle_beta                  106.229472
_cell_angle_gamma                 109.292292
_cell_volume                      3139.49177642

loop_
_atom_site_label
_atom_site_type_symbol
_atom_site_description
_atom_site_fract_x
_atom_site_fract_y
_atom_site_fract_z
_atom_type_partial_charge
C1    C     C_R   0.090938 0.279660 0.047492 -0.154264
C2    C     C_R   0.911075 0.710363 0.925041 -0.172475
H1    H     H_    0.170572 0.297966 0.086315 0.096759
H2    H     H_    0.832352 0.685758 0.877855 0.096563
N1    N     N_R   0.055660 0.348550 0.045620 -0.037599
N2    N     N_R   0.944340 0.651450 0.954380 -0.036842
C3    C     C_R   0.935317 0.452683 0.734963 -0.115121
C4    C     C_R   0.065768 0.484807 0.254983 -0.146674
H3    H     H_    0.856688 0.409779 0.682502 0.165598
H4    H     H_    0.145454 0.510281 0.298978 0.170412
N3    N     N_R   0.960830 0.507850 0.823700 -0.051097
N4    N     N_R   0.039170 0.492150 0.176300 -0.050056
C5    C     C_R   0.729355 0.210043 0.819500 -0.136278
C6    C     C_R   0.219551 0.794966 0.186539 -0.139460
H5    H     H_    0.700145 0.158486 0.847428 0.159874
H6    H     H_    0.232178 0.857302 0.167640 0.163814
N5    N     N_R   0.811290 0.303410 0.871650 -0.052108
N6    N     N_R   0.188710 0.696590 0.128350 -0.050290
C7    C     C_R   0.300565 0.593314 0.003154 -0.140327
C8    C     C_R   0.738831 0.462817 0.048797 -0.147971
H7    H     H_    0.329729 0.649155 0.978623 0.095713
H8    H     H_    0.715517 0.421644 0.086810 0.098163
N7    N     N_R   0.205200 0.552990 0.997670 -0.043035
N8    N     N_R   0.794800 0.447010 0.002330 -0.043278
C9    C     C_R   0.733583 0.302640 0.740802 -0.129184
C10   C     C_R   0.211583 0.700467 0.263799 -0.113470
H9    H     H_    0.708495 0.333306 0.694405 0.101498
H10   H     H_    0.214852 0.675207 0.316564 0.096729
N9    N     N_R   0.814800 0.361830 0.823700 -0.045334
N10   N     N_R   0.185200 0.638170 0.176300 -0.042275
C11   C     C_R   0.293562 0.496165 0.077892 -0.132142
C12   C     C_R   0.748736 0.560698 0.973325 -0.120815
H11   H     H_    0.315596 0.461732 0.122031 0.094384
H12   H     H_    0.734339 0.609254 0.942188 0.093827
N11   N     N_R   0.201680 0.494570 0.045620 -0.041117
N12   N     N_R   0.798320 0.505430 0.954380 -0.039670
C13   C     C_R   0.108767 0.532944 0.812307 -0.122762
C14   C     C_R   0.893380 0.398400 0.177802 -0.135138
H13   H     H_    0.190796 0.559319 0.830929 0.096979
H14   H     H_    0.813733 0.339871 0.150073 0.092962
N13   N     N_R   0.068420 0.560530 0.871650 -0.040895
N14   N     N_R   0.931580 0.439470 0.128350 -0.039402
C15   C     C_R   0.916348 0.194579 0.965677 -0.130369
C16   C     C_R   0.084144 0.797514 0.004112 -0.126962
H15   H     H_    0.836526 0.135019 0.926519 0.100895
H16   H     H_    0.164282 0.853760 0.029439 0.106890
N15   N     N_R   0.948070 0.295860 0.997670 -0.039594
N16   N     N_R   0.051930 0.704140 0.002330 -0.043810
C17   C     C_R   0.004298 0.182958 0.996770 0.072277
C18   C     C_R   0.996717 0.802826 0.958307 0.082209
C19   C     C_R   0.026488 0.461946 0.725714 0.090840
C20   C     C_R   0.976006 0.424930 0.258199 0.105354
C21   C     C_R   0.679821 0.204763 0.734635 0.101958
C22   C     C_R   0.230267 0.799489 0.272069 0.094611
C23   C     C_R   0.356088 0.558490 0.052651 0.104377
C24   C     C_R   0.709746 0.534066 0.031239 0.098156
C25   C     C_R   0.944235 0.934921 0.011780 -0.028018
C26   C     C_R   0.050422 0.045490 0.933703 -0.029335
H17   H     H_    0.753504 0.013268 0.965284 0.111324
H18   H     H_    0.250643 0.034479 0.953399 0.115654
C27   C     C_R   0.992934 0.895285 0.960436 -0.021172
C28   C     C_R   0.002712 0.085890 0.986364 -0.021257
C29   C     C_R   0.045988 0.949026 0.920830 -0.008074
C30   C     C_R   0.949026 0.030688 0.025002 -0.018268
C31   C     C_R   0.794268 0.047931 0.039708 -0.154047
C32   C     C_R   0.203905 0.958669 0.893787 -0.153242
Ni1   Ni    Ni4+2 0.119340 0.493420 0.109960 0.213050
Ni2   Ni    Ni4+2 0.880660 0.506580 0.890040 0.212958
Ni3   Ni    Ni4+2 0.872590 0.372590 0.000000 0.207323
Ni4   Ni    Ni4+2 0.127410 0.627410 0.000000 0.211204
C33   C     C_R   0.786342 0.096266 0.187367 -0.113074
C34   C     C_R   0.193750 0.815473 0.769955 -0.134865
H19   H     H_    0.536311 0.833792 0.446798 0.108667
H20   H     H_    0.434683 0.271592 0.603329 0.118348
C35   C     C_R   0.542466 0.829470 0.320060 -0.157376
C36   C     C_R   0.455749 0.266427 0.732824 -0.110697
H21   H     H_    0.541535 0.903444 0.333889 0.117869
H22   H     H_    0.426788 0.182834 0.702707 0.128395
C37   C     C_R   0.545975 0.773131 0.238152 0.047910
C38   C     C_R   0.485714 0.323188 0.827270 0.037783
C39   C     C_R   0.546442 0.676524 0.220606 0.123903
C40   C     C_R   0.517943 0.431757 0.864518 0.122957
C41   C     C_R   0.543680 0.637998 0.285464 -0.206686
C42   C     C_R   0.524278 0.481024 0.807349 -0.195717
H23   H     H_    0.542380 0.563192 0.272216 0.113685
H24   H     H_    0.547133 0.563617 0.834586 0.113468
C43   C     C_R   0.540409 0.694797 0.366840 -0.110529
C44   C     C_R   0.496444 0.423610 0.714052 -0.126843
H25   H     H_    0.537738 0.664377 0.416329 0.109813
H26   H     H_    0.499853 0.461942 0.670226 0.113625
C45   C     C_R   0.539510 0.790246 0.384004 -0.100642
C46   C     C_R   0.460257 0.316237 0.676490 -0.121785
C47   C     C_R   0.629765 0.603467 0.125412 -0.029459
C48   C     C_R   0.440543 0.498055 0.964260 -0.025124
C49   C     C_R   0.621579 0.544276 0.038589 0.011832
C50   C     C_R   0.449002 0.558173 0.050344 0.021701
C51   C     C_R   0.527913 0.492460 0.957532 -0.064625
C52   C     C_R   0.541971 0.611697 0.131443 -0.041800
C53   C     C_R   0.739395 0.063980 0.092555 -0.157503
C54   C     C_R   0.252098 0.914425 0.845530 -0.135351
C55   C     C_R   0.968872 0.386290 0.327044 -0.029287
C56   C     C_R   0.034623 0.412284 0.639501 -0.047271
C57   C     C_R   0.140392 0.429553 0.555567 -0.166467
C58   C     C_R   0.861788 0.316711 0.397302 -0.163350
C59   C     C_R   0.132767 0.444051 0.638194 -0.280127
C60   C     C_R   0.870791 0.339723 0.326204 -0.269294
C61   C     C_R   0.944433 0.346781 0.554857 0.559905
C62   C     C_R   0.058287 0.401536 0.397780 0.571223
C63   C     C_R   0.951494 0.348252 0.474737 -0.036449
C64   C     C_R   0.050434 0.390890 0.475090 -0.052704
H27   H     H_    0.800217 0.324016 0.272416 0.141842
H28   H     H_    0.204129 0.486865 0.701057 0.144621
H29   H     H_    0.217328 0.459827 0.557426 0.180589
H30   H     H_    0.784961 0.283166 0.395058 0.176257
C65   C     C_R   0.578947 0.120223 0.660041 -0.071076
C66   C     C_R   0.268129 0.892915 0.358376 -0.072414
C67   C     C_R   0.385329 0.077417 0.442489 -0.356453
C68   C     C_R   0.432540 0.947995 0.590283 -0.367839
C69   C     C_R   0.300886 0.993567 0.362905 0.633838
C70   C     C_R   0.531473 0.022295 0.659102 0.624345
C71   C     C_R   0.297483 0.884112 0.440489 -0.301206
C72   C     C_R   0.528490 0.137704 0.587700 -0.318297
C73   C     C_R   0.384766 0.965735 0.517811 0.123256
C74   C     C_R   0.432332 0.061482 0.516915 0.105940
H31   H     H_    0.658855 0.046894 0.059340 0.118774
H32   H     H_    0.335082 0.956555 0.867284 0.123004
H33   H     H_    0.563852 0.209654 0.584232 0.153752
H34   H     H_    0.264679 0.809950 0.441219 0.146946
H35   H     H_    0.418205 0.152739 0.443344 0.153697
H36   H     H_    0.396977 0.873394 0.590103 0.158935
H37   H     H_    0.741684 0.104259 0.227064 0.108816
H38   H     H_    0.232541 0.782023 0.733856 0.110806
C75   C     C_R   0.889340 0.114793 0.230404 0.121134
C76   C     C_R   0.086031 0.760213 0.741475 0.099854
C77   C     C_R   0.946196 0.104207 0.177835 -0.221333
C78   C     C_R   0.037858 0.805280 0.789658 -0.171991
H39   H     H_    0.024735 0.115197 0.209907 0.098570
H40   H     H_    0.954871 0.762494 0.767911 0.111798
C79   C     C_R   0.898917 0.070240 0.082167 0.167069
C80   C     C_R   0.096401 0.904390 0.866401 0.133828
N17   N     N_3   0.548480 0.813494 0.172637 -0.220336
H41   H     H_    0.613989 0.886411 0.205974 0.098338
H42   H     H_    0.482359 0.824556 0.152627 0.102954
N18   N     N_3   0.477673 0.267621 0.881588 -0.224115
H43   H     H_    0.499643 0.317151 0.950165 0.103153
H44   H     H_    0.531067 0.237743 0.882780 0.107244
N19   N     N_3   0.727761 0.656472 0.205418 -0.209819
H45   H     H_    0.717991 0.628980 0.253205 0.108091
H46   H     H_    0.749114 0.736055 0.235022 0.113491
N20   N     N_3   0.341239 0.440853 0.884417 -0.208741
H47   H     H_    0.321132 0.361561 0.856874 0.122085
H48   H     H_    0.347057 0.466497 0.834804 0.110871
O1    O     O_3   0.155528 0.438913 0.398283 -0.649992
C81   C     C_3   0.166934 0.353784 0.346804 -0.341953
H49   H     H_    0.108886 0.312604 0.273292 0.161897
H50   H     H_    0.161683 0.298986 0.377770 0.150784
H51   H     H_    0.245400 0.383684 0.347940 0.181453
O2    O     O_3   0.847539 0.293842 0.550680 -0.651087
C82   C     C_3   0.843668 0.207265 0.565866 -0.309045
H52   H     H_    0.900732 0.231813 0.636626 0.152747
H53   H     H_    0.856746 0.153893 0.513078 0.143990
H54   H     H_    0.764804 0.163007 0.559585 0.183463
O3    O     O_3   0.580270 0.996994 0.724132 -0.638927
C83   C     C_3   0.636440 0.948733 0.690778 -0.320181
H55   H     H_    0.695614 0.000794 0.677191 0.141982
H56   H     H_    0.583179 0.873419 0.627419 0.147794
H57   H     H_    0.678760 0.931788 0.744415 0.175988
O4    O     O_3   0.262333 0.010469 0.287885 -0.635250
C84   C     C_3   0.159166 0.993361 0.269518 -0.319734
H58   H     H_    0.155613 0.046325 0.330184 0.141528
H59   H     H_    0.106455 0.910737 0.248059 0.149688
H60   H     H_    0.130116 0.010710 0.211368 0.182312
N21   N     N_3   0.933531 0.140266 0.326483 -0.212792
H61   H     H_    0.889691 0.076950 0.334197 0.094461
H62   H     H_    0.009287 0.148632 0.347675 0.082243
N22   N     N_3   0.024799 0.657864 0.664963 -0.212960
H63   H     H_    0.072212 0.633693 0.638487 0.110105
H64   H     H_    0.972909 0.662603 0.612544 0.099669
N23   N     N_3   0.892374 0.880578 0.054293 -0.207053
H65   H     H_    0.825383 0.812751 0.003131 0.108137
H66   H     H_    0.942559 0.862402 0.095065 0.113679
N24   N     N_3   0.099394 0.099386 0.889795 -0.209905
H67   H     H_    0.045518 0.113222 0.847830 0.116537
H68   H     H_    0.162421 0.170761 0.940663 0.106953

loop_
_geom_bond_atom_site_label_1
_geom_bond_atom_site_label_2
_geom_bond_distance
_ccdc_geom_bond_type
C26   C28   1.410797 A    
C24   C49   1.420884 S    
C41   C43   1.398200 A    
N5    Ni3   1.859286 S    
C43   C45   1.396927 A    
C84   H59   1.112439 S    
C84   H58   1.113719 S    
C6    N6    1.334550 A    
C7    N7    1.324633 A    
N19   H45   1.045150 S    
C78   C80   1.406784 A    
C68   C70   1.390815 A    
C58   C60   1.384261 A    
C73   C74   1.405723 A    
C53   H31   1.082332 S    
N21   H61   1.045474 S    
C19   C56   1.474299 S    
C3    N3    1.329978 A    
N1    N15   1.385193 A    
N8    N12   1.381274 A    
C76   N22   1.434913 S    
C57   C64   1.402181 A    
C1    N1    1.329908 A    
C12   N12   1.322504 A    
C83   H55   1.113846 S    
C57   H29   1.083166 S    
C67   C74   1.398291 A    
C36   H22   1.082204 S    
C14   N14   1.336963 A    
C67   C69   1.392093 A    
C58   C63   1.397172 A    
C13   C19   1.393852 A    
C14   C20   1.390059 A    
C39   C52   1.485670 S    
H20   C46   1.080496 S    
C26   C29   1.393193 A    
N5    N9    1.381275 A    
C56   C59   1.403991 A    
C3    H3    1.071775 S    
C29   C80   1.490266 S    
C32   C54   1.397379 A    
C72   H33   1.079011 S    
C27   C29   1.405399 A    
N24   H67   1.045568 S    
N15   Ni3   1.881161 S    
N4    N14   1.385193 A    
C2    C18   1.362697 A    
C70   O3    1.380089 S    
C62   O1    1.381130 S    
C44   C46   1.392334 A    
C38   N18   1.437901 S    
C22   C66   1.470208 S    
C28   C30   1.409153 A    
C82   H53   1.113851 S    
C47   N19   1.435813 S    
N6    N10   1.381275 A    
C6    H6    1.072778 S    
C67   H35   1.084192 S    
C4    C20   1.386098 A    
C81   H50   1.112538 S    
N10   Ni1   1.863788 S    
C41   H23   1.083172 S    
N1    Ni1   1.864065 S    
C68   C73   1.392941 A    
C55   C62   1.419125 A    
N22   H64   1.045334 S    
H18   C32   1.083090 S    
C47   C49   1.403088 A    
C65   C72   1.402682 A    
N13   Ni4   1.859204 S    
C61   C63   1.395209 A    
N7    Ni4   1.881235 S    
C2    N2    1.321936 A    
C10   C22   1.394231 A    
C39   C41   1.403714 A    
C16   H16   1.081180 S    
N8    Ni3   1.881235 S    
C34   H38   1.082815 S    
C5    C21   1.382564 A    
C60   H27   1.080288 S    
N21   H62   1.045071 S    
C9    N9    1.335331 A    
N4    Ni1   1.863423 S    
C20   C55   1.476486 S    
C66   C71   1.398984 A    
C8    N8    1.330459 A    
C31   C53   1.396050 A    
C71   H34   1.080484 S    
C78   H40   1.083611 S    
N16   Ni4   1.881162 S    
C37   C39   1.410779 A    
C15   C17   1.373711 A    
C76   C78   1.402348 A    
C48   C51   1.379427 A    
C33   C53   1.395571 A    
N14   Ni3   1.859203 S    
C50   C52   1.402365 A    
C1    H1    1.081194 S    
C12   H12   1.078782 S    
C2    H2    1.081460 S    
C7    H7    1.081897 S    
C68   H36   1.084632 S    
N9    Ni2   1.863787 S    
C15   H15   1.076762 S    
C34   C76   1.405362 A    
C82   H52   1.112787 S    
N11   Ni1   1.863843 S    
C4    N4    1.330697 A    
N2    Ni2   1.864064 S    
N12   Ni2   1.863844 S    
C11   H11   1.081570 S    
C82   H54   1.109696 S    
C56   C61   1.413742 A    
C57   C59   1.387475 A    
C48   C50   1.395273 A    
C35   H21   1.083061 S    
H19   C45   1.082826 S    
C81   H49   1.112322 S    
N2    N16   1.385194 A    
C81   H51   1.109092 S    
C58   H30   1.083326 S    
N18   H44   1.045742 S    
N22   H63   1.045876 S    
C6    C22   1.386457 A    
C59   H28   1.080495 S    
C36   C46   1.397482 A    
C10   N10   1.333490 A    
C15   N15   1.320793 A    
C40   C42   1.405669 A    
C5    H5    1.076736 S    
O2    C82   1.409840 S    
C84   H60   1.109273 S    
C54   H32   1.082460 S    
C48   N20   1.442316 S    
C8    H8    1.081082 S    
C72   C74   1.383710 A    
C61   O2    1.383298 S    
N3    Ni2   1.863420 S    
C25   C30   1.379679 A    
C25   N23   1.442159 S    
C34   C54   1.397445 A    
C7    C23   1.366593 A    
C55   C60   1.405242 A    
C77   H39   1.083268 S    
O4    C84   1.410187 S    
C44   H26   1.082360 S    
C17   C28   1.425924 S    
N19   H46   1.045729 S    
C83   H57   1.109490 S    
C36   C38   1.401417 A    
C9    C21   1.396827 A    
N18   H43   1.043278 S    
C23   C50   1.412047 S    
C33   C75   1.401263 A    
C49   C51   1.409443 A    
C25   C27   1.404446 A    
C35   C45   1.396830 A    
C9    H9    1.078069 S    
C77   C79   1.404424 A    
C10   H10   1.074410 S    
N6    Ni4   1.859285 S    
C66   C69   1.418084 A    
C5    N5    1.326732 A    
C26   N24   1.437227 S    
N17   H42   1.045644 S    
C3    C19   1.391070 A    
C13   H13   1.077155 S    
C63   C64   1.412448 A    
H17   C31   1.082133 S    
C14   H14   1.080354 S    
C37   N17   1.432100 S    
C42   C44   1.393274 A    
C35   C37   1.405029 A    
C69   O4    1.381679 S    
C11   N11   1.326623 A    
C83   H56   1.113115 S    
C40   C51   1.484684 S    
C38   C40   1.417778 A    
C62   C64   1.399704 A    
N3    N13   1.385192 A    
N20   H48   1.045159 S    
C8    C24   1.381679 A    
C13   N13   1.339684 A    
N7    N11   1.381272 A    
N24   H68   1.044634 S    
C71   C73   1.381987 A    
O3    C83   1.410586 S    
C33   H37   1.082760 S    
N23   H65   1.043897 S    
C31   C79   1.404348 A    
C21   C65   1.470150 S    
C18   C27   1.420002 S    
C32   C80   1.404206 A    
C16   C18   1.371229 A    
C4    H4    1.073900 S    
C65   C70   1.420014 A    
C75   C77   1.405412 A    
C43   H25   1.082333 S    
N20   H47   1.045336 S    
C42   H24   1.083508 S    
C11   C23   1.365430 A    
O1    C81   1.409221 S    
N17   H41   1.045664 S    
C1    C17   1.382696 A    
C47   C52   1.396703 A    
C12   C24   1.373494 A    
C16   N16   1.331785 A    
C75   N21   1.434391 S    
N23   H66   1.045194 S    
C30   C79   1.485171 S    
