data_mof_unit_50308.cif
_audit_creation_date              2012-12-10T18:11:02-0500
_audit_creation_method            fapswitch 2.2
_symmetry_space_group_name_H-M    P1
_symmetry_Int_Tables_number       1
_space_group_crystal_system       triclinic
_cell_length_a                    10.738518
_cell_length_b                    9.470728
_cell_length_c                    10.619253
_cell_angle_alpha                 89.884044
_cell_angle_beta                  90.900535
_cell_angle_gamma                 90.11906
_cell_volume                      1079.85697409

loop_
_atom_site_label
_atom_site_type_symbol
_atom_type_description
_atom_site_fract_x
_atom_site_fract_y
_atom_site_fract_z
_atom_type_partial_charge
C1    C     C_R   0.259711 0.499766 0.499915 0.772585
C2    C     C_3   0.499967 0.501339 0.122404 0.032820
C3    C     C_3   0.073784 0.579127 0.617480 -0.387725
C4    C     C_3   0.070311 0.345896 0.503566 -0.379920
C5    C     C_3   0.929941 0.581756 0.616557 -0.377710
C6    C     C_3   0.928008 0.345928 0.507893 -0.378878
C7    C     C_3   0.069271 0.572287 0.379800 -0.352200
C8    C     C_3   0.121455 0.499308 0.500324 0.154145
C9    C     C_3   0.877756 0.499450 0.501109 0.177516
C10   C     C_3   0.925523 0.569708 0.379007 -0.397396
C11   C     C_3   0.627462 0.083786 0.522994 -0.222305
C12   C     C_3   0.627331 0.916655 0.524044 -0.220670
C13   C     C_3   0.423130 0.082991 0.605460 -0.222128
C14   C     C_3   0.422084 0.916342 0.604644 -0.223212
C15   C     C_3   0.453472 0.084022 0.379948 -0.062440
C16   C     C_3   0.454625 0.915950 0.379496 -0.067998
C17   C     C_R   0.499896 0.500314 0.259434 0.832826
C18   C     C_R   0.739867 0.499934 0.500858 0.745883
C19   C     C_R   0.499922 0.499798 0.740596 0.785943
C20   C     C_3   0.514343 0.633845 0.040500 -0.101470
C21   C     C_3   0.391200 0.448227 0.040247 -0.115524
C22   C     C_3   0.405592 0.580449 0.956121 -0.165405
C23   C     C_3   0.499905 0.499372 0.877506 -0.001731
C24   C     C_3   0.608674 0.552773 0.959492 -0.206398
C25   C     C_3   0.485560 0.366983 0.959399 -0.124529
C26   C     C_3   0.594395 0.420455 0.043689 -0.185335
Cu1   Cu    Cu3+1 0.499860 0.642410 0.500060 0.909305
Cu2   Cu    Cu3+1 0.499860 0.357590 0.500060 0.910891
H1    H     H_    0.328382 0.645830 0.917101 0.133365
H2    H     H_    0.889737 0.679633 0.370797 0.160860
H3    H     H_    0.890588 0.510357 0.295201 0.148744
H4    H     H_    0.668013 0.123563 0.613281 0.149074
H5    H     H_    0.666507 0.877927 0.615378 0.147790
H6    H     H_    0.690260 0.120987 0.447472 0.136365
H7    H     H_    0.691215 0.878742 0.449980 0.138197
H8    H     H_    0.459924 0.119010 0.698441 0.154046
H9    H     H_    0.456719 0.878463 0.697918 0.161219
H10   H     H_    0.518584 0.117952 0.304868 0.138534
H11   H     H_    0.521747 0.884466 0.305597 0.130046
H12   H     H_    0.326428 0.123570 0.599746 0.125293
H13   H     H_    0.324900 0.877222 0.596697 0.122748
H14   H     H_    0.526430 0.743241 0.076073 0.150420
H15   H     H_    0.301219 0.407348 0.075181 0.169608
H16   H     H_    0.697562 0.595411 0.923115 0.122184
H17   H     H_    0.473687 0.257557 0.923815 0.132274
H18   H     H_    0.671608 0.355109 0.082734 0.121660
H19   H     H_    0.109752 0.689447 0.618332 0.156748
H20   H     H_    0.098633 0.289462 0.417149 0.178151
H21   H     H_    0.108635 0.526590 0.704990 0.148811
H22   H     H_    0.108500 0.287707 0.586757 0.154734
H23   H     H_    0.895161 0.533987 0.705216 0.143247
H24   H     H_    0.897480 0.293958 0.596407 0.158808
H25   H     H_    0.897367 0.693238 0.613410 0.159414
H26   H     H_    0.890455 0.282658 0.427507 0.159028
H27   H     H_    0.101369 0.683620 0.375760 0.175784
H28   H     H_    0.104080 0.518091 0.294378 0.167890
N1    N     N_3   0.500250 0.143650 0.502780 -0.148379
N2    N     N_3   0.500250 0.856350 0.502780 -0.147930
O1    O     O_R   0.317570 0.620260 0.500070 -0.597828
O2    O     O_R   0.317570 0.379740 0.500070 -0.593670
O3    O     O_R   0.499850 0.620240 0.316900 -0.572035
O4    O     O_R   0.499850 0.379760 0.316900 -0.566602
O5    O     O_R   0.682190 0.620260 0.500030 -0.601895
O6    O     O_R   0.682190 0.379740 0.500030 -0.602992
O7    O     O_R   0.499910 0.620280 0.683200 -0.591862
O8    O     O_R   0.499910 0.379720 0.683200 -0.595979
C27   C     C_2   0.327223 0.143134 0.342365 0.455134
H29   H     H_    0.248123 0.126086 0.402309 0.003880
O9    O     O_2   0.311233 0.202132 0.241187 -0.591181
C28   C     C_2   0.330127 0.853310 0.338635 0.448178
H30   H     H_    0.249953 0.862445 0.398635 0.012985
O10   O     O_2   0.316696 0.798964 0.235125 -0.583806

loop_
_geom_bond_atom_site_label_1
_geom_bond_atom_site_label_2
_ccdc_geom_bond_type
C7    C10   S    
C22   H1    S    
C1    C8    S    
Cu2   O8    S    
C7    H27   S    
C4    C8    S    
C11   N1    S    
C6    C9    S    
C3    H21   S    
C7    C8    S    
Cu2   N1    S    
C5    H25   S    
C24   C26   S    
C1    O1    A    
C18   O5    A    
C13   N1    S    
C15   C16   S    
C19   O8    A    
C13   H12   S    
Cu1   O3    S    
C17   O3    A    
C21   H15   S    
C10   H3    S    
C20   C24   S    
C23   C24   S    
C28   H30   S    
C9    C10   S    
C12   N2    S    
C13   C14   S    
C2    C17   S    
C15   N1    S    
C7    H28   S    
C6    H26   S    
Cu2   O2    S    
C14   N2    S    
C2    C20   S    
C27   H29   S    
C16   C28   S    
C13   H8    S    
C4    C6    S    
C3    C8    S    
C1    O2    A    
C25   C26   S    
C4    H22   S    
C27   O9    D    
C19   C23   S    
C15   H10   S    
C5    C9    S    
Cu1   O7    S    
C17   O4    A    
C10   H2    S    
C15   C27   S    
C2    C21   S    
C2    C26   S    
C16   N2    S    
C12   H7    S    
Cu1   O5    S    
C14   H13   S    
Cu2   O6    S    
C20   C22   S    
C11   H4    S    
C24   H16   S    
C25   H17   S    
C4    H20   S    
C21   C25   S    
C11   H6    S    
C3    C5    S    
Cu1   N2    S    
C20   H14   S    
C11   C12   S    
Cu1   O1    S    
C14   H9    S    
C18   O6    A    
C3    H19   S    
C19   O7    A    
C23   C25   S    
C26   H18   S    
C16   H11   S    
C9    C18   S    
Cu1   Cu2   S    
C22   C23   S    
C5    H23   S    
C28   O10   D    
C6    H24   S    
C12   H5    S    
C21   C22   S    
Cu2   O4    S    
