data_mof_unit_12756.cif
_audit_creation_date              2012-12-10T17:55:06-0500
_audit_creation_method            fapswitch 2.2
_symmetry_space_group_name_H-M    P1
_symmetry_Int_Tables_number       1
_space_group_crystal_system       triclinic
_cell_length_a                    8.717605
_cell_length_b                    10.764244
_cell_length_c                    9.624486
_cell_angle_alpha                 88.397218
_cell_angle_beta                  97.512354
_cell_angle_gamma                 91.994785
_cell_volume                      894.602034496

loop_
_atom_site_label
_atom_site_type_symbol
_atom_type_description
_atom_site_fract_x
_atom_site_fract_y
_atom_site_fract_z
_atom_type_partial_charge
C1    C     C_R   0.502474 0.262716 0.501666 0.786346
C2    C     C_R   0.496330 0.737234 0.498364 0.790977
C3    C     C_R   0.204232 0.500417 0.464106 0.855051
C4    C     C_R   0.795769 0.500892 0.535781 0.867695
C5    C     C_2   0.038352 0.500302 0.444369 -0.368619
C6    C     C_2   0.961619 0.502763 0.555247 -0.371970
C7    C     C_R   0.401080 0.067350 0.401580 -0.217717
C8    C     C_R   0.594557 0.932558 0.600145 -0.226869
C9    C     C_R   0.391971 0.938698 0.399052 0.407172
C10   C     C_R   0.602726 0.061106 0.603464 0.398618
C11   C     C_R   0.493133 0.871134 0.497597 -0.206451
C12   C     C_R   0.503502 0.128763 0.503386 -0.203819
C13   C     C_R   0.417878 0.412543 0.070505 -0.066218
C14   C     C_R   0.577165 0.590720 0.929733 -0.055442
C15   C     C_R   0.425658 0.404966 0.924614 0.198449
C16   C     C_R   0.582361 0.590042 0.077961 0.202403
Cu1   Cu    Cu3+1 0.500000 0.500020 0.640660 0.935521
Cu2   Cu    Cu3+1 0.500000 0.499980 0.359340 0.932068
H1    H     H_    0.979085 0.497593 0.337766 0.178467
H2    H     H_    0.020824 0.506474 0.661698 0.173397
H3    H     H_    0.323703 0.119846 0.326169 0.170169
H4    H     H_    0.671872 0.880171 0.675736 0.172690
H5    H     H_    0.354291 0.342725 0.125017 0.137978
H6    H     H_    0.641307 0.661478 0.877153 0.136220
N1    N     N_R   0.500040 0.500030 0.852080 -0.177786
N2    N     N_R   0.499960 0.499970 0.147920 -0.183192
O1    O     O_R   0.499990 0.319660 0.618740 -0.592623
O2    O     O_R   0.500010 0.680340 0.381260 -0.587954
O3    O     O_R   0.499990 0.319630 0.381170 -0.581762
O4    O     O_R   0.500010 0.680370 0.618830 -0.581936
O5    O     O_R   0.274840 0.500010 0.591370 -0.581920
O6    O     O_R   0.725160 0.499990 0.408630 -0.593039
O7    O     O_R   0.274830 0.499980 0.353800 -0.584444
O8    O     O_R   0.725170 0.500020 0.646200 -0.586402
O9    O     O_3   0.280343 0.884243 0.302476 -0.747114
H7    H     H_    0.260840 0.796821 0.331259 0.326488
O10   O     O_3   0.711468 0.115429 0.702652 -0.748407
H8    H     H_    0.734543 0.201979 0.672869 0.324547
C17   C     C_3   0.372097 0.277203 0.867597 -0.356767
C18   C     C_3   0.214275 0.273184 0.775334 -0.330145
C19   C     C_3   0.138299 0.143043 0.774636 -0.832581
H9    H     H_    0.216900 0.074181 0.740418 0.258255
H10   H     H_    0.109891 0.116029 0.880785 0.267002
H11   H     H_    0.029587 0.141985 0.700360 0.267338
H12   H     H_    0.135412 0.339481 0.813783 0.212670
H13   H     H_    0.228233 0.296536 0.665591 0.254478
H14   H     H_    0.464213 0.230821 0.822777 0.236380
H15   H     H_    0.360080 0.211653 0.957399 0.162682
C20   C     C_3   0.687522 0.689705 0.151159 -0.399071
C21   C     C_3   0.620794 0.819573 0.122251 -0.358230
C22   C     C_3   0.723385 0.919014 0.201724 -0.781898
H16   H     H_    0.735975 0.898382 0.316243 0.250187
H17   H     H_    0.839815 0.923227 0.166400 0.262395
H18   H     H_    0.670280 0.011137 0.181346 0.247523
H19   H     H_    0.611120 0.843373 0.008404 0.212892
H20   H     H_    0.503007 0.820812 0.153894 0.271766
H21   H     H_    0.713625 0.672781 0.264074 0.258105
H22   H     H_    0.801856 0.688237 0.111707 0.166443

loop_
_geom_bond_atom_site_label_1
_geom_bond_atom_site_label_2
_ccdc_geom_bond_type
C8    H4    S    
O10   H8    S    
C5    H1    S    
C9    C11   A    
C19   H9    S    
O9    H7    S    
Cu2   N2    S    
C13   C15   A    
C2    O4    A    
C22   H18   S    
Cu1   N1    S    
C1    O3    A    
C21   C22   S    
C20   H21   S    
Cu2   O3    S    
C3    O5    A    
Cu1   O4    S    
C19   H10   S    
C15   C17   S    
C4    O6    A    
C1    C12   S    
C10   C12   A    
C6    H2    S    
C8    C11   A    
C13   N2    A    
C2    C11   S    
C4    C6    S    
C18   C19   S    
Cu2   O7    S    
Cu1   Cu2   S    
C4    O8    A    
C10   O10   S    
C14   N1    A    
C16   N2    A    
C5    C6    D    
Cu1   O5    S    
C19   H11   S    
C14   C16   A    
C7    C12   A    
C15   N1    A    
Cu2   O6    S    
Cu1   O8    S    
C18   H13   S    
C9    O9    S    
C22   H16   S    
Cu1   O1    S    
C7    C9    A    
Cu2   O2    S    
C16   C20   S    
C13   H5    S    
C8    C10   A    
C20   C21   S    
C14   H6    S    
C17   C18   S    
C1    O1    A    
C3    O7    A    
C2    O2    A    
C18   H12   S    
C3    C5    S    
C7    H3    S    
C17   H14   S    
C21   H20   S    
C20   H22   S    
C21   H19   S    
C17   H15   S    
C22   H17   S    
