data_mof_unit_18429.cif
_audit_creation_date              2012-12-10T21:11:32-0500
_audit_creation_method            fapswitch 2.2
_symmetry_space_group_name_H-M    P1
_symmetry_Int_Tables_number       1
_space_group_crystal_system       triclinic
_cell_length_a                    17.540293
_cell_length_b                    16.666312
_cell_length_c                    10.654676
_cell_angle_alpha                 91.820792
_cell_angle_beta                  90.162327
_cell_angle_gamma                 89.857665
_cell_volume                      3113.10864708

loop_
_atom_site_label
_atom_site_type_symbol
_atom_type_description
_atom_site_fract_x
_atom_site_fract_y
_atom_site_fract_z
_atom_type_partial_charge
C1    C     C_R   0.352982 0.500031 0.498764 0.867074
C2    C     C_R   0.448064 0.166712 0.423623 -0.281719
C3    C     C_R   0.436890 0.746885 0.458975 0.000340
C4    C     C_R   0.548748 0.252946 0.576392 0.008775
C5    C     C_R   0.562517 0.749456 0.540090 -0.009682
C6    C     C_R   0.449910 0.251117 0.424740 -0.035010
C7    C     C_R   0.498553 0.875734 0.498814 0.170202
C8    C     C_R   0.498233 0.124493 0.500338 0.174617
C9    C     C_1   0.497959 0.963520 0.498590 -0.067242
C10   C     C_1   0.497933 0.036721 0.499271 -0.070732
C11   C     C_R   0.511997 0.498313 0.260295 0.901580
C12   C     C_R   0.647011 0.499899 0.498597 0.864109
C13   C     C_R   0.490193 0.501532 0.740863 0.897568
C14   C     C_R   0.574889 0.632192 0.119846 -0.209193
C15   C     C_R   0.435908 0.363752 0.881763 -0.180225
C16   C     C_R   0.491218 0.653731 0.902795 -0.217534
C17   C     C_R   0.518266 0.345618 0.101239 -0.206539
C18   C     C_R   0.572596 0.708871 0.069048 0.135860
C19   C     C_R   0.442099 0.286454 0.931076 0.128590
C20   C     C_R   0.522926 0.721559 0.965881 0.123057
C21   C     C_R   0.487923 0.277164 0.039404 0.098081
C22   C     C_R   0.502795 0.575187 0.945781 0.060758
C23   C     C_R   0.885882 0.498343 0.452284 0.169838
C24   C     C_R   0.505929 0.423357 0.056226 0.060540
C25   C     C_R   0.534624 0.567156 0.064343 0.055934
C26   C     C_R   0.473806 0.430658 0.937667 0.043907
C27   C     C_R   0.480936 0.504590 0.877036 -0.223086
C28   C     C_R   0.525612 0.494196 0.125253 -0.222436
C29   C     C_R   0.846883 0.571344 0.455238 -0.168140
C30   C     C_R   0.152508 0.426112 0.467378 -0.166978
C31   C     C_R   0.152405 0.571623 0.458494 -0.167700
C32   C     C_R   0.847686 0.425932 0.466147 -0.168177
C33   C     C_R   0.768556 0.572053 0.472210 -0.215508
C34   C     C_R   0.113850 0.498551 0.454301 0.169214
C35   C     C_R   0.230902 0.426596 0.484129 -0.212687
C36   C     C_R   0.230810 0.572352 0.475260 -0.206209
C37   C     C_R   0.769355 0.426397 0.483100 -0.207143
C38   C     C_R   0.729452 0.499527 0.486457 -0.034015
C39   C     C_R   0.270433 0.499778 0.487919 -0.033225
C40   C     C_3   0.504671 0.195875 0.093595 -0.450324
C41   C     C_3   0.574117 0.155841 0.030593 -0.336159
C42   C     C_3   0.593440 0.076518 0.091425 -0.882552
C43   C     C_3   0.493632 0.803903 0.930418 -0.412301
C44   C     C_3   0.552962 0.858015 0.870079 -0.350879
C45   C     C_1   0.966040 0.498226 0.445324 -0.075227
C46   C     C_3   0.515243 0.933271 0.819805 -0.880119
C47   C     C_3   0.401731 0.213968 0.870277 -0.433616
C48   C     C_3   0.353888 0.230225 0.752609 -0.349505
C49   C     C_3   0.318343 0.153020 0.698645 -0.874487
C50   C     C_3   0.628115 0.771099 0.122007 -0.430545
C51   C     C_3   0.590467 0.837260 0.203632 -0.328181
C52   C     C_3   0.650485 0.890423 0.268452 -0.894080
C53   C     C_1   0.033712 0.498294 0.445995 -0.075157
C54   C     C_R   0.434848 0.831275 0.458332 -0.305637
C55   C     C_R   0.548735 0.168550 0.578001 -0.280790
C56   C     C_R   0.563074 0.833867 0.539430 -0.270241
H1    H     H_    0.609405 0.622554 0.202637 0.146799
H2    H     H_    0.260425 0.369924 0.493636 0.151837
H3    H     H_    0.260273 0.629416 0.477604 0.145342
H4    H     H_    0.740191 0.369785 0.493468 0.152859
H5    H     H_    0.384110 0.861457 0.425724 0.141333
H6    H     H_    0.587857 0.138015 0.639300 0.131006
H7    H     H_    0.613475 0.866210 0.570799 0.139755
H8    H     H_    0.408111 0.134754 0.362731 0.138785
H9    H     H_    0.387761 0.713199 0.426214 0.130249
H10   H     H_    0.587672 0.286672 0.636598 0.131509
H11   H     H_    0.612298 0.717879 0.572780 0.125415
H12   H     H_    0.401014 0.373116 0.799899 0.146642
H13   H     H_    0.411329 0.283396 0.364984 0.138150
H14   H     H_    0.609880 0.087301 0.191310 0.266109
H15   H     H_    0.543725 0.035419 0.086923 0.261805
H16   H     H_    0.641899 0.047139 0.041157 0.247845
H17   H     H_    0.562951 0.144119 0.929083 0.213898
H18   H     H_    0.624202 0.196398 0.039746 0.222971
H19   H     H_    0.516969 0.203472 0.195496 0.216041
H20   H     H_    0.454318 0.155843 0.086004 0.192113
H21   H     H_    0.469494 0.916889 0.751710 0.273059
H22   H     H_    0.489722 0.969730 0.898005 0.255805
H23   H     H_    0.453142 0.663150 0.824584 0.164382
H24   H     H_    0.558455 0.970237 0.772419 0.249753
H25   H     H_    0.596340 0.878886 0.938708 0.223670
H26   H     H_    0.582195 0.824260 0.792845 0.225984
H27   H     H_    0.445613 0.796367 0.862642 0.198551
H28   H     H_    0.467697 0.834460 0.013786 0.185129
H29   H     H_    0.363393 0.108448 0.673480 0.270506
H30   H     H_    0.279180 0.126898 0.768088 0.255913
H31   H     H_    0.285386 0.166378 0.612622 0.245364
H32   H     H_    0.307314 0.273339 0.776678 0.215326
H33   H     H_    0.390500 0.255946 0.679388 0.243863
H34   H     H_    0.554363 0.337199 0.182331 0.167243
H35   H     H_    0.445152 0.167946 0.844032 0.212353
H36   H     H_    0.363112 0.188337 0.941069 0.195742
H37   H     H_    0.685469 0.854874 0.333767 0.256824
H38   H     H_    0.688230 0.917291 0.197622 0.259652
H39   H     H_    0.622160 0.939868 0.322821 0.260387
H40   H     H_    0.553988 0.876517 0.147288 0.221210
H41   H     H_    0.554510 0.809096 0.275136 0.246252
H42   H     H_    0.671178 0.740966 0.181414 0.196731
H43   H     H_    0.662095 0.796227 0.045243 0.186338
H44   H     H_    0.877076 0.627494 0.445877 0.128930
H45   H     H_    0.122023 0.369593 0.465714 0.130214
H46   H     H_    0.121834 0.627789 0.449889 0.129271
H47   H     H_    0.878518 0.369473 0.465314 0.130327
H48   H     H_    0.738761 0.629088 0.473733 0.146017
N1    N     N_R   0.500000 0.707230 0.500000 -0.086284
N2    N     N_R   0.500000 0.292770 0.500000 -0.094858
O1    O     O_R   0.389110 0.566570 0.499990 -0.632104
O2    O     O_R   0.610890 0.433430 0.500010 -0.626492
O3    O     O_R   0.610890 0.566570 0.500010 -0.635403
O4    O     O_R   0.389110 0.433430 0.499990 -0.631936
O5    O     O_R   0.499990 0.566540 0.316770 -0.606088
O6    O     O_R   0.500010 0.433460 0.683230 -0.617500
O7    O     O_R   0.500010 0.566540 0.683230 -0.615739
O8    O     O_R   0.499990 0.433460 0.316770 -0.623841
Zn1   Zn    Zn3+2 0.500000 0.588860 0.500000 0.933494
Zn2   Zn    Zn3+2 0.500000 0.411140 0.500000 0.924426

loop_
_geom_bond_atom_site_label_1
_geom_bond_atom_site_label_2
_ccdc_geom_bond_type
C51   H41   S    
C6    H13   S    
C46   H24   S    
C23   C45   S    
C33   H48   S    
C43   H27   S    
C47   H36   S    
C49   H31   S    
C5    C56   A    
C5    H11   S    
C36   H3    S    
C5    N1    A    
C3    N1    A    
C25   C28   A    
C15   C19   A    
C50   H43   S    
C30   C35   A    
C35   H2    S    
C23   C29   A    
C19   C21   A    
C24   C26   A    
C13   O6    A    
C44   H26   S    
C3    C54   A    
C19   C47   S    
C55   H6    S    
C29   C33   A    
C42   H14   S    
C52   H39   S    
C41   C42   S    
C11   O8    A    
C14   C18   A    
C41   H18   S    
C2    H8    S    
C22   C25   A    
C48   H32   S    
C52   H38   S    
C9    C10   T    
C51   H40   S    
C45   C53   T    
C43   H28   S    
C2    C6    A    
C7    C56   A    
C8    C55   A    
C12   O3    A    
C44   C46   S    
C3    H9    S    
C32   H47   S    
C17   C24   A    
C50   H42   S    
C30   C34   A    
C11   O5    A    
C51   C52   S    
C31   H46   S    
C49   H29   S    
C44   H25   S    
C12   O2    A    
C1    C39   S    
C15   C26   A    
C4    N2    A    
C17   C21   A    
C40   H20   S    
N2    Zn2   S    
C35   C39   A    
C43   C44   S    
C37   C38   A    
C1    O4    A    
C47   C48   S    
C16   C20   A    
C42   H16   S    
C50   C51   S    
C6    N2    A    
C56   H7    S    
C52   H37   S    
C32   C37   A    
O1    Zn1   S    
C1    O1    A    
C40   C41   S    
C22   C27   A    
C4    C55   A    
C26   C27   A    
O4    Zn2   S    
O6    Zn2   S    
C20   C43   S    
C31   C34   A    
C18   C50   S    
C46   H22   S    
C7    C9    S    
C14   H1    S    
C48   C49   S    
C16   C22   A    
C29   H44   S    
C47   H35   S    
C49   H30   S    
N1    Zn1   S    
C36   C39   A    
C2    C8    A    
C17   H34   S    
C24   C28   A    
C46   H21   S    
O8    Zn2   S    
C54   H5    S    
C33   C38   A    
C40   H19   S    
C48   H33   S    
C16   H23   S    
C23   C32   A    
O2    Zn2   S    
C4    H10   S    
C21   C40   S    
C11   C28   S    
C15   H12   S    
C30   H45   S    
C42   H15   S    
C18   C20   A    
C14   C25   A    
C12   C38   S    
C37   H4    S    
O3    Zn1   S    
C41   H17   S    
C34   C53   S    
C8    C10   S    
C31   C36   A    
C13   C27   S    
O5    Zn1   S    
C7    C54   A    
C13   O7    A    
O7    Zn1   S    
