data_mof_unit_9193.cif
_audit_creation_date              2012-12-10T18:13:35-0500
_audit_creation_method            fapswitch 2.2
_symmetry_space_group_name_H-M    P1
_symmetry_Int_Tables_number       1
_space_group_crystal_system       triclinic
_cell_length_a                    12.583655
_cell_length_b                    13.181451
_cell_length_c                    16.680976
_cell_angle_alpha                 90.555299
_cell_angle_beta                  97.561505
_cell_angle_gamma                 96.891234
_cell_volume                      2722.09918438

loop_
_atom_site_label
_atom_site_type_symbol
_atom_type_description
_atom_site_fract_x
_atom_site_fract_y
_atom_site_fract_z
_atom_type_partial_charge
C1    C     C_R   0.558732 0.690853 0.515348 0.846945
C2    C     C_R   0.493850 0.545651 0.734878 -0.132096
C3    C     C_R   0.284728 0.067232 0.554778 -0.278023
C4    C     C_R   0.514700 0.500049 0.349090 0.852728
C5    C     C_R   0.405105 0.200298 0.503633 -0.164141
C6    C     C_R   0.702586 0.837114 0.531390 -0.191239
C7    C     C_R   0.735375 0.941579 0.537036 -0.162487
C8    C     C_R   0.659224 0.009045 0.540234 -0.184130
C9    C     C_R   0.549351 0.972130 0.543063 0.104579
C10   C     C_R   0.520438 0.866703 0.551843 0.025940
C11   C     C_R   0.467212 0.036608 0.537096 0.003365
C12   C     C_R   0.633603 0.521234 0.241737 -0.195549
C13   C     C_R   0.363971 0.000815 0.557875 0.000632
C14   C     C_R   0.341037 0.898912 0.579674 0.459256
C15   C     C_R   0.419066 0.832620 0.576713 -0.317922
C16   C     C_R   0.440214 0.308482 0.492894 0.898125
C17   C     C_R   0.484283 0.134660 0.507268 -0.282811
C18   C     C_R   0.302012 0.164533 0.523120 0.473571
C19   C     C_R   0.594357 0.799062 0.535077 -0.083874
C20   C     C_R   0.901502 0.349826 0.613425 -0.434790
C21   C     C_R   0.207180 0.617707 0.396991 -0.010832
C22   C     C_R   0.101963 0.632418 0.367463 -0.267689
C23   C     C_R   0.606271 0.621708 0.854471 -0.160972
C24   C     C_R   0.017083 0.584066 0.404089 -0.194270
C25   C     C_R   0.037734 0.521630 0.471295 0.034116
C26   C     C_R   0.145673 0.504028 0.495560 0.139447
C27   C     C_R   0.955730 0.473484 0.513545 -0.004696
C28   C     C_R   0.488398 0.508716 0.651152 0.881817
C29   C     C_R   0.981684 0.401440 0.573469 0.086875
C30   C     C_R   0.087573 0.381153 0.592840 -0.218407
C31   C     C_R   0.168387 0.432782 0.554990 -0.092915
C32   C     C_R   0.848774 0.494914 0.499760 -0.168239
C33   C     C_R   0.795870 0.374181 0.597237 0.644769
C34   C     C_R   0.596359 0.576803 0.778117 -0.298591
C35   C     C_R   0.530009 0.518382 0.265056 -0.033530
C36   C     C_R   0.444229 0.543946 0.209778 -0.215732
C37   C     C_R   0.462174 0.574156 0.132791 -0.147802
C38   C     C_R   0.566617 0.580164 0.110394 0.203189
C39   C     C_R   0.651537 0.551739 0.164773 -0.183091
C40   C     C_3   0.137329 0.193420 0.456278 0.056541
C41   C     C_3   0.156119 0.248412 0.377980 -0.308458
C42   C     C_3   0.061344 0.220661 0.311464 -0.973259
C43   C     C_3   0.169766 0.821379 0.534102 0.087668
C44   C     C_3   0.061339 0.864347 0.531815 -0.347872
C45   C     C_R   0.400340 0.565003 0.768044 0.476416
C46   C     C_3   0.975899 0.811464 0.466809 -0.980587
C47   C     C_3   0.731811 0.307981 0.713895 0.059413
C48   C     C_3   0.730811 0.194026 0.730966 -0.348135
C49   C     C_3   0.750514 0.175668 0.821555 -0.949533
C50   C     C_3   0.239752 0.616475 0.709069 0.108453
C51   C     C_3   0.130437 0.596852 0.740505 -0.349869
C52   C     C_3   0.053360 0.670892 0.705223 -0.942287
C53   C     C_R   0.411419 0.607057 0.846525 -0.273130
C54   C     C_R   0.513824 0.633262 0.890203 0.145433
C55   C     C_2   0.586510 0.602721 0.027630 -0.232175
C56   C     C_2   0.521180 0.653410 0.977102 -0.211905
H1    H     H_    0.559436 0.161385 0.485386 0.181358
H2    H     H_    0.458050 0.691169 0.998878 0.145315
H3    H     H_    0.731860 0.553352 0.147653 0.125985
H4    H     H_    0.701462 0.502156 0.283364 0.154365
H5    H     H_    0.648901 0.564447 0.005090 0.150782
H6    H     H_    0.393495 0.590142 0.090803 0.122995
H7    H     H_    0.363509 0.541735 0.226176 0.154174
H8    H     H_    0.339814 0.613864 0.874889 0.135476
H9    H     H_    0.060498 0.212994 0.474805 0.174402
H10   H     H_    0.125847 0.108987 0.445009 0.115491
H11   H     H_    0.166511 0.332400 0.389361 0.247598
H12   H     H_    0.819288 0.970698 0.535771 0.141559
H13   H     H_    0.230946 0.226959 0.357170 0.206506
H14   H     H_    0.049997 0.137037 0.298088 0.264454
H15   H     H_    0.077661 0.261308 0.255546 0.267185
H16   H     H_    0.986065 0.243814 0.330275 0.267466
H17   H     H_    0.156348 0.737248 0.540272 0.167756
H18   H     H_    0.200283 0.836556 0.474801 0.125666
H19   H     H_    0.031807 0.856049 0.591607 0.235747
H20   H     H_    0.071417 0.946518 0.517861 0.197905
H21   H     H_    0.008645 0.806550 0.408501 0.271663
H22   H     H_    0.906682 0.856478 0.456646 0.256697
H23   H     H_    0.669656 0.567599 0.752721 0.177236
H24   H     H_    0.946577 0.734244 0.486580 0.269192
H25   H     H_    0.209321 0.045077 0.577566 0.179020
H26   H     H_    0.761477 0.785914 0.523028 0.163989
H27   H     H_    0.688647 0.089595 0.543223 0.146229
H28   H     H_    0.399743 0.755201 0.595786 0.180776
H29   H     H_    0.665568 0.336657 0.742130 0.176403
H30   H     H_    0.808054 0.352546 0.743591 0.110440
H31   H     H_    0.651187 0.152543 0.705343 0.240514
H32   H     H_    0.794157 0.162541 0.701212 0.213291
H33   H     H_    0.830790 0.214669 0.848101 0.261575
H34   H     H_    0.921129 0.291201 0.655981 0.152047
H35   H     H_    0.748677 0.092406 0.831820 0.269120
H36   H     H_    0.686747 0.204789 0.852370 0.265652
H37   H     H_    0.108406 0.325811 0.638118 0.178051
H38   H     H_    0.226515 0.622373 0.642319 0.173971
H39   H     H_    0.281615 0.692295 0.733260 0.132918
H40   H     H_    0.092920 0.517521 0.724247 0.243873
H41   H     H_    0.142780 0.605337 0.807531 0.203763
H42   H     H_    0.089475 0.751124 0.719618 0.280851
H43   H     H_    0.976462 0.656835 0.731487 0.256656
H44   H     H_    0.035093 0.659183 0.638571 0.267422
H45   H     H_    0.822509 0.551155 0.457606 0.144879
H46   H     H_    0.686250 0.643598 0.886938 0.140454
H47   H     H_    0.273566 0.654018 0.368303 0.141787
H48   H     H_    0.936505 0.595951 0.378216 0.139729
H49   H     H_    0.086176 0.680724 0.316228 0.145609
H50   H     H_    0.247672 0.412925 0.571797 0.251624
N1    N     N_R   0.774070 0.445420 0.541180 -0.130616
N2    N     N_R   0.226730 0.554050 0.459240 -0.141514
O1    O     O_R   0.631480 0.627510 0.519670 -0.622084
O2    O     O_3   0.241486 0.863225 0.602421 -0.665857
O3    O     O_3   0.709968 0.320961 0.629438 -0.620153
O4    O     O_3   0.298533 0.532461 0.727507 -0.653445
O5    O     O_R   0.455770 0.662400 0.493360 -0.626551
O6    O     O_R   0.598240 0.480510 0.398910 -0.621298
O7    O     O_R   0.422540 0.515400 0.372600 -0.623406
O8    O     O_R   0.544230 0.337600 0.506640 -0.567829
O9    O     O_R   0.368520 0.372490 0.480330 -0.605441
O10   O     O_R   0.577460 0.484600 0.627400 -0.596039
O11   O     O_R   0.401760 0.519490 0.601090 -0.621781
O12   O     O_3   0.221478 0.227526 0.519214 -0.658678
Zn1   Zn    Zn3+2 0.617320 0.476700 0.517570 0.966150
Zn2   Zn    Zn3+2 0.382680 0.523300 0.482430 0.922684

loop_
_geom_bond_atom_site_label_1
_geom_bond_atom_site_label_2
_ccdc_geom_bond_type
C51   H41   S    
C55   C56   D    
C43   H17   S    
C6    H26   S    
C27   C29   A    
C8    H27   S    
C41   C42   S    
C4    O7    A    
C35   C36   A    
C33   N1    A    
C43   C44   S    
C37   H6    S    
C45   O4    S    
C7    C8    A    
C41   H11   S    
C53   C54   A    
C6    C19   A    
C29   C30   A    
C47   H29   S    
C4    O6    A    
C36   C37   A    
C30   H37   S    
C10   C15   A    
C30   C31   A    
C53   H8    S    
C47   O3    S    
C50   H39   S    
C23   H46   S    
C5    C17   A    
C42   H14   S    
C3    C18   A    
C44   H20   S    
C5    C16   S    
C1    O1    A    
C7    H12   S    
O6    Zn1   S    
C38   C55   S    
C8    C9    A    
C32   N1    A    
C3    H25   S    
C48   H32   S    
C33   O3    S    
C43   O2    S    
C36   H7    S    
C9    C10   A    
C3    C13   A    
C51   H40   S    
C2    C34   A    
C43   H18   S    
C4    C35   S    
C45   C53   A    
C26   C31   A    
O7    Zn2   S    
C40   H10   S    
C21   C22   A    
N2    Zn2   S    
C1    O5    A    
C49   H35   S    
C16   O8    A    
C42   H16   S    
C44   C46   S    
C20   C29   A    
C2    C45   A    
C54   C56   S    
C1    C19   S    
O8    Zn1   S    
O5    Zn2   S    
C51   C52   S    
C47   H30   S    
C24   C25   A    
C26   N2    A    
C46   H22   S    
C50   H38   S    
C5    C18   A    
C25   C26   A    
C20   H34   S    
C52   H44   S    
C24   H48   S    
O10   Zn1   S    
C12   H4    S    
C44   H19   S    
O9    Zn2   S    
C37   C38   A    
C34   H23   S    
C47   C48   S    
C10   C19   A    
C23   C34   A    
C39   H3    S    
C50   O4    S    
C50   C51   S    
C48   H31   S    
C12   C35   A    
C9    C11   A    
C15   H28   S    
C20   C33   A    
C40   C41   S    
C40   O12   S    
C40   H9    S    
C31   H50   S    
C22   C24   A    
N1    Zn1   S    
C49   H36   S    
C18   O12   S    
C23   C54   A    
C41   H13   S    
O11   Zn2   S    
C14   O2    S    
C11   C17   A    
C27   C32   A    
C14   C15   A    
C49   H33   S    
C28   O11   A    
C46   H21   S    
C6    C7    A    
C25   C27   A    
C22   H49   S    
C52   H43   S    
C12   C39   A    
C28   O10   A    
C16   O9    A    
C46   H24   S    
C11   C13   A    
O1    Zn1   S    
C38   C39   A    
C48   C49   S    
C55   H5    S    
C52   H42   S    
C42   H15   S    
C56   H2    S    
C21   N2    A    
C21   H47   S    
C32   H45   S    
C2    C28   S    
C13   C14   A    
C17   H1    S    
