data_mof_unit_28368.cif
_audit_creation_date              2012-10-26T21:13:41-0400
_audit_creation_method            fapswitch 2.2
_symmetry_space_group_name_H-M    P1
_symmetry_Int_Tables_number       1
_space_group_crystal_system       triclinic
_cell_length_a                    9.056727
_cell_length_b                    10.954067
_cell_length_c                    9.591604
_cell_angle_alpha                 89.820312
_cell_angle_beta                  90.32069
_cell_angle_gamma                 91.253217
_cell_volume                      951.316958213

loop_
_atom_site_label
_atom_site_type_symbol
_atom_type_description
_atom_site_fract_x
_atom_site_fract_y
_atom_site_fract_z
_atom_type_partial_charge
C1    C     C_R   0.497688 0.262671 0.500088 0.573262
C2    C     C_R   0.624084 0.533793 0.926892 0.166469
C3    C     C_3   0.701019 0.653276 0.915048 -0.238937
C4    C     C_R   0.220847 0.499520 0.499794 0.559554
C5    C     C_3   0.693801 0.663002 0.072635 0.123152
C6    C     C_R   0.502302 0.737271 0.499337 0.563103
C7    C     C_R   0.779100 0.499006 0.500360 0.592241
C8    C     C_1   0.065596 0.498744 0.499920 0.013551
C9    C     C_1   0.934344 0.498437 0.500737 0.035956
C10   C     C_R   0.496378 0.060518 0.620443 0.044152
C11   C     C_R   0.494380 0.129830 0.498616 0.015021
C12   C     C_R   0.495963 0.936283 0.369988 -0.104151
C13   C     C_R   0.493466 0.064928 0.371130 -0.121510
C14   C     C_1   0.265354 0.384086 0.137896 0.330086
C15   C     C_R   0.502859 0.869985 0.496384 0.024274
C16   C     C_R   0.505665 0.937367 0.618002 -0.065952
C17   C     C_3   0.522576 0.924350 0.770633 -0.226190
C18   C     C_3   0.502313 0.062936 0.776782 0.419123
C19   C     C_R   0.623050 0.537704 0.074223 0.210478
C20   C     C_R   0.385129 0.450002 0.072089 0.096291
C21   C     C_R   0.382721 0.456046 0.924491 0.065710
Cu1   Cu    Cu3+1 0.499990 0.499980 0.640670 1.059571
Cu2   Cu    Cu3+1 0.500010 0.500020 0.359330 1.065917
H1    H     H_    0.491718 0.112962 0.272430 0.205106
H2    H     H_    0.260935 0.101028 0.069631 0.375744
H3    H     H_    0.829086 0.063015 0.718267 0.350932
H4    H     H_    0.629470 0.717014 0.860618 0.105176
H5    H     H_    0.618718 0.735241 0.108718 0.118344
H6    H     H_    0.493478 0.889650 0.270619 0.161747
H7    H     H_    0.434225 0.866520 0.818538 0.173651
H8    H     H_    0.637311 0.898969 0.796036 0.127596
H9    H     H_    0.285850 0.424321 0.868321 0.179931
H10   H     H_    0.813214 0.644276 0.870325 0.187446
H11   H     H_    0.960643 0.744224 0.345776 0.358085
N1    N     N_R   0.500920 0.500930 0.147930 -0.287237
N2    N     N_R   0.500930 0.500890 0.852020 -0.247121
N3    N     N_1   0.168531 0.329955 0.188951 -0.215178
O1    O     O_R   0.500000 0.319640 0.618810 -0.426863
O2    O     O_2   0.971445 0.756749 0.067095 -0.254614
O3    O     O_3   0.857749 0.730445 0.312943 -0.523762
O4    O     O_2   0.271238 0.215126 0.784753 -0.267217
O5    O     O_2   0.217127 0.000702 0.833943 -0.281984
O6    O     O_3   0.354438 0.128072 0.024955 -0.517784
O7    O     O_2   0.623649 0.267425 0.891434 -0.203532
O8    O     O_2   0.714588 0.073266 0.976281 -0.249783
O9    O     O_3   0.798334 0.148450 0.731066 -0.490455
O10   O     O_R   0.500020 0.319680 0.381230 -0.513142
O11   O     O_R   0.288380 0.499980 0.618770 -0.508591
O12   O     O_R   0.288400 0.500020 0.381190 -0.498498
O13   O     O_R   0.499980 0.680320 0.618770 -0.526055
O14   O     O_R   0.500000 0.680360 0.381190 -0.505435
O15   O     O_R   0.711600 0.499980 0.618810 -0.498235
O16   O     O_R   0.711620 0.500020 0.381230 -0.434245
O17   O     O_2   0.940661 0.548561 0.158976 -0.268461
S1    S     S_3+6 0.873466 0.672693 0.151677 0.025641
S2    S     S_3+6 0.329193 0.102710 0.853649 0.059367
S3    S     S_3+6 0.661846 0.140645 0.849234 0.088253

loop_
_geom_bond_atom_site_label_1
_geom_bond_atom_site_label_2
_ccdc_geom_bond_type
C8    C9    T    
Cu1   O11   S    
C3    H10   S    
O4    S2    D    
Cu2   O16   S    
C5    C19   S    
C6    O14   A    
C5    H5    S    
Cu1   N2    S    
O7    S3    D    
C18   S3    S    
Cu2   O14   S    
C1    C11   S    
C12   C15   A    
C18   S2    S    
C4    O12   A    
Cu1   O13   S    
O3    S1    S    
H2    O6    S    
C3    H4    S    
C2    C3    S    
C2    C19   A    
C21   N2    A    
C10   C16   A    
C6    O13   A    
C14   N3    T    
C17   H7    S    
C11   C13   A    
O8    S3    D    
C20   C21   A    
C1    O1    A    
C10   C18   S    
H11   O3    S    
C7    O15   A    
C17   C18   S    
Cu2   N1    S    
O9    S3    S    
C17   H8    S    
C21   H9    S    
Cu2   O12   S    
Cu2   O10   S    
C10   C11   A    
H3    O9    S    
C15   C16   A    
Cu1   O1    S    
C14   C20   S    
O6    S2    S    
C12   C13   A    
Cu1   O15   S    
C4    O11   A    
C2    N2    A    
C4    C8    S    
C7    C9    S    
C7    O16   A    
Cu1   Cu2   S    
C1    O10   A    
C19   N1    A    
O5    S2    D    
C6    C15   S    
O17   S1    D    
C20   N1    A    
C5    S1    S    
O2    S1    D    
C13   H1    S    
C16   C17   S    
C3    C5    S    
C12   H6    S    
