data_mof_unit_53049.cif
_audit_creation_date              2013-03-05T16:06:41-0500
_audit_creation_method            fapswitch 2.2
_symmetry_space_group_name_H-M    P1
_symmetry_Int_Tables_number       1
_space_group_crystal_system       triclinic
_cell_length_a                    10.861571
_cell_length_b                    9.585671
_cell_length_c                    15.324741
_cell_angle_alpha                 91.963281
_cell_angle_beta                  92.182664
_cell_angle_gamma                 89.678078
_cell_volume                      1593.43386906

loop_
_atom_site_label
_atom_site_type_symbol
_atom_site_description
_atom_site_fract_x
_atom_site_fract_y
_atom_site_fract_z
_atom_type_partial_charge
O1    O     O_R   0.319640 0.618740 0.499990 -0.541379
O2    O     O_R   0.680360 0.381260 0.500010 -0.551565
O3    O     O_R   0.680360 0.618740 0.500010 -0.529672
O4    O     O_R   0.319640 0.381260 0.499990 -0.535738
N1    N     N_R   0.500000 0.852070 0.500000 -0.298288
N2    N     N_R   0.500000 0.147930 0.500000 -0.302565
C1    C     C_R   0.263285 0.500391 0.510888 0.885413
C2    C     C_R   0.737934 0.499016 0.492219 0.871278
O5    O     O_R   0.499990 0.618780 0.371460 -0.527072
O6    O     O_R   0.500010 0.381220 0.628540 -0.552324
O7    O     O_R   0.500010 0.618780 0.628540 -0.529486
O8    O     O_R   0.499990 0.381220 0.371460 -0.525415
C3    C     C_R   0.512905 0.497870 0.330586 0.827494
C4    C     C_R   0.495534 0.503237 0.670228 0.845583
Cu1   Cu    Cu3+1 0.500000 0.640660 0.500000 1.124833
Cu2   Cu    Cu3+1 0.500000 0.359340 0.500000 1.124972
C5    C     C_R   0.414540 0.071492 0.449489 0.331022
C6    C     C_R   0.587366 0.929349 0.548111 0.274466
C7    C     C_R   0.580584 0.077194 0.553199 0.282515
C8    C     C_R   0.415657 0.923047 0.449106 0.327664
C9    C     C_R   0.062895 0.373334 0.525667 -0.105569
C10   C     C_R   0.940740 0.623402 0.483741 -0.087718
C11   C     C_R   0.939950 0.370281 0.494516 -0.072828
C12   C     C_R   0.061875 0.626523 0.520086 -0.069009
C13   C     C_R   0.549310 0.620653 0.099759 -0.155465
C14   C     C_R   0.458375 0.394574 0.903888 -0.165565
C15   C     C_R   0.567202 0.612757 0.907015 -0.181861
C16   C     C_R   0.530380 0.371464 0.091417 -0.183674
H1    H     H_    0.555576 0.720593 0.069774 0.145964
H2    H     H_    0.413035 0.312651 0.937252 0.170300
H3    H     H_    0.616585 0.696344 0.941649 0.170622
H4    H     H_    0.531028 0.274184 0.053354 0.171532
C17   C     C_R   0.561519 0.619272 0.190584 -0.012664
C18   C     C_R   0.442547 0.398730 0.813167 0.007719
C19   C     C_R   0.540088 0.626830 0.818042 -0.059487
C20   C     C_R   0.529840 0.366813 0.182442 -0.023790
C21   C     C_R   0.535757 0.493989 0.234537 -0.170817
C22   C     C_R   0.490518 0.511355 0.767732 -0.143121
C23   C     C_R   0.533405 0.497617 0.048925 0.089295
C24   C     C_R   0.523305 0.499506 0.951784 0.083664
C25   C     C_R   0.874317 0.496887 0.484902 -0.175408
C26   C     C_R   0.128564 0.500131 0.524268 -0.193659
N3    N     N_R   0.315469 0.139075 0.401936 0.179742
O9    O     O_R   0.336863 0.202520 0.330902 -0.318877
O10   O     O_R   0.202310 0.102959 0.413970 -0.268849
N4    N     N_R   0.696646 0.865739 0.584685 0.167276
O11   O     O_R   0.691757 0.770505 0.642295 -0.326611
O12   O     O_R   0.803444 0.917672 0.569217 -0.259838
N5    N     N_R   0.646695 0.149744 0.623370 0.177219
O13   O     O_R   0.757066 0.195674 0.612795 -0.268860
O14   O     O_R   0.609698 0.138500 0.702508 -0.323906
N6    N     N_R   0.331956 0.848613 0.390107 0.186978
O15   O     O_R   0.223144 0.819954 0.416120 -0.297412
O16   O     O_R   0.345195 0.856870 0.306521 -0.303480
C27   C     C_2   0.626117 0.743226 0.230966 0.919083
O17   O     O_2   0.581452 0.814920 0.288917 -0.538243
O18   O     O_R   0.737188 0.783977 0.196336 -0.726981
H5    H     H_    0.771564 0.872695 0.225606 0.347904
C28   C     C_2   0.356024 0.297994 0.770574 0.911590
O19   O     O_2   0.277303 0.339915 0.718986 -0.604050
O20   O     O_R   0.358156 0.158233 0.793762 -0.727356
H6    H     H_    0.291798 0.100986 0.761186 0.337247
C29   C     C_2   0.546180 0.770577 0.786088 0.980033
O21   O     O_2   0.632000 0.846752 0.809844 -0.506505
O22   O     O_R   0.448233 0.823497 0.735375 -0.735379
H7    H     H_    0.461832 0.923299 0.718595 0.355794
C30   C     C_2   0.531122 0.224064 0.216532 0.951186
O23   O     O_2   0.601777 0.193299 0.276600 -0.566186
O24   O     O_R   0.457570 0.120813 0.174506 -0.717109
H8    H     H_    0.469736 0.026055 0.200896 0.374881
C31   C     C_2   0.103856 0.258926 0.583718 1.048586
O25   O     O_2   0.201946 0.198503 0.575167 -0.540728
O26   O     O_R   0.025955 0.218622 0.648874 -0.659823
H9    H     H_    0.061205 0.138985 0.683995 0.358501
C32   C     C_2   0.899236 0.734998 0.423028 0.981342
O27   O     O_2   0.803493 0.721686 0.379432 -0.600856
O28   O     O_R   0.974823 0.848416 0.408204 -0.619975
H10   H     H_    0.939000 0.911351 0.361734 0.350713
C33   C     C_2   0.892081 0.237389 0.453266 0.953518
O29   O     O_2   0.924996 0.124772 0.481183 -0.475064
O30   O     O_R   0.816810 0.240853 0.377579 -0.726618
H11   H     H_    0.799697 0.143534 0.352204 0.355508
C34   C     C_2   0.106149 0.750467 0.574410 0.987138
O31   O     O_2   0.053274 0.862943 0.570300 -0.464267
O32   O     O_R   0.203675 0.735733 0.635704 -0.740040
H12   H     H_    0.222022 0.825697 0.670324 0.352578

loop_
_geom_bond_atom_site_label_1
_geom_bond_atom_site_label_2
_geom_bond_distance
_ccdc_geom_bond_type
C17   C27   1.487602 S    
C27   O17   1.218026 D    
C29   O22   1.396808 S    
C12   C26   1.410164 A    
O26   H9    1.013991 S    
N3    O9    1.294251 A    
O30   H11   1.013705 S    
C20   C30   1.481114 S    
N1    C8    1.373081 A    
O28   H10   1.013985 S    
N2    C7    1.366513 A    
C9    C31   1.491053 S    
C20   C21   1.434533 A    
C12   C34   1.498009 S    
O7    C4    1.299481 A    
C10   C25   1.415562 A    
Cu1   Cu2   2.696641 S    
C5    C8    1.422739 A    
C6    C7    1.418322 A    
C1    C26   1.485319 S    
O5    C3    1.307844 A    
O7    Cu1   1.988104 S    
C14   C18   1.396256 A    
O8    Cu2   1.988104 S    
N5    O14   1.300195 A    
O1    Cu1   1.971396 S    
O2    Cu2   1.971395 S    
C3    C21   1.501177 S    
C28   O19   1.218186 D    
C18   C22   1.416779 A    
O20   H6    1.013947 S    
C10   C32   1.497994 S    
O4    C1    1.301335 A    
C6    N4    1.435067 S    
N6    O16   1.299542 A    
C13   H1    1.080192 S    
N4    O12   1.298115 A    
C28   O20   1.397582 S    
C15   H3    1.079527 S    
C30   O23   1.218824 D    
C16   H4    1.082972 S    
C19   C22   1.423423 A    
C2    C25   1.489803 S    
O3    C2    1.307904 A    
O6    C4    1.314927 A    
C23   C24   1.489248 S    
C31   O26   1.398804 S    
N1    C6    1.382027 A    
C16   C23   1.394076 A    
C15   C19   1.394860 A    
O32   H12   1.013600 S    
C17   C21   1.430997 A    
C29   O21   1.224010 D    
C30   O24   1.399493 S    
O4    Cu2   1.969050 S    
C32   O27   1.219349 D    
C5    N3    1.439939 S    
C4    C22   1.496625 S    
C32   O28   1.395988 S    
C7    N5    1.432190 S    
C34   O31   1.221128 D    
C15   C24   1.399385 A    
N3    O10   1.300360 A    
C34   O32   1.398554 S    
C14   H2    1.082421 S    
C27   O18   1.399250 S    
C18   C28   1.470365 S    
C10   C12   1.409159 A    
C33   O29   1.221408 D    
O3    Cu1   1.969049 S    
N6    O15   1.295477 A    
C33   O30   1.394618 S    
N2    C5    1.382650 A    
N4    O11   1.294191 A    
O1    C1    1.310776 A    
O2    C2    1.304718 A    
C11   C25   1.413238 A    
C9    C11   1.401037 A    
O5    Cu1   1.973814 S    
C31   O25   1.219116 D    
C8    N6    1.433025 S    
O6    Cu2   1.973814 S    
C13   C23   1.398837 A    
C14   C24   1.402065 A    
O18   H5    1.014152 S    
O22   H7    1.012174 S    
O24   H8    1.012820 S    
N1    Cu1   2.026507 S    
N2    Cu2   2.026508 S    
C9    C26   1.413927 A    
O8    C3    1.311025 A    
C16   C20   1.397410 A    
N5    O13   1.297242 A    
C19   C29   1.480720 S    
C11   C33   1.489924 S    
C13   C17   1.393639 A    
