data_mof_unit_11913.cif
_audit_creation_date              2012-12-11T14:15:03-0500
_audit_creation_method            fapswitch 2.2
_symmetry_space_group_name_H-M    P1
_symmetry_Int_Tables_number       1
_space_group_crystal_system       triclinic
_cell_length_a                    24.424522
_cell_length_b                    17.314438
_cell_length_c                    15.574192
_cell_angle_alpha                 89.820423
_cell_angle_beta                  129.046661
_cell_angle_gamma                 90.236682
_cell_volume                      5115.07655339

loop_
_atom_site_label
_atom_site_type_symbol
_atom_type_description
_atom_site_fract_x
_atom_site_fract_y
_atom_site_fract_z
_atom_type_partial_charge
C1    C     C_R   0.348167 0.362780 0.239940 -0.123493
C2    C     C_R   0.650632 0.675109 0.499490 0.160094
C3    C     C_R   0.817549 0.117343 0.497805 0.155068
C4    C     C_R   0.151349 0.174217 0.499382 0.159675
C5    C     C_R   0.353427 0.628177 0.138090 0.152876
C6    C     C_R   0.646557 0.627973 0.861917 0.153272
C7    C     C_R   0.853466 0.129637 0.139968 0.152943
C8    C     C_R   0.145338 0.129758 0.860290 0.150246
C9    C     C_2   0.653072 0.798758 0.426976 -0.162146
C10   C     C_2   0.346070 0.796476 0.572994 -0.161309
C11   C     C_2   0.153396 0.297703 0.426694 -0.162529
C12   C     C_R   0.652988 0.365132 0.767432 -0.124304
C13   C     C_2   0.765885 0.154353 0.581501 -0.153041
C14   C     C_2   0.687343 0.741290 0.500977 -0.254114
C15   C     C_2   0.311609 0.738962 0.499212 -0.253168
C16   C     C_2   0.187987 0.240256 0.500580 -0.252587
C17   C     C_2   0.757417 0.135015 0.491375 -0.244741
C18   C     C_2   0.191686 0.360384 0.420018 0.371884
C19   C     C_2   0.719265 0.211653 0.573056 0.366392
C20   C     C_2   0.691704 0.861393 0.420790 0.370543
C21   C     C_2   0.307748 0.858596 0.579778 0.370814
C22   C     C_2   0.259486 0.374341 0.507812 -0.233374
C23   C     C_R   0.850097 0.860872 0.243651 -0.121953
C24   C     C_2   0.699619 0.272755 0.504627 -0.262314
C25   C     C_2   0.759649 0.874790 0.508444 -0.224315
C26   C     C_2   0.239861 0.872174 0.492138 -0.233655
C27   C     C_2   0.645229 0.252210 0.864620 -0.217150
C28   C     C_2   0.352889 0.249579 0.141185 -0.215564
C29   C     C_2   0.142158 0.745507 0.850313 -0.218841
C30   C     C_2   0.857756 0.745253 0.150775 -0.218136
C31   C     C_2   0.696476 0.212181 0.877922 -0.110412
C32   C     C_2   0.301495 0.209476 0.128519 -0.106429
C33   C     C_2   0.196324 0.707919 0.868751 -0.105661
C34   C     C_R   0.149822 0.861101 0.756761 -0.121126
C35   C     C_2   0.803342 0.707480 0.131872 -0.106138
C36   C     C_2   0.307870 0.656169 0.024073 -0.222677
C37   C     C_2   0.691922 0.655782 0.975922 -0.222731
C38   C     C_2   0.807267 0.157834 0.026707 -0.223947
C39   C     C_2   0.190149 0.158186 0.973737 -0.221145
C40   C     C_R   0.603648 0.373302 0.408859 -0.151404
C41   C     C_R   0.384836 0.401903 0.591796 -0.160193
C42   C     C_R   0.114973 0.901688 0.408195 -0.162195
C43   C     C_R   0.884937 0.901864 0.591950 -0.162853
C44   C     C_2   0.237798 0.656417 0.963536 -0.109082
C45   C     C_R   0.405409 0.635751 0.593045 -0.126528
C46   C     C_2   0.762009 0.656035 0.037058 -0.109751
C47   C     C_2   0.737511 0.158561 0.968968 -0.107083
C48   C     C_2   0.260206 0.156567 0.035937 -0.110699
C49   C     C_R   0.677993 0.375017 0.593026 -0.118303
C50   C     C_R   0.311176 0.400633 0.408829 -0.128238
C51   C     C_R   0.188658 0.900410 0.591207 -0.129341
C52   C     C_R   0.811160 0.900706 0.408995 -0.129161
C53   C     C_R   0.559879 0.362408 0.762932 -0.146612
C54   C     C_R   0.437516 0.362043 0.235256 -0.140943
C55   C     C_R   0.058451 0.859028 0.756994 -0.148874
C56   C     C_R   0.594053 0.636748 0.406949 -0.128610
C57   C     C_R   0.941473 0.859023 0.243436 -0.147859
C58   C     C_R   0.378806 0.321243 0.204163 0.147463
C59   C     C_R   0.620247 0.323329 0.800371 0.150068
C60   C     C_R   0.882806 0.817762 0.212304 0.149000
C61   C     C_R   0.117063 0.817923 0.788366 0.149283
C62   C     C_R   0.662390 0.338363 0.502036 0.155151
C63   C     C_R   0.315515 0.389726 0.500864 0.146857
C64   C     C_R   0.184171 0.889094 0.499153 0.148270
C65   C     C_R   0.815588 0.889848 0.501155 0.148352
C66   C     C_R   0.329166 0.634644 0.407730 -0.146790
C67   C     C_R   0.886181 0.102467 0.590965 -0.114788
C68   C     C_R   0.670228 0.635634 0.592202 -0.147551
C69   C     C_R   0.812758 0.103254 0.407026 -0.151165
C70   C     C_R   0.170729 0.135072 0.592174 -0.146339
C71   C     C_R   0.423851 0.609339 0.199135 -0.160230
C72   C     C_R   0.576066 0.609197 0.800672 -0.160152
C73   C     C_R   0.923633 0.109958 0.199410 -0.162525
C74   C     C_R   0.074885 0.110886 0.798859 -0.149180
C75   C     C_R   0.667286 0.607069 0.800345 -0.121971
C76   C     C_R   0.332798 0.607174 0.199896 -0.121411
C77   C     C_R   0.166822 0.107959 0.799888 -0.123266
C78   C     C_R   0.094486 0.136179 0.406866 -0.126408
C79   C     C_R   0.833177 0.108950 0.202190 -0.116171
C80   C     C_3   0.153065 0.403994 0.312640 -1.044484
C81   C     C_3   0.705212 0.205254 0.653772 -1.016404
C82   C     C_3   0.653231 0.905875 0.314119 -1.039808
C83   C     C_3   0.346595 0.902240 0.687056 -1.041519
C84   C     C_R   0.348464 0.673529 0.500463 0.160364
H1    H     H_    0.300171 0.349830 0.226926 0.088890
H2    H     H_    0.711387 0.275231 0.448053 0.116440
H3    H     H_    0.778937 0.857827 0.590385 0.102002
H4    H     H_    0.220335 0.855005 0.410217 0.104102
H5    H     H_    0.212378 0.629739 0.993465 0.125425
H6    H     H_    0.787572 0.629541 0.007528 0.125166
H7    H     H_    0.712608 0.131314 0.999383 0.125601
H8    H     H_    0.285887 0.128080 0.007860 0.126536
H9    H     H_    0.716963 0.229319 0.836498 0.141706
H10   H     H_    0.281687 0.225537 0.171810 0.128884
H11   H     H_    0.217781 0.725267 0.828192 0.128117
H12   H     H_    0.704118 0.354559 0.790657 0.085833
H13   H     H_    0.781575 0.724773 0.171822 0.127789
H14   H     H_    0.332583 0.683609 0.993219 0.130386
H15   H     H_    0.667058 0.683074 0.006340 0.130275
H16   H     H_    0.831199 0.185811 0.994874 0.129593
H17   H     H_    0.165178 0.187569 0.002625 0.130880
H18   H     H_    0.625408 0.236010 0.908104 0.129279
H19   H     H_    0.371641 0.233532 0.096241 0.128627
H20   H     H_    0.121488 0.728037 0.892142 0.128655
H21   H     H_    0.878697 0.727883 0.109475 0.128552
H22   H     H_    0.582893 0.364277 0.324720 0.092112
H23   H     H_    0.802229 0.847402 0.230772 0.088632
H24   H     H_    0.404614 0.407874 0.676147 0.093448
H25   H     H_    0.095135 0.907303 0.323743 0.093953
H26   H     H_    0.904796 0.907921 0.676338 0.092059
H27   H     H_    0.725723 0.369951 0.677247 0.096496
H28   H     H_    0.264286 0.403662 0.323703 0.109043
H29   H     H_    0.235545 0.903115 0.676373 0.109180
H30   H     H_    0.764173 0.903884 0.323934 0.108013
H31   H     H_    0.522394 0.347401 0.775533 0.098704
H32   H     H_    0.470554 0.348008 0.214028 0.092037
H33   H     H_    0.021031 0.842756 0.769248 0.099502
H34   H     H_    0.197729 0.847887 0.769894 0.088456
H35   H     H_    0.978895 0.842829 0.231366 0.099479
H36   H     H_    0.285393 0.647290 0.322390 0.097429
H37   H     H_    0.713770 0.648641 0.677541 0.097892
H38   H     H_    0.764736 0.098841 0.322411 0.090191
H39   H     H_    0.214425 0.147894 0.677502 0.097662
H40   H     H_    0.453284 0.608070 0.168770 0.093523
H41   H     H_    0.546477 0.607798 0.830780 0.093172
H42   H     H_    0.952567 0.108740 0.168185 0.093679
H43   H     H_    0.044305 0.110949 0.827284 0.093521
H44   H     H_    0.720372 0.604611 0.827941 0.080004
H45   H     H_    0.744146 0.740614 0.564262 0.133997
H46   H     H_    0.279793 0.604712 0.172677 0.080325
H47   H     H_    0.220033 0.105891 0.827945 0.081278
H48   H     H_    0.780720 0.108230 0.177296 0.081781
H49   H     H_    0.431386 0.648881 0.678659 0.096240
H50   H     H_    0.567914 0.650271 0.321342 0.096998
H51   H     H_    0.905723 0.097590 0.675244 0.081557
H52   H     H_    0.068408 0.149499 0.321216 0.096260
H53   H     H_    0.596082 0.795981 0.363878 0.141351
H54   H     H_    0.403115 0.794111 0.635540 0.140686
H55   H     H_    0.096371 0.294857 0.363999 0.140485
H56   H     H_    0.254756 0.737785 0.436471 0.135116
H57   H     H_    0.813360 0.139734 0.663691 0.126884
H58   H     H_    0.099603 0.419433 0.283071 0.247716
H59   H     H_    0.180010 0.459165 0.323104 0.253375
H60   H     H_    0.147419 0.367314 0.249120 0.244292
H61   H     H_    0.711677 0.144635 0.682354 0.252079
H62   H     H_    0.744371 0.241385 0.726608 0.223934
H63   H     H_    0.650580 0.223300 0.615476 0.265157
H64   H     H_    0.600139 0.922064 0.285514 0.248752
H65   H     H_    0.680812 0.960681 0.325184 0.253317
H66   H     H_    0.646752 0.869516 0.249654 0.242961
H67   H     H_    0.244839 0.239618 0.563437 0.135336
H68   H     H_    0.400291 0.917299 0.716975 0.247924
H69   H     H_    0.320171 0.957648 0.676284 0.253242
H70   H     H_    0.351698 0.865746 0.750488 0.244192
H71   H     H_    0.707775 0.146561 0.409782 0.134971
H72   H     H_    0.278675 0.357531 0.589765 0.104093
N1    N     N_R   0.389060 0.424180 0.294540 -0.044890
N2    N     N_R   0.374530 0.423490 0.443400 -0.045111
N3    N     N_R   0.125470 0.923490 0.556600 -0.044839
N4    N     N_R   0.874530 0.923490 0.443400 -0.043970
N5    N     N_R   0.555250 0.423100 0.705420 -0.040764
N6    N     N_R   0.444750 0.423100 0.294580 -0.040483
N7    N     N_R   0.055250 0.923100 0.705420 -0.041433
N8    N     N_R   0.944750 0.923100 0.294580 -0.040945
N9    N     N_R   0.375210 0.577180 0.443400 -0.042190
N10   N     N_R   0.624790 0.577180 0.556600 -0.043527
N11   N     N_R   0.875210 0.077180 0.443400 -0.040094
N12   N     N_R   0.610940 0.424180 0.705460 -0.043387
N13   N     N_R   0.124790 0.077180 0.556600 -0.042122
N14   N     N_R   0.445430 0.577570 0.294580 -0.040168
N15   N     N_R   0.554570 0.577570 0.705420 -0.040211
N16   N     N_R   0.945430 0.077570 0.294580 -0.040677
N17   N     N_R   0.054570 0.077570 0.705420 -0.041432
N18   N     N_R   0.611620 0.576500 0.705460 -0.042474
N19   N     N_R   0.388380 0.576500 0.294540 -0.042686
N20   N     N_R   0.111620 0.076500 0.705460 -0.043226
N21   N     N_R   0.888380 0.076500 0.294540 -0.043744
N22   N     N_R   0.421010 0.576890 0.556640 -0.043021
N23   N     N_R   0.889060 0.924180 0.294540 -0.045163
N24   N     N_R   0.578990 0.576890 0.443360 -0.044520
N25   N     N_R   0.921010 0.076890 0.556640 -0.042787
N26   N     N_R   0.078990 0.076890 0.443360 -0.042921
N27   N     N_R   0.110940 0.924180 0.705460 -0.045093
N28   N     N_R   0.579670 0.423790 0.443360 -0.040249
N29   N     N_R   0.420330 0.423790 0.556640 -0.038018
N30   N     N_R   0.079670 0.923790 0.443360 -0.037692
N31   N     N_R   0.920330 0.923790 0.556640 -0.037153
N32   N     N_R   0.625470 0.423490 0.556600 -0.045262
Ni1   Ni    Ni4+2 0.383200 0.500680 0.370150 0.207898
Ni2   Ni    Ni4+2 0.616800 0.500680 0.629850 0.208519
Ni3   Ni    Ni4+2 0.883200 0.000680 0.370150 0.206547
Ni4   Ni    Ni4+2 0.116800 0.000680 0.629850 0.207619
Ni5   Ni    Ni4+2 0.512440 0.500680 0.370150 0.211830
Ni6   Ni    Ni4+2 0.487560 0.500680 0.629850 0.210526
Ni7   Ni    Ni4+2 0.012440 0.000680 0.370150 0.210158
Ni8   Ni    Ni4+2 0.987560 0.000680 0.629850 0.208204

loop_
_geom_bond_atom_site_label_1
_geom_bond_atom_site_label_2
_ccdc_geom_bond_type
N16   N21   A    
C52   N4    A    
C32   H10   S    
C21   C26   D    
C11   C18   S    
C34   H34   S    
N21   Ni3   S    
C41   H24   S    
C20   C82   S    
N31   Ni8   S    
N29   Ni6   S    
N27   Ni4   S    
C4    C70   A    
C53   C59   A    
N8    Ni7   S    
N12   Ni2   S    
C6    C75   A    
C7    C73   A    
C83   H70   S    
C22   H72   S    
C50   N2    A    
C6    C72   A    
N22   Ni6   S    
C51   H29   S    
C30   C35   D    
N7    Ni8   S    
N3    N30   A    
C40   H22   S    
C3    C69   A    
C42   H25   S    
C15   H56   S    
C2    C68   A    
C10   C15   D    
C54   C58   A    
N20   Ni4   S    
C20   C25   D    
N28   Ni5   S    
C5    C36   S    
C29   C33   D    
C25   H3    S    
C40   C62   A    
N32   Ni2   S    
C75   H44   S    
C77   H47   S    
C49   N32   A    
N25   Ni8   S    
C26   C64   S    
C11   H55   S    
C67   N25   A    
C36   H14   S    
C22   C63   S    
C12   C59   A    
C9    H53   S    
C70   H39   S    
C21   C83   S    
C81   H63   S    
C54   H32   S    
N9    Ni1   S    
C79   N21   A    
C43   H26   S    
C13   H57   S    
C23   N23   A    
C49   H27   S    
C81   H61   S    
C42   N30   A    
C66   H36   S    
C75   N18   A    
N9    N22   A    
C32   C48   S    
C76   H46   S    
C44   H5    S    
N15   Ni6   S    
C33   H11   S    
C8    C74   A    
C56   N24   A    
C39   H17   S    
C53   H31   S    
C50   C63   A    
N14   N19   A    
C10   C21   S    
C1    H1    S    
C23   C60   A    
N15   N18   A    
C29   C61   S    
C71   N14   A    
C13   C19   S    
C27   C31   D    
C82   H65   S    
C72   N15   A    
C71   H40   S    
C28   C32   D    
C25   C65   S    
C74   N17   A    
C38   H16   S    
N2    Ni1   S    
C19   C81   S    
C57   C60   A    
C80   H60   S    
C31   H9    S    
N7    N27   A    
C34   C61   A    
N28   N32   A    
C29   H20   S    
C30   C60   S    
C78   N26   A    
C4    C16   S    
C67   H51   S    
C9    C14   D    
C69   N11   A    
C4    C78   A    
C11   C16   D    
N30   Ni7   S    
C9    C20   S    
C82   H64   S    
C74   H43   S    
C43   N31   A    
C43   C65   A    
C80   H59   S    
C23   H23   S    
N17   Ni8   S    
C50   H28   S    
C6    C37   S    
C41   N29   A    
C34   N27   A    
C54   N6    A    
C73   N16   A    
C52   H30   S    
C38   C47   D    
C82   H66   S    
N8    N23   A    
C45   N22   A    
N18   Ni2   S    
C46   H6    S    
C26   H4    S    
C8    C39   S    
C81   H62   S    
C77   N20   A    
C80   H58   S    
C30   H21   S    
C8    C77   A    
C36   C44   D    
C45   C84   A    
N10   N24   A    
C41   C63   A    
C17   H71   S    
N2    N29   A    
C42   C64   A    
C37   H15   S    
C7    C79   A    
C83   H68   S    
C55   H33   S    
N17   N20   A    
C24   C62   S    
C49   C62   A    
C66   N9    A    
C18   C22   D    
C33   C44   S    
C47   H7    S    
N3    Ni4   S    
C70   N13   A    
C76   N19   A    
C3    C67   A    
C51   C64   A    
N4    Ni3   S    
C68   H37   S    
N19   Ni1   S    
N14   Ni5   S    
C56   H50   S    
C15   C84   S    
C83   H69   S    
C28   C58   S    
N11   Ni3   S    
C27   H18   S    
C45   H49   S    
N4    N31   A    
C57   H35   S    
C72   H41   S    
C5    C76   A    
C1    N1    A    
C19   C24   D    
C55   N7    A    
C5    C71   A    
C27   C59   S    
C1    C58   A    
C28   H19   S    
C53   N5    A    
N11   N25   A    
C57   N8    A    
C24   H2    S    
C69   H38   S    
C79   H48   S    
C55   C61   A    
N6    Ni5   S    
C51   N3    A    
C7    C38   S    
N5    Ni6   S    
C3    C17   S    
C16   H67   S    
C2    C14   S    
N1    Ni1   S    
N13   N26   A    
N5    N12   A    
N24   Ni5   S    
C66   C84   A    
C13   C17   D    
C31   C47   S    
N23   Ni3   S    
C18   C80   S    
C12   N12   A    
C48   H8    S    
C12   H12   S    
N16   Ni7   S    
C2    C56   A    
N26   Ni7   S    
C10   H54   S    
N13   Ni4   S    
N10   Ni2   S    
C37   C46   D    
C35   H13   S    
C35   C46   S    
C78   H52   S    
N1    N6    A    
C52   C65   A    
C73   H42   S    
C39   C48   D    
C40   N28   A    
C14   H45   S    
C68   N10   A    
