data_mof_unit_8961.cif
_audit_creation_date              2012-12-11T14:23:02-0500
_audit_creation_method            fapswitch 2.2
_symmetry_space_group_name_H-M    P1
_symmetry_Int_Tables_number       1
_space_group_crystal_system       triclinic
_cell_length_a                    11.251279
_cell_length_b                    10.952104
_cell_length_c                    18.764043
_cell_angle_alpha                 89.905119
_cell_angle_beta                  89.734784
_cell_angle_gamma                 60.20916
_cell_volume                      2006.61111437

loop_
_atom_site_label
_atom_site_type_symbol
_atom_type_description
_atom_site_fract_x
_atom_site_fract_y
_atom_site_fract_z
_atom_type_partial_charge
C1    C     C_R   0.294418 0.619139 0.616325 0.554362
C2    C     C_3   0.699966 0.525956 0.800715 -0.101112
C3    C     C_3   0.696568 0.667111 0.813273 0.109199
C4    C     C_3   0.660368 0.642303 0.678076 -0.000040
C5    C     C_3   0.777458 0.672854 0.685729 -0.196331
C6    C     C_3   0.683922 0.508918 0.720671 -0.210225
C7    C     C_R   0.716457 0.116831 0.814677 0.051860
C8    C     C_R   0.819374 0.133649 0.775302 0.005802
C9    C     C_R   0.809898 0.136347 0.698562 -0.035131
C10   C     C_R   0.616991 0.098479 0.702782 -0.160204
C11   C     C_R   0.625324 0.091544 0.775312 -0.099780
C12   C     C_R   0.647868 0.616649 0.603024 0.540826
C13   C     C_R   0.935169 0.138389 0.805270 0.266203
C14   C     C_R   0.033222 0.141982 0.760233 -0.134910
C15   C     C_R   0.027868 0.131187 0.687448 -0.150447
C16   C     C_R   0.922961 0.118736 0.656868 0.093939
C17   C     C_R   0.693637 0.141735 0.665435 0.006574
C18   C     C_R   0.211532 0.654655 0.843721 0.026683
C19   C     C_R   0.266512 0.517801 0.814653 0.075471
C20   C     C_R   0.287451 0.502378 0.738429 0.002493
C21   C     C_R   0.236824 0.745642 0.730802 -0.191805
C22   C     C_R   0.215759 0.759893 0.803250 -0.167410
C23   C     C_R   0.631745 0.223143 0.600260 0.557028
C24   C     C_R   0.293624 0.397194 0.857490 0.332436
C25   C     C_R   0.317936 0.273966 0.823825 -0.058628
C26   C     C_R   0.320022 0.264907 0.750232 -0.174897
C27   C     C_R   0.309965 0.374402 0.708272 -0.093528
C28   C     C_R   0.270634 0.620261 0.695623 -0.019364
C29   C     C_R   0.733160 0.692357 0.181134 0.006663
C30   C     C_R   0.797709 0.552080 0.210758 0.052220
C31   C     C_R   0.733111 0.538407 0.271393 -0.013761
C32   C     C_R   0.636044 0.786722 0.297413 -0.145585
C33   C     C_R   0.660318 0.807668 0.226548 -0.166084
C34   C     C_R   0.288241 0.621215 0.392435 0.566435
C35   C     C_R   0.915088 0.423445 0.183371 0.288835
C36   C     C_R   0.955576 0.295988 0.218567 -0.132027
C37   C     C_R   0.872866 0.287921 0.269589 -0.148550
C38   C     C_R   0.750752 0.405822 0.287074 -0.092082
C39   C     C_R   0.663032 0.653385 0.318597 0.010771
C40   C     C_R   0.662436 0.137712 0.181728 -0.025640
C41   C     C_R   0.533836 0.191176 0.215285 0.002911
C42   C     C_R   0.529912 0.168509 0.288472 0.015336
C43   C     C_R   0.772173 0.072545 0.298434 0.017196
C44   C     C_R   0.781669 0.069914 0.224299 -0.146534
C45   C     C_R   0.641922 0.622995 0.392278 0.530225
C46   C     C_R   0.410852 0.249811 0.177300 -0.083285
C47   C     C_R   0.296100 0.255356 0.207502 -0.140586
C48   C     C_R   0.295433 0.215994 0.277340 -0.159447
C49   C     C_R   0.412943 0.168929 0.317310 -0.086934
C50   C     C_R   0.644463 0.143311 0.330211 0.011574
C51   C     C_R   0.179882 0.649336 0.174017 -0.000387
C52   C     C_R   0.267402 0.699869 0.194384 0.027894
C53   C     C_R   0.288205 0.709914 0.267645 0.019767
C54   C     C_R   0.183173 0.565801 0.292767 -0.114969
C55   C     C_R   0.139295 0.582241 0.223363 -0.144143
C56   C     C_R   0.618410 0.220571 0.398216 0.550355
C57   C     C_R   0.318263 0.758272 0.143723 -0.081303
C58   C     C_R   0.357931 0.853495 0.165123 -0.106486
C59   C     C_R   0.356592 0.882463 0.236937 -0.136761
C60   C     C_R   0.330842 0.806124 0.288033 -0.099527
C61   C     C_R   0.254285 0.632377 0.316743 0.017340
C62   C     C_R   0.709911 0.090644 0.892707 0.580283
C63   C     C_R   0.723017 0.685732 0.889096 0.630595
C64   C     C_R   0.123032 0.703465 0.907786 0.575859
C65   C     C_R   0.678218 0.101091 0.105730 0.515147
C66   C     C_R   0.737942 0.716635 0.104489 0.568655
C67   C     C_3   0.552493 0.785386 0.788666 -0.236498
C68   C     C_R   0.098174 0.705225 0.110322 0.519632
C69   C     C_3   0.531930 0.771047 0.708951 -0.254968
C70   C     C_3   0.811821 0.669762 0.765413 0.322331
Cr1   Cr    Cr6+3 0.392940 0.397950 0.502230 1.005837
Cr2   Cr    Cr6+3 0.398400 0.708500 0.501260 1.018389
Cr3   Cr    Cr6+3 0.708640 0.393530 0.496460 1.051211
Cr4   Cr    Cr6+3 0.937880 0.938320 0.007620 1.033043
Cr5   Cr    Cr6+3 0.625560 0.937220 0.994510 1.003467
Cr6   Cr    Cr6+3 0.938080 0.625010 0.001190 1.067033
H1    H     H_    0.540388 0.889057 0.798208 0.134168
H2    H     H_    0.778303 0.414705 0.701273 0.166520
H3    H     H_    0.868651 0.597803 0.654127 0.147530
H4    H     H_    0.541435 0.081534 0.676077 0.123554
H5    H     H_    0.556026 0.066168 0.800871 0.144715
H6    H     H_    0.124427 0.136415 0.782454 0.131590
H7    H     H_    0.113565 0.118466 0.655371 0.138084
H8    H     H_    0.221278 0.837857 0.701807 0.149196
H9    H     H_    0.469532 0.783185 0.819931 0.154621
H10   H     H_    0.185109 0.862326 0.825568 0.180679
H11   H     H_    0.326090 0.186965 0.855179 0.125932
H12   H     H_    0.327498 0.172113 0.725437 0.098362
H13   H     H_    0.307487 0.358090 0.652543 0.193749
H14   H     H_    0.586995 0.874879 0.333681 0.122401
H15   H     H_    0.620317 0.913089 0.206644 0.140204
H16   H     H_    0.050802 0.201690 0.205896 0.115157
H17   H     H_    0.908196 0.191667 0.297610 0.173965
H18   H     H_    0.444197 0.755664 0.701435 0.153040
H19   H     H_    0.678394 0.396937 0.320582 0.156324
H20   H     H_    0.404020 0.284307 0.123161 0.131783
H21   H     H_    0.882392 0.009574 0.200504 0.175057
H22   H     H_    0.210628 0.283647 0.175293 0.179715
H23   H     H_    0.206257 0.216665 0.299654 0.124162
H24   H     H_    0.413032 0.127776 0.369805 0.141272
H25   H     H_    0.149699 0.511726 0.329012 0.161281
H26   H     H_    0.316668 0.739429 0.087158 0.127629
H27   H     H_    0.065373 0.551459 0.210130 0.182368
H28   H     H_    0.509096 0.869400 0.680316 0.115143
H29   H     H_    0.385062 0.908393 0.126105 0.144297
H30   H     H_    0.382858 0.959462 0.253368 0.128961
H31   H     H_    0.338021 0.831366 0.342376 0.171958
H32   H     H_    0.744071 0.777835 0.661801 0.121644
H33   H     H_    0.795682 0.435198 0.819237 0.167293
H34   H     H_    0.597151 0.489271 0.711641 0.148489
O1    O     O_R   0.507340 0.255690 0.581430 -0.553918
O2    O     O_R   0.524510 0.695820 0.424050 -0.544586
O3    O     O_R   0.736370 0.504260 0.414810 -0.499166
O4    O     O_R   0.691220 0.277270 0.422180 -0.485499
O5    O     O_3   0.499990 0.499990 0.499980 -0.311235
O6    O     O_R   0.089570 0.825450 0.930590 -0.501275
O7    O     O_R   0.818700 0.054260 0.929860 -0.426832
O8    O     O_R   0.606310 0.077010 0.915520 -0.543640
O9    O     O_R   0.646730 0.806540 0.917560 -0.496157
O10   O     O_R   0.837290 0.593240 0.915240 -0.499058
O11   O     O_R   0.065320 0.635310 0.931580 -0.421424
O12   O     O_R   0.280360 0.527380 0.578910 -0.502119
O13   O     O_R   0.068470 0.828620 0.091850 -0.536570
O14   O     O_R   0.799150 0.057200 0.079350 -0.512729
O15   O     O_R   0.585220 0.080180 0.076770 -0.540647
O16   O     O_R   0.627170 0.809480 0.067050 -0.515114
O17   O     O_R   0.816200 0.596410 0.076500 -0.477808
O18   O     O_R   0.045770 0.638240 0.081070 -0.486412
O19   O     O_3   0.833840 0.833520 0.001110 -0.291111
O20   O     O_R   0.260600 0.739610 0.584580 -0.483720
O21   O     O_R   0.532370 0.695050 0.573830 -0.524566
O22   O     O_R   0.744850 0.503430 0.576380 -0.507792
O23   O     O_R   0.699080 0.276500 0.571950 -0.477468
O24   O     O_R   0.498860 0.256520 0.419860 -0.543305
O25   O     O_R   0.272490 0.528150 0.429140 -0.485605
O26   O     O_R   0.252110 0.740440 0.423010 -0.474330
I1    I     I_    0.999966 0.475830 0.779213 -0.480083
O27   O     O_3   0.975552 0.103260 0.874822 -0.537999
C71   C     C_3   0.972304 0.216148 0.912068 -0.095048
H35   H     H_    0.865217 0.300168 0.922031 0.155922
H36   H     H_    0.032883 0.258282 0.885878 0.133779
H37   H     H_    0.020575 0.174769 0.964333 0.106893
I2    I     I_    0.971989 0.023012 0.554359 -0.265963
O28   O     O_3   0.268538 0.401655 0.930085 -0.570320
C72   C     C_3   0.367592 0.414371 0.969507 -0.091631
H38   H     H_    0.358406 0.518969 0.962815 0.132836
H39   H     H_    0.472580 0.328116 0.957595 0.170832
H40   H     H_    0.346733 0.408376 0.026434 0.122858
O29   O     O_3   0.004468 0.423147 0.132110 -0.573021
C73   C     C_3   0.026913 0.324696 0.077238 -0.083904
H41   H     H_    0.931163 0.324270 0.062725 0.122470
H42   H     H_    0.107567 0.216767 0.091871 0.063633
H43   H     H_    0.063614 0.355053 0.029030 0.164943
I3    I     I_    0.945301 0.943373 0.360175 -0.347740
O30   O     O_3   0.826298 0.786826 0.785316 -0.565735
C74   C     C_3   0.922139 0.801662 0.742592 -0.096463
H44   H     H_    0.873309 0.864572 0.694534 0.134576
H45   H     H_    0.009824 0.701688 0.724643 0.154617
H46   H     H_    0.961285 0.858577 0.774087 0.164765
I4    I     I_    0.564457 0.495287 0.866074 -0.571489

loop_
_geom_bond_atom_site_label_1
_geom_bond_atom_site_label_2
_ccdc_geom_bond_type
Cr4   O14   S    
Cr2   O2    S    
C2    H33   S    
C8    C13   A    
C64   O6    A    
C12   O21   A    
C29   C33   A    
C41   C42   A    
C54   H25   S    
C35   C36   A    
C67   H1    S    
Cr1   O24   S    
C72   H38   S    
C45   O2    A    
C7    C8    A    
C11   H5    S    
C7    C11   A    
C57   H26   S    
Cr2   O5    S    
C26   C27   A    
C17   C23   S    
C47   H22   S    
C30   C35   A    
Cr6   O11   S    
C36   C37   A    
C9    C16   A    
C33   H15   S    
Cr1   O25   S    
C30   C31   A    
C71   H37   S    
Cr2   O26   S    
C10   C17   A    
C64   O11   A    
C55   H27   S    
C25   H11   S    
Cr3   O3    S    
C66   O17   A    
C18   C19   A    
C44   H21   S    
C32   C39   A    
Cr4   O7    S    
C1    O12   A    
C62   O7    A    
Cr1   O12   S    
C46   C47   A    
C53   C61   A    
C32   H14   S    
C19   C20   A    
C8    C9    A    
C73   H43   S    
Cr1   O1    S    
C38   H19   S    
C1    C28   S    
C41   C46   A    
C27   H13   S    
C5    H3    S    
C43   I3    S    
C68   O18   A    
C39   C45   S    
C36   H16   S    
Cr4   O13   S    
Cr3   O22   S    
C59   C60   A    
C21   C22   A    
C6    H34   S    
C2    C6    S    
Cr5   O8    S    
C68   O13   A    
C4    C69   S    
C72   H39   S    
C53   C60   A    
C67   H9    S    
C59   H30   S    
C23   O23   A    
Cr1   O5    S    
C70   O30   S    
C3    C70   S    
Cr5   O9    S    
C24   C25   A    
C4    C6    S    
C1    O20   A    
C52   C57   A    
C10   H4    S    
O28   C72   S    
C15   H7    S    
C20   C28   A    
C25   C26   A    
Cr5   O19   S    
C34   C61   S    
C50   C56   S    
Cr3   O4    S    
C66   O16   A    
C67   C69   S    
C65   O15   A    
C43   C44   A    
C7    C62   S    
C37   C38   A    
C63   O9    A    
Cr6   O19   S    
C47   C48   A    
C21   H8    S    
C34   O26   A    
Cr4   O6    S    
C16   I2    S    
C37   H17   S    
Cr6   O10   S    
C60   H31   S    
C42   C50   A    
C9    C17   A    
C40   C41   A    
C54   C61   A    
C21   C28   A    
Cr3   O23   S    
C69   H18   S    
C40   C65   S    
Cr6   O18   S    
C73   H42   S    
C4    C12   S    
C14   H6    S    
C72   H40   S    
C52   C53   A    
Cr2   O21   S    
C69   H28   S    
C48   H23   S    
C54   C55   A    
C48   C49   A    
C12   O22   A    
C18   C22   A    
C74   H46   S    
C3    C67   S    
C4    C5    S    
C5    C70   S    
C56   O24   A    
C71   H35   S    
C43   C50   A    
Cr2   O20   S    
C20   C27   A    
C3    C63   S    
C23   O1    A    
Cr3   O5    S    
C31   C38   A    
Cr5   O16   S    
C10   C11   A    
C13   O27   S    
C58   H29   S    
C74   H45   S    
C2    C3    S    
C58   C59   A    
C51   C52   A    
O29   C73   S    
C32   C33   A    
C49   H24   S    
C63   O10   A    
C71   H36   S    
C18   C64   S    
C57   C58   A    
C46   H20   S    
C34   O25   A    
C24   O28   S    
C31   C39   A    
C19   C24   A    
C51   C55   A    
C51   C68   S    
C22   H10   S    
C62   O8    A    
C6    H2    S    
O27   C71   S    
C42   C49   A    
C29   C30   A    
C29   C66   S    
C65   O14   A    
C26   H12   S    
C45   O3    A    
C40   C44   A    
C74   H44   S    
C70   I1    S    
C2    I4    S    
Cr4   O19   S    
O30   C74   S    
Cr6   O17   S    
C56   O4    A    
C14   C15   A    
C35   O29   S    
Cr5   O15   S    
C13   C14   A    
C15   C16   A    
C73   H41   S    
C5    H32   S    
