data_mof_unit_9589.cif
_audit_creation_date              2013-03-05T15:50:30-0500
_audit_creation_method            fapswitch 2.2
_symmetry_space_group_name_H-M    P1
_symmetry_Int_Tables_number       1
_space_group_crystal_system       triclinic
_cell_length_a                    19.148398
_cell_length_b                    7.145326
_cell_length_c                    17.706765
_cell_angle_alpha                 89.894326
_cell_angle_beta                  109.08278
_cell_angle_gamma                 90.078231
_cell_volume                      2289.53002373

loop_
_atom_site_label
_atom_site_type_symbol
_atom_site_description
_atom_site_fract_x
_atom_site_fract_y
_atom_site_fract_z
_atom_type_partial_charge
O1    O     O_R   0.562310 0.505770 0.439670 -0.564103
O2    O     O_R   0.437690 0.005770 0.560330 -0.585568
O3    O     O_R   0.411650 0.169150 0.405330 -0.591905
O4    O     O_R   0.588350 0.669150 0.594670 -0.579682
C1    C     C_R   0.384634 0.345936 0.382657 0.828396
C2    C     C_R   0.615185 0.845417 0.617194 0.830739
O5    O     O_R   0.560140 0.175610 0.430010 -0.567870
O6    O     O_R   0.439860 0.675610 0.569990 -0.558236
O7    O     O_R   0.587240 0.012100 0.585200 -0.599712
O8    O     O_R   0.412760 0.512100 0.414800 -0.586214
C3    C     C_R   0.579601 0.345218 0.413258 0.982122
C4    C     C_R   0.420080 0.844442 0.586466 0.975970
O9    O     O_3   0.508720 0.341420 0.550890 -0.258188
O10   O     O_3   0.491280 0.841420 0.449110 -0.242565
V1    V     V_3+5 0.498380 0.063930 0.490560 1.212787
V2    V     V_3+5 0.501620 0.563930 0.509440 1.237879
C5    C     C_R   0.176610 0.756978 0.872658 -0.247417
C6    C     C_R   0.821075 0.564731 0.133672 -0.254170
C7    C     C_R   0.131584 0.915688 0.866764 -0.144834
C8    C     C_R   0.869489 0.416243 0.134419 -0.141032
C9    C     C_R   0.135514 0.062416 0.815106 -0.262686
C10   C     C_R   0.868953 0.256358 0.180887 -0.259341
C11   C     C_R   0.182772 0.049790 0.768946 0.150977
C12   C     C_R   0.821352 0.245132 0.226668 0.148557
C13   C     C_R   0.227915 0.890194 0.775612 0.063990
C14   C     C_R   0.772306 0.393850 0.224768 0.063189
C15   C     C_R   0.225106 0.744328 0.828232 0.152676
C16   C     C_R   0.771898 0.553300 0.177522 0.153976
C17   C     C_R   0.185701 0.193924 0.716166 -0.235309
C18   C     C_R   0.821723 0.087413 0.274116 -0.232401
C19   C     C_R   0.232493 0.179778 0.670095 -0.173961
C20   C     C_R   0.774169 0.077162 0.319477 -0.188178
C21   C     C_R   0.277868 0.022169 0.676568 0.154838
C22   C     C_R   0.724740 0.223494 0.317603 0.144868
C23   C     C_R   0.276149 0.876889 0.729907 -0.010555
C24   C     C_R   0.723341 0.382528 0.269767 -0.003186
C25   C     C_R   0.323051 0.719691 0.738403 -0.030951
C26   C     C_R   0.672713 0.529120 0.266119 -0.031990
C27   C     C_R   0.320240 0.577265 0.792585 -0.121262
C28   C     C_R   0.672147 0.685174 0.216986 -0.132235
C29   C     C_R   0.271300 0.588603 0.836118 -0.237083
C30   C     C_R   0.721613 0.697772 0.174062 -0.228682
C31   C     C_R   0.324717 0.008053 0.630401 -0.199469
C32   C     C_R   0.677184 0.213276 0.363207 -0.225969
C33   C     C_R   0.372288 0.853979 0.638167 -0.309316
C34   C     C_R   0.626528 0.357353 0.360722 -0.297430
C35   C     C_R   0.372606 0.710621 0.693976 0.298544
C36   C     C_R   0.623088 0.514549 0.310335 0.297333
H1    H     H_    0.174887 0.643953 0.912964 0.140633
H2    H     H_    0.820375 0.687537 0.097359 0.138657
H3    H     H_    0.101059 0.185218 0.809921 0.142565
H4    H     H_    0.906180 0.141329 0.182106 0.141990
H5    H     H_    0.151681 0.317673 0.710385 0.140727
H6    H     H_    0.858834 0.971714 0.276164 0.139928
H7    H     H_    0.233577 0.293080 0.629718 0.137919
H8    H     H_    0.775689 0.953780 0.355669 0.139219
H9    H     H_    0.323790 0.117771 0.587703 0.165884
H10   H     H_    0.680550 0.093755 0.402027 0.172100
H11   H     H_    0.355492 0.455441 0.801687 0.184149
H12   H     H_    0.633779 0.799375 0.211363 0.184295
H13   H     H_    0.270005 0.475566 0.876545 0.142109
H14   H     H_    0.720137 0.820641 0.137588 0.145182
C37   C     C_3   0.790103 0.699032 0.795150 -0.314607
C38   C     C_3   0.247964 0.311810 0.162196 -0.353200
H15   H     H_    0.835238 0.621075 0.782281 0.154354
H16   H     H_    0.227552 0.172430 0.136297 0.159126
H17   H     H_    0.782800 0.635064 0.849471 0.153733
H18   H     H_    0.259873 0.394711 0.114548 0.141601
C39   C     C_3   0.717839 0.672832 0.724158 -0.367090
C40   C     C_3   0.320603 0.284613 0.233831 -0.340958
H19   H     H_    0.676465 0.597971 0.744997 0.183362
H20   H     H_    0.367146 0.354401 0.220334 0.179946
H21   H     H_    0.728969 0.583972 0.677796 0.147149
H22   H     H_    0.333988 0.132862 0.242064 0.163906
H23   H     H_    0.866515 0.921338 0.719921 0.134529
H24   H     H_    0.151859 0.153946 0.233318 0.158983
H25   H     H_    0.759251 0.881077 0.614160 0.132274
H26   H     H_    0.259256 0.114729 0.337848 0.153240
C41   C     C_3   0.820053 0.991776 0.733169 -0.368885
C42   C     C_3   0.174344 0.293842 0.256548 -0.341101
C43   C     C_3   0.746585 0.011231 0.827078 -0.374698
C44   C     C_3   0.218736 0.604349 0.223906 -0.389006
C45   C     C_3   0.812024 0.910543 0.811090 0.116595
C46   C     C_3   0.187453 0.412484 0.188460 0.128214
H27   H     H_    0.758819 0.163333 0.836615 0.158200
H28   H     H_    0.177481 0.679760 0.244569 0.153456
H29   H     H_    0.739288 0.955119 0.882684 0.145232
H30   H     H_    0.229864 0.692541 0.177202 0.158521
C47   C     C_3   0.686723 0.864566 0.688012 0.113466
C48   C     C_3   0.312761 0.366848 0.311560 0.110519
C49   C     C_3   0.747424 0.964506 0.661580 -0.345992
C50   C     C_3   0.247218 0.266817 0.327876 -0.377501
C51   C     C_3   0.673706 0.983931 0.755793 -0.313728
C52   C     C_3   0.290981 0.578425 0.294851 -0.292487
H31   H     H_    0.631668 0.914632 0.777364 0.167599
H32   H     H_    0.336134 0.655893 0.281601 0.188971
H33   H     H_    0.651387 0.123802 0.732273 0.172420
H34   H     H_    0.283729 0.643288 0.348931 0.140579
H35   H     H_    0.833679 0.143480 0.741010 0.153370
H36   H     H_    0.132399 0.363536 0.277977 0.129572
H37   H     H_    0.727279 0.103843 0.635326 0.153612
H38   H     H_    0.240029 0.323596 0.383340 0.134469
O11   O     O_R   0.087220 0.271820 0.085230 -0.593979
O12   O     O_R   0.912780 0.771820 0.914770 -0.595058
O13   O     O_R   0.939860 0.595540 0.069990 -0.594373
O14   O     O_R   0.060140 0.095540 0.930010 -0.594473
C53   C     C_R   0.919092 0.426408 0.085215 0.932807
C54   C     C_R   0.081246 0.926671 0.915131 0.934643
O15   O     O_R   0.088340 0.601930 0.094680 -0.590296
O16   O     O_R   0.911660 0.101930 0.905320 -0.587545
O17   O     O_R   0.062310 0.765410 0.939660 -0.590616
O18   O     O_R   0.937690 0.265410 0.060340 -0.589094
C55   C     C_R   0.115936 0.431853 0.117796 0.837487
C56   C     C_R   0.883876 0.931474 0.882036 0.838755
O19   O     O_3   0.991270 0.429630 0.949130 -0.280664
O20   O     O_3   0.008730 0.929630 0.050870 -0.280879
V3    V     V_3+5 0.001620 0.707150 0.009440 1.133447
V4    V     V_3+5 0.998380 0.207150 0.990560 1.134789
N1    N     N_R   0.425843 0.562299 0.708788 0.236466
O21   O     O_R   0.404617 0.391790 0.687678 -0.427197
O22   O     O_R   0.496053 0.599844 0.738436 -0.421918
N2    N     N_R   0.567158 0.654291 0.301313 0.235125
O23   O     O_R   0.585460 0.823493 0.327211 -0.420639
O24   O     O_R   0.497641 0.608578 0.273048 -0.435232

loop_
_geom_bond_atom_site_label_1
_geom_bond_atom_site_label_2
_geom_bond_distance
_ccdc_geom_bond_type
O18   V4    1.998138 S    
C37   H15   1.113401 S    
O4    V2    1.990685 S    
C46   C55   1.529581 S    
C28   H12   1.081227 S    
C53   O18   1.322775 A    
O1    C3    1.322368 A    
C29   H13   1.083886 S    
C42   C46   1.558426 S    
O2    C4    1.325029 A    
O16   V4    1.990658 S    
C2    O7    1.351591 A    
O15   V3    1.990268 S    
C27   C29   1.397034 A    
O5    C3    1.328637 A    
C18   H6    1.083687 S    
C17   H5    1.083663 S    
C44   C52   1.545838 S    
C11   C17   1.402788 A    
C41   H35   1.112857 S    
C23   C25   1.415846 A    
C12   C14   1.412198 A    
C38   H18   1.112787 S    
C36   N2    1.435260 S    
C52   H34   1.113464 S    
C43   C51   1.557926 S    
O20   V3    1.738452 S    
C6    C8    1.407096 A    
C39   H19   1.113196 S    
C38   C46   1.559526 S    
C5    C7    1.408427 A    
C37   C39   1.546853 S    
C32   H10   1.083986 S    
C41   C45   1.549085 S    
C40   H22   1.112837 S    
C19   C21   1.404779 A    
C39   H21   1.113182 S    
C38   C40   1.558067 S    
C25   C35   1.418413 A    
C30   H14   1.083846 S    
C41   C49   1.557693 S    
C1    C48   1.538914 S    
C50   H38   1.112694 S    
C8    C53   1.485672 S    
C7    C54   1.486265 S    
C35   N1    1.434664 S    
O6    V2    2.004898 S    
C42   H36   1.112711 S    
C28   C30   1.397569 A    
C45   C56   1.537350 S    
O13   V3    2.001839 S    
C40   C48   1.549341 S    
C49   H37   1.112759 S    
C39   C47   1.546350 S    
C43   C45   1.550197 S    
C32   C34   1.406146 A    
C43   H27   1.112962 S    
C48   C52   1.570465 S    
C34   C36   1.421284 A    
C33   C35   1.420631 A    
C37   H17   1.113454 S    
C5    C15   1.402652 A    
C6    C16   1.404946 A    
O4    C2    1.369483 A    
C5    H1    1.084369 S    
O5    V1    2.002042 S    
H26   C50   1.112939 S    
C44   H28   1.113158 S    
C37   C45   1.569172 S    
C38   H16   1.112799 S    
C42   C50   1.557906 S    
C18   C20   1.399101 A    
O13   C53   1.326228 A    
C15   C29   1.400488 A    
C48   C50   1.550266 S    
O6    C4    1.326144 A    
O19   V4    1.736317 S    
C27   H11   1.081348 S    
C22   C32   1.402515 A    
O1    V2    1.997848 S    
C52   H32   1.113483 S    
O2    V1    1.996234 S    
C31   C33   1.407467 A    
C43   H29   1.112687 S    
N1    O22   1.301177 A    
C13   C23   1.416424 A    
O12   C56   1.316501 A    
C14   C24   1.417223 A    
C8    C10   1.408636 A    
C44   C46   1.545092 S    
C9    C11   1.406833 A    
C10   C12   1.406056 A    
O11   V4    2.013336 S    
C47   C49   1.559549 S    
N2    O24   1.301120 A    
C51   H33   1.112739 S    
C9    H3    1.084120 S    
O3    V1    1.990293 S    
C6    H2    1.084400 S    
C10   H4    1.084269 S    
O12   V3    2.012982 S    
O16   C56   1.339072 A    
H25   C49   1.112745 S    
O11   C55   1.317501 A    
C26   C36   1.418667 A    
H24   C42   1.112799 S    
C4    C33   1.492779 S    
O3    C1    1.374247 A    
N1    O21   1.300095 A    
O15   C55   1.334953 A    
C13   C15   1.409392 A    
C2    C47   1.531190 S    
C14   C16   1.410752 A    
C54   O17   1.322044 A    
O17   V3    1.996529 S    
C24   C26   1.415181 A    
O7    V1    1.993881 S    
C1    O8    1.350548 A    
C25   C27   1.410325 A    
O8    V2    1.994166 S    
C26   C28   1.410902 A    
C51   H31   1.112778 S    
O14   C54   1.326946 A    
C44   H30   1.113246 S    
C16   C30   1.400160 A    
C21   C23   1.409724 A    
C22   C24   1.411075 A    
C11   C13   1.413184 A    
C47   C51   1.558833 S    
C12   C18   1.403059 A    
C31   H9    1.084258 S    
C17   C19   1.398902 A    
O9    V2    1.736664 S    
O10   V1    1.738801 S    
C3    C34   1.492108 S    
C40   H20   1.112506 S    
C19   H7    1.083758 S    
N2    O23   1.300234 A    
C21   C31   1.401140 A    
H23   C41   1.112655 S    
C20   H8    1.083764 S    
O14   V4    2.004703 S    
C20   C22   1.404356 A    
C7    C9    1.408105 A    
