data_mof_unit_40709.cif
_audit_creation_date              2012-12-10T19:44:57-0500
_audit_creation_method            fapswitch 2.2
_symmetry_space_group_name_H-M    P1
_symmetry_Int_Tables_number       1
_space_group_crystal_system       triclinic
_cell_length_a                    15.06711
_cell_length_b                    10.822821
_cell_length_c                    13.696508
_cell_angle_alpha                 90.782879
_cell_angle_beta                  89.656373
_cell_angle_gamma                 90.400451
_cell_volume                      2233.16891687

loop_
_atom_site_label
_atom_site_type_symbol
_atom_type_description
_atom_site_fract_x
_atom_site_fract_y
_atom_site_fract_z
_atom_type_partial_charge
C1    C     C_R   0.500170 0.262365 0.499174 0.785640
C2    C     C_R   0.499831 0.737635 0.500826 0.785637
C3    C     C_R   0.045754 0.556856 0.326011 -0.006353
C4    C     C_R   0.954246 0.443142 0.673989 -0.006354
C5    C     C_R   0.233504 0.235787 0.370990 -0.107500
C6    C     C_R   0.766444 0.764175 0.629136 -0.107495
C7    C     C_R   0.295258 0.169529 0.423652 -0.127767
C8    C     C_R   0.704720 0.830439 0.576436 -0.127700
C9    C     C_R   0.374312 0.130108 0.379360 0.070668
C10   C     C_R   0.625657 0.869893 0.620687 0.070714
C11   C     C_R   0.391850 0.156851 0.279739 0.068303
C12   C     C_R   0.608079 0.843179 0.720305 0.068283
C13   C     C_R   0.327628 0.224072 0.226276 0.031835
C14   C     C_R   0.672270 0.775951 0.773807 0.031837
C15   C     C_R   0.250085 0.264636 0.273780 -0.211932
C16   C     C_R   0.749823 0.735350 0.726343 -0.211938
C17   C     C_R   0.435803 0.933007 0.444251 -0.068482
C18   C     C_R   0.564200 0.066993 0.555749 -0.068497
C19   C     C_R   0.497928 0.871725 0.502815 -0.174578
C20   C     C_R   0.502074 0.128274 0.497186 -0.174585
C21   C     C_R   0.560752 0.937523 0.559969 -0.056998
C22   C     C_R   0.439245 0.062477 0.440041 -0.056993
C23   C     C_R   0.328559 0.502152 0.500310 0.812296
C24   C     C_R   0.671441 0.497849 0.499690 0.812282
C25   C     C_R   0.566756 0.443423 0.792374 0.033300
C26   C     C_R   0.433243 0.556575 0.207625 0.033296
C27   C     C_R   0.432181 0.555374 0.793808 0.056586
C28   C     C_R   0.567819 0.444628 0.206192 0.056613
C29   C     C_R   0.428535 0.555599 0.897488 -0.045030
C30   C     C_R   0.571465 0.444402 0.102512 -0.045015
C31   C     C_R   0.499152 0.499687 0.948189 0.101115
C32   C     C_R   0.500848 0.500313 0.051811 0.101176
C33   C     C_R   0.568325 0.443020 0.895086 -0.056583
C34   C     C_R   0.431675 0.556979 0.104914 -0.056537
C35   C     C_R   0.358268 0.611220 0.952107 0.006304
C36   C     C_R   0.641733 0.388782 0.047892 0.006264
C37   C     C_R   0.361652 0.611931 0.055071 -0.156686
C38   C     C_R   0.638348 0.388069 0.944928 -0.156685
C39   C     C_R   0.813605 0.468510 0.585385 -0.213925
C40   C     C_R   0.186395 0.531492 0.414616 -0.213903
C41   C     C_R   0.768150 0.492998 0.499045 -0.105962
C42   C     C_R   0.231850 0.507004 0.500955 -0.105950
C43   C     C_R   0.814978 0.515024 0.412694 -0.230042
C44   C     C_R   0.185023 0.484977 0.587307 -0.230055
C45   C     C_R   0.907243 0.518284 0.412821 0.114273
C46   C     C_R   0.092757 0.481716 0.587179 0.114262
C47   C     C_R   0.953482 0.496288 0.500068 0.033385
C48   C     C_R   0.046518 0.503712 0.499933 0.033374
C49   C     C_R   0.906580 0.467361 0.587236 0.080080
C50   C     C_R   0.093420 0.532639 0.412764 0.080079
C51   C     C_R   0.953298 0.546529 0.327025 -0.280046
C52   C     C_R   0.046702 0.453469 0.672975 -0.280047
Cu1   Cu    Cu3+1 0.500010 0.499980 0.597420 0.952492
Cu2   Cu    Cu3+1 0.499990 0.500020 0.402580 0.952487
H1    H     H_    0.619271 0.398990 0.750975 0.153520
H2    H     H_    0.380728 0.601007 0.249024 0.153511
N1    N     N_R   0.499960 0.499900 0.743810 -0.192675
N2    N     N_R   0.500040 0.500100 0.256190 -0.192669
O1    O     O_R   0.500000 0.319630 0.582270 -0.576386
O2    O     O_R   0.500000 0.680370 0.417730 -0.576386
O3    O     O_R   0.499990 0.319660 0.417730 -0.581232
O4    O     O_R   0.500010 0.680340 0.582270 -0.581220
O5    O     O_R   0.370260 0.499960 0.582280 -0.595646
O6    O     O_R   0.629740 0.500040 0.417720 -0.595648
O7    O     O_R   0.370250 0.499990 0.417740 -0.596474
O8    O     O_R   0.629750 0.500010 0.582260 -0.596465
H3    H     H_    0.775402 0.454898 0.651267 0.197489
H4    H     H_    0.224598 0.545106 0.348734 0.197480
C53   C     C_2   0.364554 0.860453 0.393060 0.401654
H5    H     H_    0.339887 0.775120 0.424244 0.062510
O9    O     O_2   0.334198 0.892721 0.315103 -0.513899
C54   C     C_2   0.635451 0.139548 0.606934 0.401639
H6    H     H_    0.660114 0.224882 0.575749 0.062515
O10   O     O_2   0.665813 0.107280 0.684888 -0.513903
H7    H     H_    0.382483 0.601147 0.751606 0.121051
H8    H     H_    0.617518 0.398855 0.248394 0.121020
C55   C     C_2   0.279467 0.666487 0.904740 0.413017
H9    H     H_    0.263743 0.647325 0.829064 0.031454
O11   O     O_2   0.229328 0.733831 0.950961 -0.497319
C56   C     C_2   0.720535 0.333519 0.095260 0.412923
H10   H     H_    0.736259 0.352682 0.170936 0.031464
O12   O     O_2   0.770676 0.266177 0.049038 -0.497333
H11   H     H_    0.308333 0.653828 0.097149 0.218297
H12   H     H_    0.691666 0.346171 0.902850 0.218304
H13   H     H_    0.779590 0.533553 0.345783 0.152785
H14   H     H_    0.220410 0.466447 0.654217 0.152791
H15   H     H_    0.916595 0.564445 0.260808 0.142205
H16   H     H_    0.083406 0.435552 0.739192 0.142208
C57   C     C_2   0.087675 0.595657 0.232807 0.345785
H17   H     H_    0.057172 0.568858 0.164026 0.083138
O13   O     O_2   0.152387 0.664097 0.231368 -0.523636
C58   C     C_2   0.912326 0.404337 0.767192 0.345807
H18   H     H_    0.942830 0.431129 0.835974 0.083140
O14   O     O_2   0.847611 0.335900 0.768629 -0.523638
H19   H     H_    0.200578 0.316031 0.234448 0.127002
H20   H     H_    0.799305 0.683947 0.765703 0.127003
H21   H     H_    0.172306 0.264910 0.405762 0.152403
H22   H     H_    0.827652 0.735030 0.594396 0.152389
H23   H     H_    0.281721 0.149165 0.499542 0.132401
H24   H     H_    0.718290 0.850783 0.500549 0.132379
C59   C     C_2   0.477579 0.115779 0.235806 0.462842
H25   H     H_    0.510458 0.034597 0.263296 0.082655
O15   O     O_2   0.514600 0.174370 0.171778 -0.517813
C60   C     C_2   0.522342 0.884290 0.764195 0.462809
H26   H     H_    0.489499 0.965495 0.736695 0.082660
O16   O     O_2   0.485275 0.825705 0.828193 -0.517822
C61   C     C_2   0.335049 0.249760 0.120437 0.434768
H27   H     H_    0.303169 0.330838 0.091202 0.032520
O17   O     O_2   0.371431 0.177854 0.063942 -0.456789
C62   C     C_2   0.664807 0.750294 0.879649 0.434737
H28   H     H_    0.696681 0.669230 0.908918 0.032538
O18   O     O_2   0.628394 0.822207 0.936112 -0.456808

loop_
_geom_bond_atom_site_label_1
_geom_bond_atom_site_label_2
_ccdc_geom_bond_type
C17   C53   S    
C59   H25   S    
C27   C29   A    
C34   C37   A    
C61   O17   D    
C13   C61   S    
C60   O16   D    
Cu1   O1    S    
C39   C41   A    
Cu2   O7    S    
Cu2   O2    S    
C55   H9    S    
C23   C42   S    
C7    H23   S    
C4    C52   A    
C6    H22   S    
C35   C37   A    
C12   C60   S    
C1    O1    A    
C15   H19   S    
C2    O2    A    
C9    C22   S    
C45   C51   A    
C18   C21   A    
C46   C52   A    
C11   C13   A    
C7    C9    A    
C45   C47   A    
C53   O9    D    
C62   H28   S    
C26   C34   A    
C31   C32   A    
C61   H27   S    
C31   C33   A    
C57   O13   D    
C24   O8    A    
C40   C42   A    
C24   O6    A    
C24   C41   S    
C41   C43   A    
C42   C44   A    
C44   H14   S    
C60   H26   S    
C3    C50   A    
C44   C46   A    
C55   O11   D    
C10   C21   S    
C18   C54   S    
C23   O5    A    
C46   C48   A    
C16   H20   S    
C43   H13   S    
C52   H16   S    
C54   O10   D    
C36   C56   S    
C51   H15   S    
C5    C7    A    
C3    C51   A    
C56   H10   S    
C6    C8    A    
Cu1   Cu2   S    
C35   C55   S    
C26   H2    S    
C32   C34   A    
C19   C21   A    
C9    C11   A    
Cu1   O4    S    
C47   C48   A    
C29   C31   A    
C58   O14   D    
C11   C59   S    
Cu1   O8    S    
C26   N2    A    
C10   C12   A    
C56   O12   D    
C39   C49   A    
C5    H21   S    
C13   C15   A    
C27   N1    A    
C14   C16   A    
C28   H8    S    
C25   N1    A    
Cu2   N2    S    
C14   C62   S    
C1    C20   S    
Cu1   N1    S    
C38   H12   S    
C2    C19   S    
C39   H3    S    
C8    C10   A    
C25   H1    S    
C20   C22   A    
C54   H6    S    
C27   H7    S    
C1    O3    A    
Cu2   O3    S    
C28   N2    A    
C47   C49   A    
C29   C35   A    
C17   C22   A    
C30   C36   A    
C4    C49   A    
C3    C57   S    
C23   O7    A    
C36   C38   A    
C12   C14   A    
C28   C30   A    
C43   C45   A    
C30   C32   A    
Cu1   O5    S    
Cu2   O6    S    
C40   C50   A    
C48   C50   A    
C58   H18   S    
C17   C19   A    
C18   C20   A    
C8    H24   S    
C53   H5    S    
C62   O18   D    
C5    C15   A    
C6    C16   A    
C59   O15   D    
C40   H4    S    
C37   H11   S    
C33   C38   A    
C57   H17   S    
C2    O4    A    
C25   C33   A    
C4    C58   S    
