data_mof_unit_67300.cif
_audit_creation_date              2012-12-11T18:22:20-0500
_audit_creation_method            fapswitch 2.2
_symmetry_space_group_name_H-M    P1
_symmetry_Int_Tables_number       1
_space_group_crystal_system       triclinic
_cell_length_a                    8.36687
_cell_length_b                    14.615768
_cell_length_c                    15.323322
_cell_angle_alpha                 94.955955
_cell_angle_beta                  98.472916
_cell_angle_gamma                 92.42967
_cell_volume                      1843.58947915

loop_
_atom_site_label
_atom_site_type_symbol
_atom_type_description
_atom_site_fract_x
_atom_site_fract_y
_atom_site_fract_z
_atom_type_partial_charge
Ba1   Ba    Ba6+2 0.833400 0.543310 0.453520 1.726276
Ba2   Ba    Ba6+2 0.356420 0.456770 0.546480 1.738212
C1    C     C_3   0.545565 0.875576 0.203665 -0.222360
C2    C     C_R   0.890477 0.464486 0.926032 -0.171613
C3    C     C_R   0.047074 0.456335 0.106928 -0.158930
C4    C     C_3   0.005359 0.752162 0.204596 0.341045
C5    C     C_R   0.904757 0.403094 0.069829 0.383008
C6    C     C_R   0.814290 0.423161 0.991058 0.382923
C7    C     C_R   0.116580 0.462868 0.200384 0.029068
C8    C     C_R   0.271565 0.506221 0.224083 -0.237693
C9    C     C_R   0.071195 0.534261 0.797081 0.035170
C10   C     C_R   0.131272 0.548004 0.891114 0.030889
C11   C     C_R   0.048900 0.505176 0.953886 -0.028332
C12   C     C_3   0.587747 0.786954 0.244773 0.182670
C13   C     C_R   0.264864 0.607399 0.925871 -0.025128
C14   C     C_R   0.330726 0.614318 0.016393 -0.016369
C15   C     C_R   0.270863 0.558015 0.075972 -0.011378
C16   C     C_3   0.938085 0.784515 0.114776 -0.379467
C17   C     C_R   0.121811 0.507180 0.046106 -0.055389
C18   C     C_R   0.352513 0.551611 0.164286 0.083592
C19   C     C_R   0.917683 0.490203 0.772230 -0.299016
C20   C     C_R   0.714673 0.937791 0.544340 -0.048057
C21   C     C_R   0.511230 0.803551 0.503137 0.021026
C22   C     C_R   0.356371 0.772301 0.461012 -0.247386
C23   C     C_3   0.382118 0.271099 0.289865 0.368401
C24   C     C_R   0.238189 0.833297 0.434839 -0.035209
C25   C     C_R   0.275917 0.928904 0.447431 -0.074706
C26   C     C_R   0.440376 0.961579 0.474360 0.040139
C27   C     C_R   0.557335 0.900009 0.507754 -0.038172
C28   C     C_3   0.223566 0.742137 0.646311 0.268090
C29   C     C_R   0.643440 0.092010 0.505552 -0.043268
C30   C     C_R   0.757143 0.032983 0.545070 -0.033409
C31   C     C_R   0.685874 0.187760 0.506197 -0.013876
C32   C     C_R   0.837374 0.222689 0.549482 -0.296878
C33   C     C_R   0.952599 0.164750 0.585160 0.057053
C34   C     C_3   0.386476 0.271998 0.192155 0.298379
C35   C     C_R   0.912301 0.070217 0.584215 -0.090776
C36   C     C_R   0.490380 0.054188 0.467509 0.045179
C37   C     C_3   0.217692 0.846423 0.663543 -0.273326
C38   C     C_3   0.972822 0.256863 0.360487 0.310955
C39   C     C_3   0.880387 0.162235 0.335740 0.300476
C40   C     C_3   0.766655 0.680718 0.718001 0.384789
C41   C     C_3   0.820234 0.716284 0.816462 -0.085194
C42   C     C_2   0.309251 0.880820 0.752579 0.688439
C43   C     C_2   0.508687 0.945627 0.272680 0.561933
C44   C     C_2   0.920936 0.805077 0.826040 0.526987
C45   C     C_3   0.097524 0.239854 0.794124 0.314593
C46   C     C_2   0.681342 0.727318 0.867629 0.630606
C47   C     C_2   0.583534 0.046632 0.713874 0.436850
C48   C     C_2   0.550541 0.111260 0.861125 0.810905
C49   C     C_2   0.139243 0.991486 0.442524 0.583664
C50   C     C_2   0.177812 0.731288 0.204077 0.408317
C51   C     C_3   0.114066 0.205423 0.886118 0.302360
C52   C     C_3   0.612858 0.217819 0.748654 0.215679
C53   C     C_3   0.636897 0.123617 0.783658 -0.289821
C54   C     C_R   0.821611 0.461981 0.834236 0.051318
H1    H     H_    0.709729 0.795539 0.283186 0.117372
H2    H     H_    0.895843 0.665425 0.848961 -0.218855
H3    H     H_    0.503433 0.772296 0.291528 0.070665
H4    H     H_    0.439076 0.862497 0.150688 0.136263
H5    H     H_    0.279493 0.226623 0.300916 0.115866
H6    H     H_    0.367301 0.342978 0.316712 -0.117057
H7    H     H_    0.286542 0.309066 0.159575 -0.039339
H8    H     H_    0.495696 0.313371 0.189183 0.088983
H9    H     H_    0.647360 0.902532 0.172772 0.124445
H10   H     H_    0.950025 0.730777 0.060492 0.039380
H11   H     H_    0.123365 0.315646 0.801703 -0.030906
H12   H     H_    0.269929 0.881315 0.612410 0.050748
H13   H     H_    0.970378 0.224550 0.761867 -0.070995
H14   H     H_    0.024734 0.238971 0.922964 0.032727
H15   H     H_    0.235660 0.226499 0.923068 0.087877
H16   H     H_    0.694724 0.226914 0.698996 -0.008303
H17   H     H_    0.486951 0.222546 0.717770 0.143324
H18   H     H_    0.767602 0.119564 0.805546 0.150381
H19   H     H_    0.933157 0.688974 0.213138 0.066836
H20   H     H_    0.437113 0.659423 0.036689 0.123831
H21   H     H_    0.319147 0.649077 0.882878 0.144581
H22   H     H_    0.329425 0.507229 0.292159 0.070202
H23   H     H_    0.089585 0.864684 0.660753 0.060227
H24   H     H_    0.869392 0.480108 0.702367 0.041323
H25   H     H_    0.323529 0.699310 0.453757 0.086864
H26   H     H_    0.002242 0.025911 0.612896 0.104460
H27   H     H_    0.869102 0.295472 0.551344 0.048646
H28   H     H_    0.804319 0.894711 0.574794 0.113262
H29   H     H_    0.413056 0.096763 0.428417 0.160184
H30   H     H_    0.808481 0.797719 0.111482 0.161576
H31   H     H_    0.004113 0.849107 0.103687 0.169524
H32   H     H_    0.346398 0.724429 0.635004 0.049187
H33   H     H_    0.134009 0.718515 0.586764 0.023355
H34   H     H_    0.897970 0.301394 0.398444 -0.079173
H35   H     H_    0.244732 0.907414 0.804406 0.063532
H36   H     H_    0.811284 0.040767 0.131738 0.377229
H37   H     H_    0.604381 0.975697 0.323745 0.006603
H38   H     H_    0.045564 0.807960 0.858542 -0.031568
H39   H     H_    0.704794 0.746916 0.938447 -0.035376
H40   H     H_    0.162742 0.117635 0.065738 0.407481
H41   H     H_    0.210928 0.978948 0.950957 0.362938
H42   H     H_    0.662021 0.990452 0.706243 0.127211
H43   H     H_    0.449306 0.152256 0.871419 0.078946
H44   H     H_    0.726513 0.221705 0.170685 0.407344
H45   H     H_    0.088775 0.248276 0.403315 0.042616
H46   H     H_    0.447335 0.406826 0.087887 0.319462
H47   H     H_    0.015823 0.965373 0.431652 0.056213
H48   H     H_    0.240022 0.746764 0.149450 -0.029409
H49   H     H_    0.756641 0.171326 0.306274 0.071441
H50   H     H_    0.875845 0.128176 0.396662 -0.046342
H51   H     H_    0.875554 0.669233 0.686398 -0.033292
H52   H     H_    0.693925 0.614605 0.713784 0.002122
O1    O     O_2   0.841230 0.444160 0.280430 -0.410728
O2    O     O_2   0.292495 0.177550 0.588164 -0.406830
O3    O     O_3   0.208114 0.197258 0.745230 -0.582056
O4    O     O_3   0.112860 0.447350 0.393710 -0.515528
O5    O     O_3   0.560610 0.613730 0.540770 -0.500495
O6    O     O_2   0.387460 0.270290 0.467210 -0.472842
O7    O     O_3   0.527690 0.237819 0.328232 -0.652032
O8    O     O_2   0.468995 0.428802 0.809830 -0.363521
O9    O     O_3   0.649358 0.285152 0.819974 -0.585507
O10   O     O_3   0.597940 0.615700 0.327690 -0.478462
O11   O     O_2   0.702231 0.559945 0.180327 -0.419251
O12   O     O_3   0.673058 0.745615 0.675585 -0.581127
O13   O     O_3   0.002833 0.295567 0.283924 -0.563413
O14   O     O_3   0.584165 0.717625 0.175586 -0.632782
O15   O     O_2   0.802240 0.729740 0.532850 -0.486309
O16   O     O_3   0.017180 0.664790 0.371080 -0.467246
O17   O     O_2   0.897126 0.820280 0.424574 -0.530386
O18   O     O_2   0.455637 0.876274 0.768025 -0.521798
O19   O     O_2   0.135770 0.083650 0.276994 -0.188596
O20   O     O_2   0.892516 0.987432 0.278657 -0.357083
O21   O     O_3   0.890531 0.092941 0.153500 -0.390185
O22   O     O_2   0.370738 0.969357 0.271442 -0.488548
O23   O     O_3   0.993846 0.822428 0.271887 -0.543797
O24   O     O_2   0.863597 0.874402 0.798584 -0.497528
O25   O     O_2   0.542099 0.714188 0.830853 -0.558356
O26   O     O_2   0.525487 0.107715 0.185690 -0.290501
O27   O     O_2   0.449410 0.174261 0.046670 -0.235178
O28   O     O_3   0.224256 0.098081 0.120148 -0.363882
O29   O     O_2   0.945856 0.060643 0.932612 -0.237007
O30   O     O_2   0.036259 0.041376 0.787528 -0.325852
O31   O     O_3   0.249077 0.035878 0.927834 -0.496745
O32   O     O_2   0.448908 0.042813 0.670143 -0.580609
O33   O     O_2   0.590979 0.053196 0.911493 -0.450991
O34   O     O_2   0.348480 0.555870 0.719620 -0.435555
O35   O     O_2   0.786241 0.232660 0.008915 -0.227351
O36   O     O_2   0.028195 0.248412 0.119514 -0.294282
O37   O     O_3   0.753868 0.287207 0.168930 -0.467763
O38   O     O_2   0.549779 0.509057 0.959561 -0.357268
O39   O     O_2   0.511040 0.338972 0.945521 -0.256575
O40   O     O_3   0.565651 0.420197 0.097304 -0.500692
O41   O     O_2   0.159117 0.074494 0.454241 -0.600753
O42   O     O_2   0.250173 0.696661 0.266455 -0.664772
O43   O     O_3   0.076830 0.552730 0.606300 -0.513520
O44   O     O_3   0.591760 0.384380 0.672320 -0.512952
O45   O     O_3   0.187173 0.702967 0.721352 -0.648414
O46   O     O_3   0.629090 0.386350 0.459240 -0.467435
O47   O     O_3   0.172520 0.335290 0.628920 -0.494544
P1    P     P_3+3 0.018600 0.416790 0.295970 1.072451
P2    P     P_3+3 0.635660 0.716530 0.560900 0.987689
P3    P     P_3+3 0.036984 0.784436 0.378560 1.005298
P4    P     P_3+3 0.171090 0.583290 0.704030 0.992621
P5    P     P_3+3 0.154691 0.216835 0.634055 1.032576
P6    P     P_3+3 0.557710 0.608636 0.211669 1.048521
P7    P     P_3+3 0.561616 0.269013 0.441619 0.948085
P8    P     P_3+3 0.630736 0.395553 0.784974 1.070898
S1    S     S_3+6 0.955154 0.080244 0.260562 -0.001768
S2    S     S_3+6 0.399894 0.160782 0.135044 0.024179
S3    S     S_3+6 0.080776 0.082605 0.881662 -0.074309
S4    S     S_3+6 0.871049 0.288924 0.090654 0.001078
S5    S     S_3+6 0.605110 0.421968 0.994909 -0.038126

loop_
_geom_bond_atom_site_label_1
_geom_bond_atom_site_label_2
_ccdc_geom_bond_type
O10   P6    S    
Ba2   O47   S    
C12   O14   S    
C20   C27   A    
Ba1   P1    S    
C37   H12   S    
O8    P8    D    
O34   P4    D    
C2    C6    A    
C43   H37   S    
O11   P6    D    
C8    H22   S    
C9    P4    S    
C4    H19   S    
H40   O28   S    
O9    P8    S    
C12   H3    S    
C54   P8    S    
Ba2   O4    S    
C24   C25   A    
C16   H30   S    
O14   P6    S    
C20   C30   A    
C21   C27   A    
C26   C27   A    
O13   P1    S    
C22   C24   A    
C32   C33   A    
C23   O7    S    
Ba1   O4    S    
C44   O24   D    
Ba2   O5    S    
O6    P7    D    
O37   S4    S    
O28   S2    S    
C49   H47   S    
C13   C14   A    
C4    C50   S    
O20   S1    D    
C15   C18   A    
Ba1   Ba2   S    
C2    C11   A    
O1    P1    D    
C33   P5    S    
C45   H13   S    
C5    S4    S    
C6    S5    S    
C41   H2    S    
Ba1   O1    S    
C47   H42   S    
C53   H18   S    
C28   O45   S    
C7    P1    S    
C8    C18   A    
C14   C15   A    
O16   P3    S    
C21   C22   A    
C29   C31   A    
Ba1   O43   S    
C34   H7    S    
C40   H51   S    
C48   O33   D    
C45   C51   S    
H46   O40   S    
C1    H4    S    
C38   H45   S    
C43   O22   D    
Ba2   O46   S    
C2    C54   A    
C1    H9    S    
Ba1   O5    S    
C28   H33   S    
C51   H14   S    
O31   S3    S    
C45   H11   S    
O29   S3    D    
C25   C49   S    
Ba2   O44   S    
C4    C16   S    
C39   H50   S    
C11   C17   A    
O36   S4    D    
C46   O25   D    
C5    C6    A    
C46   H39   S    
C3    C5    A    
O17   P3    D    
Ba2   P4    S    
C36   H29   S    
C47   C53   S    
C9    C19   A    
O21   S1    S    
O40   S5    S    
C20   H28   S    
O45   P4    S    
O23   P3    S    
O3    P5    S    
Ba1   O15   S    
C3    C7    A    
C38   O13   S    
C52   H17   S    
C29   C30   A    
C44   H38   S    
C22   H25   S    
C26   C36   A    
H44   O37   S    
C41   C46   S    
C42   O18   D    
C31   C32   A    
C48   H43   S    
O26   S2    D    
C23   H5    S    
C30   C35   A    
Ba1   O10   S    
C42   H35   S    
O35   S4    D    
C37   H23   S    
C1    C12   S    
C39   H49   S    
C38   C39   S    
C10   C13   A    
O4    P1    S    
O12   P2    S    
Ba2   O34   S    
C35   H26   S    
C39   S1    S    
C32   H27   S    
C28   H32   S    
C51   H15   S    
O2    P5    D    
C7    C8    A    
Ba2   O43   S    
C12   H1    S    
O38   S5    D    
C52   C53   S    
C50   H48   S    
C33   C35   A    
O47   P5    S    
C14   H20   S    
O46   P7    S    
C48   C53   S    
C4    O23   S    
C19   C54   A    
C9    C10   A    
O19   S1    D    
C37   C42   S    
C3    C17   A    
C16   H10   S    
O15   P2    D    
C16   H31   S    
C29   C36   A    
O30   S3    D    
O5    P2    S    
O7    P7    S    
Ba1   P2    S    
H36   O21   S    
Ba1   O16   S    
Ba2   O6    S    
C40   O12   S    
C13   H21   S    
C45   O3    S    
C18   P6    S    
C21   P2    S    
C19   H24   S    
C34   S2    S    
C15   C17   A    
C1    C43   S    
C28   C37   S    
C24   P3    S    
C23   H6    S    
Ba1   O46   S    
C41   C44   S    
O27   S2    D    
O44   P8    S    
O39   S5    D    
C23   C34   S    
C51   S3    S    
C52   H16   S    
C10   C11   A    
C49   O41   D    
C50   O42   D    
C40   C41   S    
C47   O32   D    
C25   C26   A    
C38   H34   S    
C52   O9    S    
C34   H8    S    
C31   P7    S    
C40   H52   S    
H41   O31   S    
O43   P4    S    
