data_mof_unit_33929.cif
_audit_creation_date              2012-12-11T14:50:48-0500
_audit_creation_method            fapswitch 2.2
_symmetry_space_group_name_H-M    P1
_symmetry_Int_Tables_number       1
_space_group_crystal_system       triclinic
_cell_length_a                    20.695369
_cell_length_b                    7.195005
_cell_length_c                    20.262974
_cell_angle_alpha                 91.173616
_cell_angle_beta                  101.825084
_cell_angle_gamma                 88.798938
_cell_volume                      2952.13835992

loop_
_atom_site_label
_atom_site_type_symbol
_atom_type_description
_atom_site_fract_x
_atom_site_fract_y
_atom_site_fract_z
_atom_type_partial_charge
O1    O     O_R   0.423690 0.494470 0.435930 -0.526221
O2    O     O_R   0.576310 0.994470 0.564070 -0.528154
O3    O     O_R   0.556070 0.822310 0.435760 -0.530581
O4    O     O_R   0.443930 0.322310 0.564240 -0.532763
C1    C     C_R   0.575544 0.653568 0.421108 0.738227
C2    C     C_R   0.424478 0.158693 0.579246 0.740087
O5    O     O_R   0.422940 0.824080 0.428040 -0.534821
O6    O     O_R   0.577060 0.324080 0.571960 -0.533714
O7    O     O_R   0.442240 0.995960 0.556300 -0.533235
O8    O     O_R   0.557760 0.495960 0.443700 -0.534779
C3    C     C_R   0.398254 0.655354 0.411557 0.721453
C4    C     C_R   0.601114 0.155030 0.589222 0.721395
O9    O     O_3   0.506490 0.661310 0.542090 -0.374972
O10   O     O_3   0.493510 0.161310 0.457910 -0.372515
V1    V     V_3+5 0.498800 0.935560 0.492190 1.495760
V2    V     V_3+5 0.501200 0.435560 0.507810 1.497334
C5    C     C_R   0.836854 0.094156 0.859213 -0.089520
C6    C     C_R   0.163339 0.595229 0.140545 -0.091368
C7    C     C_R   0.663174 0.140965 0.640863 -0.104484
C8    C     C_R   0.335948 0.639822 0.360065 -0.106508
C9    C     C_R   0.777420 0.032628 0.673789 -0.145022
C10   C     C_R   0.227734 0.500963 0.322289 -0.145875
C11   C     C_R   0.720958 0.065269 0.623700 0.157582
C12   C     C_R   0.282454 0.538971 0.373685 0.161783
C13   C     C_R   0.663746 0.189701 0.708562 -0.225141
C14   C     C_R   0.331880 0.708539 0.294808 -0.221147
C15   C     C_R   0.720812 0.159177 0.759514 0.100679
C16   C     C_R   0.276324 0.672304 0.242679 0.101561
C17   C     C_R   0.777870 0.076747 0.741676 0.080963
C18   C     C_R   0.224324 0.564135 0.256690 0.083225
C19   C     C_R   0.835058 0.042612 0.791687 -0.197003
C20   C     C_R   0.168811 0.523996 0.205416 -0.191895
C21   C     C_R   0.780662 0.177842 0.876509 -0.166327
C22   C     C_R   0.214681 0.703438 0.127057 -0.159665
C23   C     C_R   0.722784 0.208449 0.827851 0.176679
C24   C     C_R   0.271013 0.740496 0.176812 0.172239
H1    H     H_    0.878870 0.981708 0.777821 0.129196
H2    H     H_    0.128654 0.444150 0.216670 0.132831
H3    H     H_    0.781917 0.220358 0.928366 0.156662
H4    H     H_    0.210619 0.761215 0.077375 0.155166
H5    H     H_    0.821222 0.973480 0.659434 0.163537
H6    H     H_    0.187498 0.422293 0.333886 0.161333
H7    H     H_    0.618973 0.247584 0.720911 0.148724
H8    H     H_    0.373180 0.785169 0.284922 0.154139
C25   C     C_3   0.249005 0.270234 0.812416 -0.038000
C26   C     C_3   0.737993 0.758189 0.185376 -0.034016
C27   C     C_3   0.260800 0.923814 0.799902 -0.037435
C28   C     C_3   0.753896 0.416119 0.202931 -0.038391
C29   C     C_3   0.310829 0.943787 0.749922 0.263146
C30   C     C_3   0.708999 0.411225 0.258453 0.260564
H9    H     H_    0.278415 0.252286 0.864366 0.215491
H10   H     H_    0.712329 0.731091 0.132593 0.221607
H11   H     H_    0.231928 0.797576 0.785395 0.150111
H12   H     H_    0.792152 0.304917 0.213128 0.157267
C31   C     C_1   0.379309 0.160872 0.625471 -0.138363
C32   C     C_1   0.620894 0.640453 0.375471 -0.135786
C33   C     C_3   0.209182 0.088892 0.792822 0.055927
C34   C     C_3   0.791603 0.603110 0.206937 0.070246
C35   C     C_3   0.296864 0.302425 0.763126 -0.077381
C36   C     C_3   0.685896 0.761197 0.232214 -0.083697
C37   C     C_3   0.295101 0.134535 0.711288 0.109450
C38   C     C_3   0.705684 0.614598 0.289955 0.123042
C39   C     C_3   0.221373 0.136120 0.670157 -0.002502
C40   C     C_3   0.777303 0.672632 0.327981 -0.008547
C41   C     C_3   0.171894 0.097559 0.717440 -0.030930
C42   C     C_3   0.828616 0.640524 0.281400 -0.039346
C43   C     C_1   0.341327 0.159371 0.664026 0.004399
C44   C     C_1   0.659060 0.629484 0.337332 0.001721
C45   C     C_1   0.160830 0.071305 0.838284 0.062447
C46   C     C_1   0.839686 0.597232 0.161073 0.050026
C47   C     C_1   0.121775 0.073216 0.875799 -0.134817
C48   C     C_1   0.878556 0.592308 0.123653 -0.123742
H13   H     H_    0.135735 0.215572 0.712489 0.152894
H14   H     H_    0.857624 0.769197 0.283675 0.151678
H15   H     H_    0.209709 0.280173 0.651780 0.129133
H16   H     H_    0.775573 0.825265 0.337518 0.120396
H17   H     H_    0.276898 0.422229 0.731764 0.159806
H18   H     H_    0.687020 0.896441 0.258740 0.153124
O11   O     O_R   0.942280 0.741210 0.056360 -0.534852
O12   O     O_R   0.057720 0.241210 0.943640 -0.534006
O13   O     O_R   0.077070 0.409690 0.071960 -0.534702
O14   O     O_R   0.922930 0.909690 0.928040 -0.533605
C49   C     C_R   0.101453 0.578841 0.088750 0.703348
C50   C     C_R   0.898736 0.079155 0.910977 0.703253
O15   O     O_R   0.943940 0.411580 0.064250 -0.532272
O16   O     O_R   0.056060 0.911580 0.935750 -0.534323
O17   O     O_R   0.923670 0.239840 0.935920 -0.534014
O18   O     O_R   0.076330 0.739840 0.064080 -0.534751
C51   C     C_R   0.924380 0.581608 0.078533 0.719982
C52   C     C_R   0.075783 0.076642 0.921233 0.715721
O19   O     O_3   0.993540 0.572620 0.957940 -0.373389
O20   O     O_3   0.006460 0.072620 0.042060 -0.372527
V3    V     V_3+5 0.001200 0.298330 0.007800 1.469015
V4    V     V_3+5 0.998800 0.798330 0.992200 1.470671
I1    I     I_    0.305256 0.873126 0.906016 -0.435814
I2    I     I_    0.704248 0.359770 0.097142 -0.447984
C53   C     C_3   0.384732 0.930122 0.787210 -0.630541
H19   H     H_    0.396455 0.016868 0.832849 0.230052
H20   H     H_    0.398683 0.788101 0.805249 0.210440
H21   H     H_    0.418946 0.964886 0.753891 0.194799
C54   C     C_3   0.639275 0.331302 0.230011 -0.665042
H22   H     H_    0.611179 0.402755 0.185774 0.234375
H23   H     H_    0.643174 0.184959 0.213616 0.203471
H24   H     H_    0.608499 0.332806 0.268923 0.197947
C55   C     C_3   0.302161 0.779677 0.697473 -0.719301
H25   H     H_    0.331549 0.656914 0.717355 0.198782
H26   H     H_    0.250023 0.737961 0.681202 0.237283
H27   H     H_    0.321424 0.811726 0.651943 0.235281
C56   C     C_3   0.739852 0.274600 0.315167 -0.702316
H28   H     H_    0.740211 0.131943 0.295952 0.179959
H29   H     H_    0.791885 0.301235 0.336552 0.256998
H30   H     H_    0.712003 0.276926 0.356604 0.239425
I3    I     I_    0.107642 0.861324 0.688931 -0.348135
I4    I     I_    0.909887 0.444501 0.314242 -0.331057
C57   C     C_3   0.204999 0.443236 0.817478 -0.784960
H31   H     H_    0.236818 0.552115 0.844584 0.249464
H32   H     H_    0.179694 0.492253 0.767033 0.228484
H33   H     H_    0.167415 0.420753 0.848178 0.230649
C58   C     C_3   0.767849 0.948193 0.181680 -0.816035
H34   H     H_    0.726336 0.046990 0.171526 0.256538
H35   H     H_    0.801223 0.990231 0.229103 0.213186
H36   H     H_    0.794908 0.953239 0.139755 0.248363
I5    I     I_    0.201892 0.003725 0.570504 -0.251399
I6    I     I_    0.809305 0.593886 0.432968 -0.247608
I7    I     I_    0.641651 0.334295 0.862366 -0.344807
I8    I     I_    0.344122 0.906421 0.148044 -0.351202
I9    I     I_    0.726590 0.006138 0.521999 -0.326032
I10   I     I_    0.279141 0.447290 0.471898 -0.315625
C59   C     C_3   0.364922 0.368324 0.801806 -0.739336
H37   H     H_    0.359483 0.513490 0.818884 0.228004
H38   H     H_    0.383076 0.295512 0.849566 0.237475
H39   H     H_    0.402536 0.362450 0.769879 0.221375
C60   C     C_3   0.614189 0.758428 0.190960 -0.718427
H40   H     H_    0.598616 0.900390 0.173139 0.222673
H41   H     H_    0.609162 0.671384 0.144572 0.243139
H42   H     H_    0.578902 0.713004 0.221614 0.219545

loop_
_geom_bond_atom_site_label_1
_geom_bond_atom_site_label_2
_ccdc_geom_bond_type
C39   C41   S    
C54   H22   S    
O14   V4    S    
C15   C17   A    
C1    C32   S    
O1    C3    A    
C50   O17   A    
C2    C31   S    
O2    C4    A    
C35   H17   S    
C2    O7    A    
C53   H19   S    
C14   H8    S    
C27   C29   S    
O5    C3    A    
C55   H26   S    
C36   H18   S    
C21   H3    S    
C39   H15   S    
C22   H4    S    
C56   H29   S    
C27   C33   S    
C25   H9    S    
C57   H31   S    
C42   H14   S    
C26   H10   S    
C41   H13   S    
C36   C38   S    
C45   C47   T    
C25   C57   S    
C38   C40   S    
O16   V4    S    
C23   I7    S    
C28   I2    S    
O15   V3    S    
C34   C42   S    
C35   C59   S    
C8    C12   A    
C12   I10   S    
C57   H32   S    
C60   H42   S    
C20   H2    S    
C10   C18   A    
C27   H11   S    
C59   H39   S    
O5    V1    S    
C49   O18   A    
C54   H23   S    
C26   C34   S    
C13   H7    S    
C5    C21   A    
O13   C49   A    
C58   H35   S    
C55   H27   S    
O18   V4    S    
C3    C8    S    
C35   C37   S    
C29   C37   S    
O11   V4    S    
O4    C2    A    
O16   C52   A    
C56   H30   S    
C28   H12   S    
O15   C51   A    
C34   C46   S    
C29   C55   S    
C15   C23   A    
C40   I6    S    
C9    C17   A    
C46   C48   T    
C30   C56   S    
C19   H1    S    
C40   C42   S    
O4    V2    S    
C7    C11   A    
O19   V3    S    
O13   V3    S    
C37   C43   S    
C39   I5    S    
O6    C4    A    
C57   H33   S    
C25   C33   S    
O20   V4    S    
C6    C49   S    
C40   H16   S    
O1    V2    S    
O2    V1    S    
C6    C22   A    
C9    H5    S    
C54   H24   S    
O14   C50   A    
C9    C11   A    
C60   H40   S    
C30   C38   S    
C10   C12   A    
C6    C20   A    
C53   H21   S    
O3    V1    S    
C11   I9    S    
C59   H37   S    
C58   H36   S    
C25   C35   S    
C53   H20   S    
C42   I4    S    
C26   C36   S    
C41   I3    S    
C37   C39   S    
C24   I8    S    
C33   C41   S    
O3    C1    A    
C31   C43   T    
C58   H34   S    
C28   C34   S    
C13   C15   A    
C55   H25   S    
C14   C16   A    
C38   C44   S    
C5    C50   S    
C16   C18   A    
O7    V1    S    
C1    O8    A    
C17   C19   A    
C32   C44   T    
C56   H28   S    
O19   V4    S    
C18   C20   A    
C48   C51   S    
C10   H6    S    
C47   C52   S    
C8    C14   A    
C5    C19   A    
O17   V3    S    
C4    C7    S    
C28   C30   S    
O20   V3    S    
C21   C23   A    
C26   C58   S    
C22   C24   A    
O12   C52   A    
C7    C13   A    
O11   C51   A    
C29   C53   S    
C16   C24   A    
C30   C54   S    
O6    V2    S    
O9    V2    S    
C60   H41   S    
C27   I1    S    
O10   V1    S    
O8    V2    S    
C33   C45   S    
O12   V3    S    
C36   C60   S    
C59   H38   S    
