data_mof_unit_27820.cif
_audit_creation_date              2013-03-05T15:42:54-0500
_audit_creation_method            fapswitch 2.2
_symmetry_space_group_name_H-M    P1
_symmetry_Int_Tables_number       1
_space_group_crystal_system       triclinic
_cell_length_a                    15.056788
_cell_length_b                    10.926524
_cell_length_c                    9.762281
_cell_angle_alpha                 90.180374
_cell_angle_beta                  89.922056
_cell_angle_gamma                 90.600624
_cell_volume                      1605.976797

loop_
_atom_site_label
_atom_site_type_symbol
_atom_site_description
_atom_site_fract_x
_atom_site_fract_y
_atom_site_fract_z
_atom_type_partial_charge
O1    O     O_R   0.500020 0.321960 0.617040 -0.537270
O2    O     O_R   0.499980 0.321920 0.382900 -0.590314
C1    C     C_R   0.499136 0.265561 0.499916 0.840065
O3    O     O_R   0.370270 0.499990 0.617090 -0.539201
O4    O     O_R   0.370240 0.499950 0.382940 -0.561190
C2    C     C_R   0.329134 0.502575 0.500068 0.875331
Cu1   Cu    Cu3+1 0.500020 0.500020 0.638630 1.016708
Cu2   Cu    Cu3+1 0.499980 0.499980 0.361370 1.026636
O5    O     O_R   0.500020 0.678080 0.617100 -0.605734
O6    O     O_R   0.499980 0.678040 0.382960 -0.531672
O7    O     O_R   0.629760 0.500050 0.617060 -0.595828
O8    O     O_R   0.629730 0.500010 0.382910 -0.549008
C3    C     C_R   0.501586 0.734439 0.500250 0.912731
C4    C     C_R   0.670732 0.502242 0.499806 0.869802
C5    C     C_R   0.812023 0.601634 0.432413 0.266745
C6    C     C_R   0.767493 0.505299 0.499485 -0.178709
C7    C     C_R   0.814036 0.413445 0.568325 0.060927
C8    C     C_R   0.906353 0.428466 0.588298 0.099366
C9    C     C_R   0.952797 0.515486 0.505565 -0.069510
C10   C     C_R   0.905999 0.601906 0.424259 -0.002856
C11   C     C_R   0.954493 0.359510 0.686637 0.168322
C12   C     C_R   0.046998 0.360086 0.682146 -0.163910
C13   C     C_R   0.092896 0.434923 0.590619 0.066350
C14   C     C_R   0.046574 0.515558 0.504619 0.044578
C15   C     C_R   0.094412 0.596090 0.418295 -0.023044
C16   C     C_R   0.048181 0.680446 0.339158 -0.135864
C17   C     C_R   0.955469 0.684764 0.339612 0.134376
C18   C     C_R   0.185215 0.433092 0.588441 -0.224109
C19   C     C_R   0.232665 0.509775 0.500551 -0.174530
C20   C     C_R   0.188064 0.592194 0.414826 0.299485
H1    H     H_    0.083637 0.304590 0.754252 0.177217
H2    H     H_    0.220514 0.370088 0.653822 0.218417
H3    H     H_    0.084460 0.744838 0.275799 0.201374
C21   C     C_2   0.500335 0.932644 0.387715 -0.063309
C22   C     C_2   0.506657 0.866584 0.502679 -0.239302
H4    H     H_    0.493093 0.887593 0.288936 0.186796
H5    H     H_    0.517640 0.908017 0.602083 0.137701
C23   C     C_2   0.504283 0.066734 0.387650 -0.158301
C24   C     C_2   0.495102 0.133407 0.502079 -0.285841
H6    H     H_    0.513413 0.111261 0.289214 0.178789
H7    H     H_    0.482565 0.092419 0.601046 0.168799
C25   C     C_2   0.431808 0.471034 0.926984 0.475941
N1    N     N_2   0.499020 0.498660 0.846910 -0.201064
C26   C     C_2   0.429191 0.502642 0.077318 -0.110190
N2    N     N_2   0.499000 0.498630 0.153040 -0.308854
H8    H     H_    0.365646 0.520641 0.124742 0.235004
H9    H     H_    0.553493 0.456538 0.111452 0.212425
N3    N     N_R   0.760751 0.702232 0.383057 0.097900
O9    O     O_R   0.745170 0.794184 0.464254 -0.390233
O10   O     O_R   0.716920 0.692365 0.268674 -0.370510
N4    N     N_R   0.356760 0.404794 0.873372 0.121815
O11   O     O_R   0.369068 0.305276 0.802875 -0.360170
O12   O     O_R   0.277406 0.428275 0.918660 -0.376836
C27   C     C_3   0.568220 0.582887 0.895310 -0.547640
H10   H     H_    0.594844 0.637269 0.809254 0.247929
H11   H     H_    0.543154 0.651755 0.969470 0.193186
H12   H     H_    0.625376 0.531224 0.936132 0.180209
C28   C     C_3   0.766209 0.293626 0.599684 -0.796029
H13   H     H_    0.812739 0.215897 0.603981 0.246396
H14   H     H_    0.727831 0.300974 0.696421 0.240837
H15   H     H_    0.719321 0.269541 0.515810 0.213255
C29   C     C_3   0.911959 0.298946 0.809660 -0.832511
H16   H     H_    0.848012 0.342134 0.836788 0.244008
H17   H     H_    0.903043 0.199330 0.791249 0.237621
H18   H     H_    0.954883 0.310671 0.901397 0.240064
N5    N     N_R   0.237954 0.673811 0.328162 0.105840
O13   O     O_R   0.293525 0.752441 0.381493 -0.377183
O14   O     O_R   0.230522 0.666250 0.195633 -0.359373
C30   C     C_3   0.913877 0.774674 0.241884 -0.717878
H19   H     H_    0.869163 0.725583 0.169705 0.258550
H20   H     H_    0.878318 0.846914 0.299206 0.270345
H21   H     H_    0.964106 0.822835 0.177658 0.206138

loop_
_geom_bond_atom_site_label_1
_geom_bond_atom_site_label_2
_geom_bond_distance
_ccdc_geom_bond_type
C7    C8    1.411660 A    
C30   H21   1.111063 S    
N5    O14   1.301062 A    
C13   C14   1.409521 A    
C27   H11   1.111124 S    
C19   C20   1.407582 A    
C10   C17   1.430461 A    
Cu1   N1    2.033422 S    
O4    Cu2   1.964496 S    
C8    C11   1.425696 A    
C7    C28   1.519366 S    
N1    C27   1.460940 S    
C9    C10   1.427708 A    
C17   C30   1.512591 S    
C25   N4    1.434121 S    
Cu2   O8    1.965183 S    
C28   H15   1.111033 S    
N3    O10   1.301469 A    
O2    C1    1.299444 A    
C11   C29   1.511443 S    
C1    C24   1.444841 S    
Cu1   Cu2   2.706691 S    
C24   H7    1.081712 S    
O1    Cu1   1.956300 S    
C11   C12   1.393394 A    
C14   C15   1.411733 A    
Cu1   O7    1.964498 S    
C27   H10   1.103081 S    
C16   C17   1.397243 A    
C20   N5    1.436768 S    
C25   C26   1.507191 S    
C5    N3    1.434734 S    
O3    Cu1   1.965182 S    
O3    C2    1.300772 A    
N3    O9    1.300858 A    
C23   H6    1.086381 S    
C26   H8    1.081959 S    
C21   C23   1.465727 S    
C3    C22   1.445229 S    
C21   H4    1.086397 S    
C30   H19   1.108524 S    
N2    H9    1.027313 S    
O4    C2    1.299840 A    
O7    C4    1.299745 A    
C4    C6    1.456954 S    
C28   H13   1.107563 S    
C30   H20   1.108201 S    
C25   N1    1.311201 D    
N4    O12   1.301216 A    
C28   H14   1.109594 S    
C5    C6    1.405198 A    
C18   C19   1.392471 A    
C18   H2    1.084041 S    
C2    C19   1.455460 S    
N5    O13   1.301007 A    
C26   N2    1.287035 D    
Cu2   O6    1.956300 S    
C21   C22   1.340331 D    
C12   H1    1.085494 S    
C15   C20   1.411542 A    
Cu1   O5    1.957554 S    
O5    C3    1.298105 A    
Cu2   N2    2.033856 S    
C8    C9    1.426455 A    
C29   H17   1.109426 S    
C16   H3    1.081548 S    
C29   H18   1.111427 S    
C22   H5    1.081710 S    
C15   C16   1.396546 A    
C13   C18   1.390505 A    
C9    C14   1.411978 A    
O6    C3    1.298738 A    
C12   C13   1.391283 A    
O2    Cu2   1.957554 S    
C29   H16   1.108116 S    
N4    O11   1.299831 A    
C6    C7    1.403682 A    
O8    C4    1.298240 A    
C5    C10   1.417088 A    
O1    C1    1.297202 A    
C27   H12   1.109327 S    
C23   C24   1.339509 D    
