data_mof_unit_23452.cif
_audit_creation_date              2012-12-10T17:46:30-0500
_audit_creation_method            fapswitch 2.2
_symmetry_space_group_name_H-M    P1
_symmetry_Int_Tables_number       1
_space_group_crystal_system       monoclinic
_cell_length_a                    20.573022
_cell_length_b                    21.124009
_cell_length_c                    14.745549
_cell_angle_alpha                 90.0
_cell_angle_beta                  127.730461
_cell_angle_gamma                 90.0
_cell_volume                      5068.2266286

loop_
_atom_site_label
_atom_site_type_symbol
_atom_type_description
_atom_site_fract_x
_atom_site_fract_y
_atom_site_fract_z
_atom_type_partial_charge
C1    C     C_R   0.602690 0.912917 0.630505 0.836698
C2    C     C_R   0.398768 0.088048 0.371222 0.832550
C3    C     C_R   0.397310 0.912917 0.369494 0.836699
C4    C     C_R   0.601232 0.088048 0.628778 0.832549
C5    C     C_R   0.102689 0.412917 0.630505 0.836698
C6    C     C_R   0.898768 0.588048 0.371222 0.832549
C7    C     C_R   0.897310 0.412917 0.369495 0.836699
C8    C     C_R   0.101232 0.588048 0.628778 0.832548
C9    C     C_R   0.272168 0.812536 0.866903 -0.170169
C10   C     C_R   0.675681 0.217503 0.082295 -0.180758
C11   C     C_R   0.727836 0.812537 0.133100 -0.170169
C12   C     C_R   0.324317 0.217503 0.917704 -0.180758
C13   C     C_R   0.772164 0.312537 0.866901 -0.170169
C14   C     C_R   0.175671 0.717511 0.082284 -0.180758
C15   C     C_R   0.227837 0.312537 0.133100 -0.170169
C16   C     C_R   0.824321 0.717505 0.917708 -0.180760
C17   C     C_R   0.320274 0.999094 0.664851 0.158945
C18   C     C_R   0.679726 0.999094 0.335149 0.158944
C19   C     C_R   0.820274 0.499094 0.664851 0.158944
C20   C     C_R   0.179726 0.499093 0.335149 0.158946
C21   C     C_R   0.351225 0.999597 0.603067 0.138533
C22   C     C_R   0.648775 0.999596 0.396933 0.138533
C23   C     C_R   0.851225 0.499597 0.603067 0.138533
C24   C     C_R   0.148775 0.499596 0.396933 0.138534
C25   C     C_R   0.488029 0.000017 0.775009 0.001382
C26   C     C_R   0.511971 0.000018 0.224991 0.001382
C27   C     C_R   0.988029 0.500018 0.775009 0.001381
C28   C     C_R   0.011971 0.500018 0.224991 0.001381
C29   C     C_R   0.461144 0.999565 0.844364 -0.057224
C30   C     C_R   0.538856 0.999565 0.155636 -0.057223
C31   C     C_R   0.961144 0.499565 0.844364 -0.057224
C32   C     C_R   0.038856 0.499565 0.155636 -0.057224
C33   C     C_R   0.375031 0.999174 0.786126 0.072432
C34   C     C_R   0.624969 0.999173 0.213874 0.072433
C35   C     C_R   0.875031 0.499173 0.786126 0.072433
C36   C     C_R   0.124969 0.499173 0.213874 0.072433
C37   C     C_R   0.516096 0.999424 0.968308 0.106907
C38   C     C_R   0.483904 0.999424 0.031692 0.106907
C39   C     C_R   0.016096 0.499424 0.968308 0.106906
C40   C     C_R   0.983904 0.499424 0.031692 0.106906
C41   C     C_R   0.397847 0.999068 0.968936 -0.260047
C42   C     C_R   0.602153 0.999068 0.031064 -0.260047
C43   C     C_R   0.897847 0.499068 0.968936 -0.260046
C44   C     C_R   0.102153 0.499067 0.031064 -0.260044
C45   C     C_R   0.345107 0.998830 0.849696 -0.154962
C46   C     C_R   0.654893 0.998830 0.150304 -0.154963
C47   C     C_R   0.845107 0.498830 0.849696 -0.154962
C48   C     C_R   0.154893 0.498829 0.150304 -0.154961
C49   C     C_R   0.652263 0.143986 0.692092 -0.120932
C50   C     C_R   0.337437 0.862830 0.296346 -0.123155
C51   C     C_R   0.347737 0.143986 0.307908 -0.120931
C52   C     C_R   0.662562 0.862829 0.703652 -0.123155
C53   C     C_R   0.152264 0.643986 0.692092 -0.120933
C54   C     C_R   0.837439 0.362828 0.296349 -0.123154
C55   C     C_R   0.847737 0.643986 0.307908 -0.120933
C56   C     C_R   0.162561 0.362828 0.703651 -0.123154
C57   C     C_R   0.723605 0.240451 0.710539 -0.177326
C58   C     C_R   0.241315 0.779571 0.254379 -0.180097
C59   C     C_R   0.276396 0.240451 0.289461 -0.177325
C60   C     C_R   0.758679 0.779567 0.745614 -0.180097
C61   C     C_R   0.223610 0.740448 0.710543 -0.177326
C62   C     C_R   0.741323 0.279565 0.254388 -0.180096
C63   C     C_R   0.776395 0.740450 0.289461 -0.177326
C64   C     C_R   0.258675 0.279564 0.745610 -0.180096
C65   C     C_R   0.682646 0.185237 0.650177 0.273938
C66   C     C_R   0.295859 0.826831 0.327644 0.276939
C67   C     C_R   0.317354 0.185237 0.349823 0.273938
C68   C     C_R   0.704137 0.826828 0.672351 0.276938
C69   C     C_R   0.182651 0.685235 0.650181 0.273939
C70   C     C_R   0.795865 0.326827 0.327650 0.276938
C71   C     C_R   0.817353 0.685237 0.349822 0.273938
C72   C     C_R   0.204134 0.326826 0.672349 0.276938
C73   C     C_R   0.664401 0.159176 0.793682 -0.268946
C74   C     C_R   0.322522 0.850518 0.191839 -0.278480
C75   C     C_R   0.335599 0.159176 0.206318 -0.268946
C76   C     C_R   0.677478 0.850518 0.808160 -0.278481
C77   C     C_R   0.164398 0.659178 0.793679 -0.268946
C78   C     C_R   0.822522 0.350517 0.191841 -0.278479
C79   C     C_R   0.835600 0.659177 0.206319 -0.268947
C80   C     C_R   0.177478 0.350517 0.808159 -0.278479
C81   C     C_R   0.700365 0.216637 0.850757 0.096973
C82   C     C_R   0.267327 0.803273 0.116905 0.095673
C83   C     C_R   0.299635 0.216637 0.149242 0.096973
C84   C     C_R   0.732671 0.803272 0.883092 0.095673
C85   C     C_R   0.200363 0.716639 0.850755 0.096972
C86   C     C_R   0.767330 0.303271 0.116909 0.095674
C87   C     C_R   0.799636 0.716638 0.149244 0.096972
C88   C     C_R   0.232669 0.303270 0.883090 0.095674
C89   C     C_R   0.732346 0.256566 0.809569 0.092192
C90   C     C_R   0.227719 0.766917 0.150912 0.095644
C91   C     C_R   0.267654 0.256566 0.190431 0.092192
C92   C     C_R   0.772275 0.766913 0.849083 0.095644
C93   C     C_R   0.232349 0.756565 0.809570 0.092192
C94   C     C_R   0.727727 0.266911 0.150919 0.095643
C95   C     C_R   0.767654 0.756566 0.190431 0.092192
C96   C     C_R   0.272272 0.266911 0.849079 0.095643
C97   C     C_R   0.706348 0.234912 0.948420 0.083824
C98   C     C_R   0.253049 0.789484 0.011546 0.082536
C99   C     C_R   0.293651 0.234911 0.051579 0.083824
C100  C     C_R   0.746950 0.789483 0.988452 0.082536
C101  C     C_R   0.206344 0.734915 0.948416 0.083824
C102  C     C_R   0.753050 0.289482 0.011549 0.082536
C103  C     C_R   0.793653 0.734913 0.051581 0.083824
C104  C     C_R   0.246949 0.289482 0.988450 0.082536
C105  C     C_R   0.283118 0.828603 0.966610 -0.198313
C106  C     C_R   0.665522 0.201303 0.983336 -0.198209
C107  C     C_R   0.716885 0.828603 0.033391 -0.198314
C108  C     C_R   0.334477 0.201302 0.016663 -0.198209
C109  C     C_R   0.783116 0.328603 0.966610 -0.198313
C110  C     C_R   0.165513 0.701309 0.983327 -0.198209
C111  C     C_R   0.216885 0.328603 0.033390 -0.198313
C112  C     C_R   0.834480 0.701305 0.016666 -0.198210
Cu1   Cu    Cu3+1 0.526640 0.000000 0.436960 0.999973
Cu2   Cu    Cu3+1 0.473360 0.000000 0.563040 0.999973
Cu3   Cu    Cu3+1 0.026640 0.500000 0.436960 0.999973
Cu4   Cu    Cu3+1 0.973360 0.500000 0.563040 0.999973
H1    H     H_    0.357050 0.877300 0.172389 0.163885
H2    H     H_    0.645621 0.124731 0.827325 0.156540
H3    H     H_    0.642952 0.877302 0.827612 0.163884
H4    H     H_    0.354378 0.124731 0.172674 0.156540
H5    H     H_    0.857048 0.377302 0.172388 0.163884
H6    H     H_    0.145615 0.624735 0.827321 0.156543
H7    H     H_    0.142953 0.377302 0.827612 0.163883
H8    H     H_    0.854381 0.624732 0.172676 0.156541
H9    H     H_    0.313289 0.873215 0.004313 0.139075
H10   H     H_    0.623239 0.163088 0.934360 0.149044
H11   H     H_    0.686715 0.873217 0.995689 0.139075
H12   H     H_    0.376759 0.163087 0.065638 0.149044
H13   H     H_    0.813285 0.373216 0.004311 0.139074
H14   H     H_    0.123228 0.663096 0.934348 0.149045
H15   H     H_    0.186716 0.373216 0.995689 0.139074
H16   H     H_    0.876763 0.663090 0.065643 0.149044
H17   H     H_    0.279841 0.998405 0.807771 0.197960
H18   H     H_    0.720159 0.998405 0.192229 0.197960
H19   H     H_    0.779841 0.498405 0.807770 0.197960
H20   H     H_    0.220159 0.498403 0.192229 0.197959
H21   H     H_    0.447864 0.000403 0.187977 0.124953
H22   H     H_    0.552136 0.000402 0.812023 0.124953
H23   H     H_    0.947864 0.500403 0.187977 0.124953
H24   H     H_    0.052136 0.500402 0.812023 0.124953
H25   H     H_    0.690546 0.999523 0.489684 0.173128
H26   H     H_    0.309454 0.999523 0.510316 0.173128
H27   H     H_    0.190546 0.499522 0.489684 0.173128
H28   H     H_    0.809454 0.499523 0.510316 0.173128
N1    N     N_R   0.433280 0.000000 0.657760 -0.195702
N2    N     N_R   0.566720 0.000000 0.342240 -0.195702
N3    N     N_R   0.933280 0.500000 0.657760 -0.195702
N4    N     N_R   0.066720 0.500000 0.342240 -0.195703
O1    O     O_R   0.600040 0.935040 0.546740 -0.547827
O2    O     O_R   0.399960 0.064960 0.453260 -0.548506
O3    O     O_R   0.399960 0.935040 0.453260 -0.547827
O4    O     O_R   0.600040 0.064960 0.546740 -0.548506
O5    O     O_R   0.100040 0.435040 0.546740 -0.547828
O6    O     O_R   0.899960 0.564960 0.453260 -0.548505
O7    O     O_R   0.899960 0.435040 0.453260 -0.547828
O8    O     O_R   0.100040 0.564960 0.546740 -0.548505
O9    O     O_R   0.555010 0.935070 0.653220 -0.587898
O10   O     O_R   0.444990 0.064930 0.346780 -0.587463
O11   O     O_R   0.444990 0.935070 0.346780 -0.587899
O12   O     O_R   0.555010 0.064930 0.653220 -0.587462
O13   O     O_R   0.055010 0.435070 0.653220 -0.587898
O14   O     O_R   0.944990 0.564930 0.346780 -0.587464
O15   O     O_R   0.944990 0.435070 0.346780 -0.587898
O16   O     O_R   0.055010 0.564930 0.653220 -0.587464
H29   H     H_    0.295726 0.843996 0.835016 0.164458
H30   H     H_    0.643762 0.190220 0.106446 0.158511
H31   H     H_    0.704281 0.843999 0.164989 0.164459
H32   H     H_    0.356236 0.190219 0.893552 0.158511
H33   H     H_    0.795718 0.343999 0.835011 0.164459
H34   H     H_    0.143748 0.690229 0.106432 0.158508
H35   H     H_    0.204283 0.344000 0.164990 0.164459
H36   H     H_    0.856241 0.690222 0.893557 0.158510
H37   H     H_    0.368713 0.998756 0.009615 0.131660
H38   H     H_    0.631286 0.998756 0.990385 0.131660
H39   H     H_    0.868713 0.498756 0.009614 0.131660
H40   H     H_    0.131287 0.498755 0.990385 0.131660
Br1   Br    Br    0.312655 0.835628 0.470568 -0.450198
Br2   Br    Br    0.668520 0.171991 0.509973 -0.451279
Br3   Br    Br    0.687338 0.835624 0.529426 -0.450198
Br4   Br    Br    0.331481 0.171992 0.490028 -0.451279
Br5   Br    Br    0.812664 0.335623 0.470575 -0.450198
Br6   Br    Br    0.168530 0.671987 0.509981 -0.451278
Br7   Br    Br    0.187335 0.335622 0.529423 -0.450198
Br8   Br    Br    0.831478 0.671991 0.490026 -0.451280
H41   H     H_    0.247233 0.771646 0.678450 0.192890
H42   H     H_    0.710672 0.251561 0.279752 0.188747
H43   H     H_    0.752774 0.771649 0.321555 0.192891
H44   H     H_    0.289326 0.251560 0.720246 0.188747
H45   H     H_    0.747224 0.271650 0.678444 0.192891
H46   H     H_    0.210660 0.751569 0.279740 0.188745
H47   H     H_    0.252777 0.271650 0.321557 0.192891
H48   H     H_    0.789331 0.751563 0.720251 0.188746
Br9   Br    Br    0.202747 0.998092 0.577783 -0.448496
Br10  Br    Br    0.797253 0.998090 0.422217 -0.448498
Br11  Br    Br    0.702747 0.498091 0.577783 -0.448497
Br12  Br    Br    0.297253 0.498089 0.422217 -0.448496

loop_
_geom_bond_atom_site_label_1
_geom_bond_atom_site_label_2
_ccdc_geom_bond_type
C2    O2    A    
C11   H31   S    
C88   C96   A    
C19   Br11  S    
C29   C33   A    
Cu3   O8    S    
C18   Br10  S    
C33   C45   A    
C5    C56   S    
C59   H47   S    
C6    C55   S    
C14   H34   S    
C26   H21   S    
C53   C69   A    
C76   C84   A    
C79   C87   A    
C47   H19   S    
C99   C108  A    
C15   C111  A    
C62   C70   A    
C98   C105  A    
C57   C89   A    
C32   C36   A    
C51   C75   A    
C21   H26   S    
C67   Br4   S    
C50   C74   A    
C61   C93   A    
C65   Br2   S    
C10   C94   A    
C24   H27   S    
C9    C105  A    
Cu3   Cu4   S    
C63   C95   A    
C24   N4    A    
C30   C38   A    
C42   C46   A    
C37   C42   A    
C26   N2    A    
C78   H5    S    
C14   C90   A    
Cu4   O7    S    
C13   C109  A    
C77   H6    S    
C86   C94   A    
C59   C67   A    
C85   C93   A    
C58   C66   A    
C40   C43   A    
C22   N2    A    
C56   C72   A    
C87   C95   A    
C58   H46   S    
C1    O1    A    
C34   C46   A    
Cu1   O10   S    
C110  H14   S    
Cu4   O6    S    
C97   C102  A    
C52   C68   A    
C10   H30   S    
C69   Br6   S    
C62   H42   S    
C81   C89   A    
C78   C86   A    
C13   H33   S    
C99   C104  A    
C35   C47   A    
C83   C99   A    
Cu3   O5    S    
C3    O11   A    
C82   C98   A    
Cu1   O4    S    
C17   Br9   S    
C28   H23   S    
C17   C33   A    
Cu2   O3    S    
C74   C82   A    
C73   C81   A    
C88   C104  A    
C3    C50   S    
C48   H20   S    
C60   C92   A    
C25   C29   A    
C4    O4    A    
C66   Br1   S    
C28   N4    A    
C76   H3    S    
C30   C34   A    
C27   C31   A    
C84   C100  A    
C20   C24   A    
Cu4   O13   S    
C28   C32   A    
Cu2   N1    S    
C38   C41   A    
C42   H38   S    
C39   C40   A    
C12   C108  A    
C51   C67   A    
C101  C110  A    
C7    O15   A    
Cu3   N4    S    
C100  C103  A    
C108  H12   S    
C103  C112  A    
C112  H16   S    
C5    O13   A    
Cu1   N2    S    
C19   C23   A    
Cu2   O9    S    
C57   H45   S    
C37   C38   A    
Cu1   O1    S    
C46   H18   S    
C55   C79   A    
C16   H36   S    
C70   Br5   S    
C54   C70   A    
C60   H48   S    
C61   H41   S    
C15   H35   S    
C59   C91   A    
Cu1   O11   S    
C18   C34   A    
Cu2   O12   S    
C64   H44   S    
C49   C65   A    
C58   C90   A    
C87   C103  A    
C97   C106  A    
C111  H15   S    
C63   C71   A    
C26   C30   A    
C63   H43   S    
C62   C94   A    
C8    O16   A    
C53   C77   A    
C49   C73   A    
C23   H28   S    
C10   C106  A    
Cu4   N3    S    
Cu2   O2    S    
C43   H39   S    
C86   C102  A    
C9    C93   A    
C32   C40   A    
C85   C101  A    
C16   C112  A    
Cu1   Cu2   S    
C11   C95   A    
C14   C110  A    
C74   H1    S    
C41   H37   S    
C100  C107  A    
C73   H2    S    
C13   C89   A    
C18   C22   A    
C3    O3    A    
C71   Br8   S    
Cu4   O16   S    
C6    O14   A    
C75   H4    S    
C44   H40   S    
C72   Br7   S    
C57   C65   A    
C52   C76   A    
C82   C90   A    
C8    C53   S    
C12   H32   S    
C104  C111  A    
C50   C66   A    
C16   C92   A    
C39   C44   A    
C98   C101  A    
C83   C91   A    
C79   H8    S    
C106  H10   S    
C68   Br3   S    
C45   H17   S    
C27   H24   S    
C56   C80   A    
C105  H9    S    
C4    C49   S    
C61   C69   A    
Cu3   O14   S    
C1    O9    A    
C25   H22   S    
C107  H11   S    
C80   C88   A    
C19   C35   A    
C11   C107  A    
C6    O6    A    
C75   C83   A    
C4    O12   A    
C23   N3    A    
C77   C85   A    
C5    O5    A    
C22   H25   S    
C9    H29   S    
C81   C97   A    
C31   C39   A    
C36   C48   A    
C64   C96   A    
C31   C35   A    
C64   C72   A    
Cu3   O15   S    
C8    O8    A    
C1    C52   S    
C17   C21   A    
C2    C51   S    
C15   C91   A    
C20   C36   A    
C7    O7    A    
C2    O10   A    
C60   C68   A    
C27   N3    A    
C29   C37   A    
C41   C45   A    
C12   C96   A    
C102  C109  A    
C25   N1    A    
C84   C92   A    
C7    C54   S    
C109  H13   S    
C43   C47   A    
C20   Br12  S    
C55   C71   A    
C44   C48   A    
C21   N1    A    
C54   C78   A    
C80   H7    S    
