data_mof_unit_41771.cif
_audit_creation_date              2012-12-11T14:17:43-0500
_audit_creation_method            fapswitch 2.2
_symmetry_space_group_name_H-M    P1
_symmetry_Int_Tables_number       1
_space_group_crystal_system       triclinic
_cell_length_a                    6.957976
_cell_length_b                    13.632844
_cell_length_c                    20.423469
_cell_angle_alpha                 102.510927
_cell_angle_beta                  90.811721
_cell_angle_gamma                 90.584356
_cell_volume                      1890.94258137

loop_
_atom_site_label
_atom_site_type_symbol
_atom_type_description
_atom_site_fract_x
_atom_site_fract_y
_atom_site_fract_z
_atom_type_partial_charge
O1    O     O_R   0.506860 0.599390 0.449240 -0.539274
O2    O     O_R   0.180220 0.594600 0.586780 -0.538123
O3    O     O_R   0.004500 0.400610 0.550760 -0.541390
C1    C     C_R   0.350948 0.616511 0.613209 0.749829
O4    O     O_R   0.177490 0.611290 0.451970 -0.541044
O5    O     O_R   0.001750 0.417420 0.414990 -0.538813
C2    C     C_R   0.345868 0.637484 0.434911 0.695782
O6    O     O_R   0.509610 0.582580 0.585010 -0.540326
O7    O     O_3   0.337420 0.436370 0.488020 -0.374360
V1    V     V_3+5 0.064680 0.511800 0.502220 1.418165
O8    O     O_R   0.671710 0.405400 0.413220 -0.547125
C3    C     C_R   0.838948 0.383931 0.386559 0.741358
O9    O     O_R   0.674440 0.388710 0.548030 -0.542641
C4    C     C_R   0.843250 0.362639 0.564789 0.696146
V2    V     V_3+5 0.564010 0.488200 0.497780 1.411488
O10   O     O_3   0.841140 0.563630 0.511980 -0.370673
C5    C     C_R   0.847803 0.105173 0.600017 -0.158415
H1    H     H_    0.858730 0.164671 0.511184 0.102259
H2    H     H_    0.847848 0.974349 0.673306 0.118212
H3    H     H_    0.855756 0.028230 0.571828 0.113448
C6    C     C_R   0.850246 0.281959 0.600935 -0.026836
C7    C     C_R   0.839275 0.300635 0.916508 -0.187834
C8    C     C_R   0.770868 0.370289 0.882038 -0.151342
C9    C     C_R   0.725586 0.341455 0.813725 0.093871
C10   C     C_R   0.791831 0.246961 0.776940 0.038547
C11   C     C_R   0.831161 0.169233 0.812594 -0.006102
C12   C     C_R   0.817243 0.227100 0.706325 0.073558
C13   C     C_R   0.833753 0.127093 0.670253 0.111615
C14   C     C_R   0.838853 0.049276 0.703940 -0.197685
C15   C     C_R   0.842893 0.066859 0.774458 0.019809
C16   C     C_R   0.840007 0.304358 0.670819 -0.246023
C17   C     C_R   0.852165 0.182396 0.565444 -0.165746
C18   C     C_R   0.854435 0.199509 0.884377 -0.078059
H4    H     H_    0.850249 0.382391 0.696773 0.105554
H5    H     H_    0.860615 0.323853 0.970377 0.112260
H6    H     H_    0.737370 0.444921 0.910056 0.118015
C19   C     C_2   0.004698 0.288664 0.286083 -0.131103
C20   C     C_2   0.840941 0.315238 0.319734 -0.311480
H7    H     H_    0.141358 0.317649 0.309044 0.134633
H8    H     H_    0.702617 0.286580 0.298702 0.125413
C21   C     C_2   0.014760 0.220332 0.218498 -0.138085
C22   C     C_2   0.860318 0.183731 0.180203 -0.307269
H9    H     H_    0.157551 0.200416 0.199665 0.131087
H10   H     H_    0.716466 0.203065 0.197539 0.127434
C23   C     C_2   0.349829 0.848019 0.762963 -0.133876
C24   C     C_2   0.348100 0.814688 0.820370 -0.346517
H11   H     H_    0.360536 0.928698 0.766782 0.125468
H12   H     H_    0.328745 0.735559 0.819845 0.115263
C25   C     C_2   0.328143 0.782217 0.693962 0.189915
C26   C     C_2   0.367609 0.682761 0.680947 -0.281104
H13   H     H_    0.429383 0.649614 0.719972 0.091469
C27   C     C_R   0.345606 0.888860 0.387927 -0.158343
H14   H     H_    0.339850 0.838711 0.480384 0.107378
H15   H     H_    0.344497 0.014461 0.305470 0.122823
H16   H     H_    0.340641 0.967322 0.413297 0.114039
C28   C     C_R   0.352976 0.714442 0.394940 -0.030347
C29   C     C_R   0.363947 0.684549 0.070894 -0.168422
C30   C     C_R   0.363199 0.608229 0.106231 -0.120281
C31   C     C_R   0.360029 0.630897 0.176103 -0.155642
C32   C     C_R   0.357072 0.731796 0.212805 0.076965
C33   C     C_R   0.355742 0.809790 0.176089 0.067239
C34   C     C_R   0.355444 0.757900 0.284548 0.072249
C35   C     C_R   0.350073 0.861012 0.317626 0.141383
C36   C     C_R   0.348391 0.935777 0.280494 -0.202907
C37   C     C_R   0.351666 0.910804 0.210942 -0.195185
C38   C     C_R   0.358326 0.685470 0.324902 -0.213663
C39   C     C_R   0.345786 0.815962 0.426269 -0.176686
C40   C     C_R   0.359822 0.785043 0.104998 -0.073302
H17   H     H_    0.362615 0.605954 0.303751 0.093199
H18   H     H_    0.368119 0.665194 0.016588 0.098232
H19   H     H_    0.359908 0.567520 0.199680 0.106536
H20   H     H_    0.365922 0.530595 0.079226 0.115850
H21   H     H_    0.350498 0.971768 0.184658 0.117948
O11   O     O_R   0.203230 0.917310 0.915020 -0.545394
O12   O     O_R   0.535500 0.888690 0.048040 -0.539170
O13   O     O_R   0.711080 0.082610 0.085000 -0.541211
C41   C     C_R   0.367171 0.862671 0.065244 0.690154
O14   O     O_R   0.532630 0.905370 0.913230 -0.546506
O15   O     O_R   0.708190 0.099410 0.949230 -0.542458
C42   C     C_R   0.362491 0.885059 0.886287 0.732954
O16   O     O_R   0.206120 0.900510 0.050790 -0.537864
O17   O     O_3   0.375360 0.063570 0.011990 -0.371486
V3    V     V_3+5 0.648170 0.988200 0.997780 1.403810
O18   O     O_R   0.038240 0.111390 0.951940 -0.544681
C43   C     C_R   0.869462 0.129732 0.929473 0.680863
O19   O     O_R   0.041120 0.094710 0.086750 -0.540916
C44   C     C_R   0.873401 0.115785 0.113475 0.755084
V4    V     V_3+5 0.148810 0.011930 0.002180 1.402384
O20   O     O_3   0.871750 0.936430 0.988010 -0.371810
C45   C     C_3   0.273329 0.832059 0.637228 -0.816825
H22   H     H_    0.250233 0.913853 0.655509 0.205501
H23   H     H_    0.389954 0.822408 0.599913 0.194791
H24   H     H_    0.138015 0.798188 0.612408 0.209779
C46   C     C_3   0.580518 0.404970 0.785266 -0.399004
C47   C     C_3   0.389117 0.411905 0.822836 -0.278012
C48   C     C_3   0.237697 0.467002 0.790198 -0.784563
H25   H     H_    0.286346 0.545234 0.791772 0.217581
H26   H     H_    0.210354 0.427656 0.737254 0.231508
H27   H     H_    0.101032 0.469383 0.817868 0.223231
H28   H     H_    0.333934 0.334946 0.822590 0.208047
H29   H     H_    0.410406 0.452670 0.875795 0.186986
H30   H     H_    0.641892 0.481528 0.788474 0.164980
H31   H     H_    0.543755 0.371436 0.732146 0.193209
C49   C     C_3   0.854243 0.976084 0.807058 -0.348555
C50   C     C_3   0.849865 0.870937 0.759807 -0.330295
C51   C     C_3   0.854541 0.785688 0.797584 -0.708740
H32   H     H_    0.876941 0.713175 0.761585 0.204484
H33   H     H_    0.971435 0.797209 0.835695 0.240063
H34   H     H_    0.717991 0.780261 0.823398 0.233026
H35   H     H_    0.718746 0.861207 0.727476 0.205990
H36   H     H_    0.975969 0.863365 0.727063 0.215670
H37   H     H_    0.989449 0.982642 0.836783 0.188336
H38   H     H_    0.728817 0.978785 0.839600 0.200645

loop_
_geom_bond_atom_site_label_1
_geom_bond_atom_site_label_2
_ccdc_geom_bond_type
C24   C42   S    
C50   H35   S    
C21   C22   D    
C47   C48   S    
C25   C45   S    
C1    O6    A    
C30   H20   S    
C45   H22   S    
C23   C24   D    
C7    H5    S    
C6    C16   A    
C34   C35   A    
C51   H33   S    
C4    C6    S    
C13   C14   A    
C20   H8    S    
C19   C20   D    
O5    C3    A    
O14   C42   A    
C38   H17   S    
C51   H32   S    
V2    O10   S    
C8    H6    S    
C48   H27   S    
C5    H3    S    
C37   H21   S    
C32   C34   A    
C25   C26   D    
C18   C43   S    
O1    C2    A    
O8    V2    S    
O14   V3    S    
C48   H26   S    
C8    C9    A    
O1    V2    S    
C23   C25   S    
C29   H18   S    
O7    V1    S    
O17   V4    S    
C27   H16   S    
C50   H36   S    
C31   C32   A    
O11   C42   A    
O9    C4    A    
C3    C20   S    
C21   H9    S    
C22   H10   S    
C2    C28   S    
O13   V3    S    
C49   C50   S    
C23   H11   S    
V3    O20   S    
C6    C17   A    
C24   H12   S    
C34   C38   A    
C12   C16   A    
C9    C10   A    
C49   H37   S    
O19   C44   A    
C30   C31   A    
C35   C36   A    
C1    C26   S    
C32   C33   A    
O2    C1    A    
C14   C15   A    
C9    C46   S    
C11   C18   A    
C45   H23   S    
C41   O16   A    
C48   H25   S    
C26   H13   S    
C16   H4    S    
O18   C43   A    
O12   C41   A    
O13   C44   A    
O3    C4    A    
C46   H31   S    
C11   C15   A    
O6    V2    S    
O9    V2    S    
H1    C17   S    
C29   C40   A    
O2    V1    S    
O15   C43   A    
C45   H24   S    
O4    C2    A    
C40   C41   S    
C7    C18   A    
C47   H28   S    
C5    C13   A    
O18   V4    S    
C27   C39   A    
C27   C35   A    
O5    V1    S    
O8    C3    A    
C10   C12   A    
C28   C39   A    
C50   C51   S    
C36   C37   A    
C10   C11   A    
O4    V1    S    
C19   H7    S    
O3    V1    S    
V1    O10   S    
O15   V3    S    
C33   C40   A    
O12   V3    S    
C29   C30   A    
H15   C36   S    
C28   C38   A    
O19   V4    S    
C19   C21   S    
C46   C47   S    
H14   C39   S    
O16   V4    S    
C49   H38   S    
C33   C37   A    
V4    O20   S    
C46   H30   S    
O17   V3    S    
C15   C49   S    
C12   C13   A    
C5    C17   A    
C7    C8    A    
C22   C44   S    
O11   V4    S    
C47   H29   S    
O7    V2    S    
C31   H19   S    
C51   H34   S    
H2    C14   S    
