data_mof_unit_62551.cif
_audit_creation_date              2012-12-11T15:03:00-0500
_audit_creation_method            fapswitch 2.2
_symmetry_space_group_name_H-M    P1
_symmetry_Int_Tables_number       1
_space_group_crystal_system       triclinic
_cell_length_a                    13.266959
_cell_length_b                    13.26983
_cell_length_c                    26.779998
_cell_angle_alpha                 96.626978
_cell_angle_beta                  96.836762
_cell_angle_gamma                 61.216051
_cell_volume                      4093.56292694

loop_
_atom_site_label
_atom_site_type_symbol
_atom_type_description
_atom_site_fract_x
_atom_site_fract_y
_atom_site_fract_z
_atom_type_partial_charge
Br1   Br    Br    0.204778 0.605265 0.798824 -0.503379
Br2   Br    Br    0.161382 0.223035 0.758348 -0.530859
C1    C     C_R   0.378976 0.723121 0.434902 0.545745
C2    C     C_3   0.846330 0.311516 0.197829 0.050423
C3    C     C_3   0.861616 0.400094 0.269085 -0.096787
C4    C     C_R   0.394703 0.373213 0.417904 0.542701
C5    C     C_3   0.823043 0.327944 0.294583 0.050038
C6    C     C_3   0.764193 0.422119 0.226972 -0.102170
C7    C     C_3   0.725105 0.350182 0.253258 -0.100483
C8    C     C_1   0.865675 0.302782 0.144953 -0.054787
C9    C     C_1   0.803185 0.343421 0.347698 -0.055372
C10   C     C_3   0.375502 0.903284 0.271474 -0.098121
C11   C     C_3   0.447870 0.806606 0.232408 -0.100826
C12   C     C_1   0.330903 0.340157 0.268233 -0.014376
C13   C     C_1   0.306513 0.887193 0.101149 -0.008667
C14   C     C_1   0.362284 0.772251 0.388264 -0.010039
C15   C     C_3   0.266166 0.937382 0.234952 -0.099494
C16   C     C_R   0.724729 0.399088 0.437111 0.546205
C17   C     C_3   0.338698 0.840260 0.196827 0.049777
C18   C     C_3   0.239277 0.851843 0.257767 -0.099467
C19   C     C_3   0.348300 0.818147 0.293433 0.049869
C20   C     C_3   0.311546 0.755202 0.218875 -0.097465
C21   C     C_3   0.420916 0.720989 0.255349 -0.100582
C22   C     C_1   0.326322 0.859451 0.143660 -0.054484
C23   C     C_1   0.344514 0.347577 0.321163 -0.049368
C24   C     C_1   0.354023 0.799390 0.346262 -0.055014
C25   C     C_3   0.368346 0.235648 0.723681 -0.093609
C26   C     C_3   0.426287 0.281331 0.767474 -0.156056
C27   C     C_1   0.296605 0.309807 0.887747 0.031533
C28   C     C_R   0.381395 0.724653 0.575456 0.544339
C29   C     C_1   0.361581 0.359403 0.603534 0.001844
C30   C     C_3   0.255186 0.294969 0.750579 0.170151
C31   C     C_3   0.312935 0.340136 0.793804 0.057846
C32   C     C_3   0.213206 0.406393 0.723279 -0.055195
C33   C     C_3   0.327077 0.347228 0.697342 -0.008307
C34   C     C_1   0.362713 0.356439 0.366059 -0.008188
C35   C     C_3   0.272168 0.450576 0.767058 0.174510
C36   C     C_3   0.385582 0.393012 0.740281 -0.098307
C37   C     C_1   0.305232 0.329023 0.846331 0.028335
C38   C     C_1   0.341480 0.351740 0.644920 -0.035134
C39   C     C_1   0.888911 0.294537 0.864776 0.016953
C40   C     C_R   0.395453 0.375826 0.558096 0.544234
C41   C     C_1   0.861269 0.306270 0.820440 -0.004502
C42   C     C_1   0.838297 0.320174 0.768135 0.042177
C43   C     C_1   0.821288 0.333559 0.723571 0.034790
C44   C     C_1   0.798741 0.352493 0.671678 -0.021186
C45   C     C_3   0.905265 0.217197 0.265526 -0.102215
C46   C     C_1   0.771595 0.372898 0.627957 0.002173
C47   C     C_1   0.293216 0.894013 0.863106 0.032015
C48   C     C_1   0.312725 0.866592 0.819415 0.014644
C49   C     C_1   0.330182 0.843254 0.767497 0.050916
C50   C     C_1   0.342284 0.825387 0.722904 0.033275
C51   C     C_1   0.354932 0.801437 0.670628 -0.023517
C52   C     C_R   0.724224 0.403575 0.577630 0.544341
C53   C     C_1   0.366089 0.773079 0.626400 0.002619
C54   C     C_R   0.941718 0.278296 0.056514 0.543288
C55   C     C_R   0.288030 0.271390 0.073256 0.541805
C56   C     C_3   0.807791 0.239178 0.223220 -0.097297
C57   C     C_R   0.270885 0.937119 0.053841 0.545459
C58   C     C_R   0.936814 0.279416 0.915942 0.548034
C59   C     C_R   0.281757 0.274352 0.933123 0.549494
C60   C     C_R   0.262716 0.941070 0.913310 0.552784
C61   C     C_1   0.305110 0.302875 0.125111 -0.007230
C62   C     C_1   0.314543 0.320385 0.170014 -0.049063
C63   C     C_1   0.322880 0.333007 0.222947 -0.014391
C64   C     C_1   0.892975 0.293613 0.102986 -0.009743
C65   C     C_1   0.774966 0.364384 0.390050 -0.010328
C66   C     C_3   0.944265 0.289219 0.239166 -0.099803
Cr1   Cr    Cr6+3 0.585520 0.589730 0.508860 1.041020
Cr2   Cr    Cr6+3 0.329140 0.580910 0.495080 1.041801
Cr3   Cr    Cr6+3 0.585350 0.329380 0.496090 1.039604
Cr4   Cr    Cr6+3 0.077110 0.074680 0.982320 1.054898
Cr5   Cr    Cr6+3 0.079190 0.334150 0.996330 1.052515
Cr6   Cr    Cr6+3 0.334370 0.081620 0.994860 1.042841
H1    H     H_    0.785237 0.173605 0.203516 0.113438
H2    H     H_    0.634704 0.375408 0.259958 0.109854
H3    H     H_    0.706001 0.505894 0.210459 0.106224
H4    H     H_    0.884199 0.465732 0.288701 0.113400
H5    H     H_    0.034660 0.264066 0.232488 0.107932
H6    H     H_    0.533491 0.787421 0.221112 0.108324
H7    H     H_    0.401141 0.964223 0.293805 0.114121
H8    H     H_    0.484839 0.631778 0.264634 0.106243
H9    H     H_    0.285859 0.694232 0.196602 0.114100
H10   H     H_    0.153553 0.871078 0.268966 0.108027
H11   H     H_    0.202182 0.026600 0.225708 0.105930
H12   H     H_    0.513494 0.230718 0.786197 0.130037
H13   H     H_    0.406890 0.147246 0.705142 0.143519
H14   H     H_    0.439210 0.434044 0.735282 0.138458
H15   H     H_    0.125925 0.457003 0.704625 0.151665
H16   H     H_    0.963443 0.133517 0.282109 0.105954
O1    O     O_R   0.700650 0.499560 0.456090 -0.504619
O2    O     O_R   0.362310 0.174000 0.055490 -0.506016
O3    O     O_R   0.326800 0.983030 0.039600 -0.495812
O4    O     O_R   0.479220 0.682850 0.457510 -0.493963
O5    O     O_R   0.165220 0.960770 0.926060 -0.487521
O6    O     O_R   0.978660 0.179890 0.932950 -0.491847
O7    O     O_R   0.960490 0.356500 0.937600 -0.496334
O8    O     O_R   0.182720 0.328380 0.950570 -0.484144
O9    O     O_R   0.356860 0.175610 0.946640 -0.506733
O10   O     O_R   0.321740 0.984530 0.938700 -0.496217
O11   O     O_3   0.163560 0.163490 0.991170 -0.259366
O12   O     O_R   0.338920 0.475010 0.540740 -0.492794
O13   O     O_R   0.304230 0.696360 0.445090 -0.505163
O14   O     O_R   0.337790 0.472640 0.439840 -0.494241
O15   O     O_R   0.493310 0.300190 0.435520 -0.505410
O16   O     O_R   0.681220 0.340950 0.451270 -0.494063
O17   O     O_R   0.701870 0.502110 0.564940 -0.501518
O18   O     O_R   0.480360 0.685220 0.558410 -0.494759
O19   O     O_R   0.305450 0.698920 0.553940 -0.499344
O20   O     O_R   0.494530 0.302750 0.544370 -0.504861
O21   O     O_R   0.682350 0.343320 0.552170 -0.493363
O22   O     O_3   0.500010 0.500010 0.500010 -0.257442
O23   O     O_R   0.170670 0.959150 0.034900 -0.503198
O24   O     O_R   0.983710 0.178390 0.033850 -0.495840
O25   O     O_R   0.965940 0.354890 0.046440 -0.506467
O26   O     O_R   0.187770 0.326880 0.051460 -0.495381

loop_
_geom_bond_atom_site_label_1
_geom_bond_atom_site_label_2
_ccdc_geom_bond_type
C19   C24   S    
C21   H8    S    
C32   C35   S    
C51   C53   T    
C59   O8    A    
C2    C6    S    
Cr1   O17   S    
C43   C44   S    
C42   C43   T    
C46   C52   S    
C31   C37   S    
Cr5   O26   S    
C52   O17   A    
C15   H11   S    
C16   O1    A    
C33   C36   S    
C55   O2    A    
C7    C56   S    
Cr1   O22   S    
Cr2   O14   S    
Cr4   O11   S    
Cr3   O20   S    
Cr4   O24   S    
C15   C18   S    
C29   C38   T    
C11   C21   S    
Br2   C30   S    
C32   C33   S    
Cr6   O2    S    
C58   O7    A    
Cr4   O5    S    
C12   C63   T    
C6    C7    S    
Cr3   O21   S    
C10   C15   S    
C52   O21   A    
Cr3   O15   S    
C7    H2    S    
C4    O14   A    
Br1   C35   S    
C66   H5    S    
Cr5   O11   S    
C11   H6    S    
C60   O5    A    
C39   C41   T    
Cr6   O3    S    
C59   O9    A    
C3    C66   S    
C40   O12   A    
Cr1   O18   S    
C9    C65   T    
C56   H1    S    
C55   C61   S    
C55   O26   A    
C44   C46   T    
C8    C64   T    
C14   C24   T    
Cr5   O8    S    
C27   C59   S    
C4    O15   A    
C11   C17   S    
C28   O19   A    
C49   C50   T    
C17   C20   S    
Cr1   O4    S    
C3    C5    S    
Cr2   O13   S    
Cr6   O10   S    
C25   C33   S    
C16   C65   S    
Cr4   O23   S    
C31   C35   S    
C36   H14   S    
C30   C32   S    
C5    C9    S    
C41   C42   S    
C16   O16   A    
C35   C36   S    
Cr2   O19   S    
C26   C36   S    
C57   O23   A    
Cr3   O22   S    
C27   C37   T    
C48   C49   S    
C10   C11   S    
C25   H13   S    
Cr2   O22   S    
Cr6   O11   S    
C60   O10   A    
C58   O6    A    
C13   C22   T    
C18   C20   S    
C26   C31   S    
Cr5   O7    S    
C19   C21   S    
C26   H12   S    
C6    H3    S    
C45   H16   S    
C2    C8    S    
C45   C66   S    
C50   C51   S    
C2    C66   S    
C1    O13   A    
C5    C7    S    
C47   C60   S    
C28   O18   A    
C25   C30   S    
C13   C57   S    
C39   C58   S    
C3    C6    S    
Cr2   O12   S    
Cr6   O9    S    
C28   C53   S    
Cr5   O25   S    
C30   C31   S    
C18   H10   S    
C17   C22   S    
C40   O20   A    
C32   H15   S    
C62   C63   S    
C20   H9    S    
C29   C40   S    
C54   C64   S    
C10   C19   S    
C15   C17   S    
C54   O25   A    
C4    C34   S    
C10   H7    S    
C33   C38   S    
C1    O4    A    
C12   C23   S    
C23   C34   T    
C61   C62   T    
Cr4   O6    S    
C18   C19   S    
C47   C48   T    
Cr3   O16   S    
C2    C56   S    
C25   C26   S    
C54   O24   A    
C20   C21   S    
C57   O3    A    
C3    H4    S    
Cr1   O1    S    
C1    C14   S    
C5    C45   S    
C45   C56   S    
