data_mof_unit_58472.cif
_audit_creation_date              2013-03-05T15:40:16-0500
_audit_creation_method            fapswitch 2.2
_symmetry_space_group_name_H-M    P1
_symmetry_Int_Tables_number       1
_space_group_crystal_system       triclinic
_cell_length_a                    30.061555
_cell_length_b                    17.440747
_cell_length_c                    19.201964
_cell_angle_alpha                 89.905673
_cell_angle_beta                  140.350295
_cell_angle_gamma                 90.068417
_cell_volume                      6423.99223539

loop_
_atom_site_label
_atom_site_type_symbol
_atom_site_description
_atom_site_fract_x
_atom_site_fract_y
_atom_site_fract_z
_atom_type_partial_charge
C1    C     C_R   0.176756 0.416201 0.812687 -0.166717
C2    C     C_R   0.811829 0.399796 0.203196 -0.180794
C3    C     C_R   0.680630 0.909329 0.810838 -0.176778
C4    C     C_R   0.323259 0.916485 0.187410 -0.170772
H1    H     H_    0.223743 0.449777 0.875266 0.117615
H2    H     H_    0.762464 0.427922 0.153248 0.112983
H3    H     H_    0.730462 0.937814 0.873041 0.110503
H4    H     H_    0.276404 0.950286 0.124815 0.118534
N1    N     N_R   0.126390 0.429310 0.705280 -0.054087
N2    N     N_R   0.873610 0.429310 0.294720 -0.054186
N3    N     N_R   0.626390 0.929310 0.705280 -0.052822
N4    N     N_R   0.373610 0.929310 0.294720 -0.053259
C5    C     C_R   0.851215 0.589006 0.463110 -0.167336
C6    C     C_R   0.154184 0.594486 0.548971 -0.172688
C7    C     C_R   0.340362 0.098645 0.437426 -0.222867
C8    C     C_R   0.646346 0.086456 0.531749 -0.166942
H5    H     H_    0.804336 0.559329 0.422007 0.119441
H6    H     H_    0.203025 0.566930 0.595558 0.119360
H7    H     H_    0.292189 0.069431 0.391340 0.115996
H8    H     H_    0.693091 0.056831 0.572372 0.119929
N5    N     N_R   0.889410 0.573560 0.453390 -0.060796
N6    N     N_R   0.110590 0.573560 0.546610 -0.060373
N7    N     N_R   0.389410 0.073560 0.453390 -0.054029
N8    N     N_R   0.610590 0.073560 0.546610 -0.061430
C9    C     C_R   0.929174 0.317486 0.541183 -0.163038
C10   C     C_R   0.064040 0.323965 0.444092 -0.148624
C11   C     C_R   0.434099 0.822341 0.552262 -0.158968
C12   C     C_R   0.570668 0.817520 0.458879 -0.182846
H9    H     H_    0.955582 0.263259 0.576846 0.124948
H10   H     H_    0.034680 0.272147 0.401303 0.135689
H11   H     H_    0.460899 0.768548 0.589920 0.120376
H12   H     H_    0.544353 0.763366 0.423697 0.124994
N9    N     N_R   0.940610 0.372370 0.507810 -0.040777
N10   N     N_R   0.059390 0.372370 0.492190 -0.040404
N11   N     N_R   0.440610 0.872370 0.507810 -0.039265
N12   N     N_R   0.559390 0.872370 0.492190 -0.040305
C13   C     C_R   0.105474 0.695666 0.707553 -0.088937
C14   C     C_R   0.894657 0.695639 0.292283 -0.094321
C15   C     C_R   0.594592 0.179728 0.723684 -0.080018
C16   C     C_R   0.394568 0.196002 0.293172 -0.083956
H13   H     H_    0.081210 0.751364 0.677508 0.191687
H14   H     H_    0.919019 0.751291 0.322013 0.187906
H15   H     H_    0.566848 0.230016 0.706976 0.153788
H16   H     H_    0.418970 0.251626 0.324094 0.192678
N13   N     N_R   0.075190 0.630500 0.650860 -0.057125
N14   N     N_R   0.924810 0.630500 0.349140 -0.055698
N15   N     N_R   0.575190 0.130500 0.650860 -0.040341
N16   N     N_R   0.424810 0.130500 0.349140 -0.058727
C17   C     C_R   0.845241 0.406104 0.449583 -0.121266
C18   C     C_R   0.147929 0.412782 0.535198 -0.121249
C19   C     C_R   0.351876 0.912925 0.464421 -0.116919
C20   C     C_R   0.654850 0.905792 0.550782 -0.121081
H17   H     H_    0.796158 0.433280 0.402571 0.092979
H18   H     H_    0.194878 0.442042 0.575986 0.096271
H19   H     H_    0.305420 0.943079 0.424391 0.098824
H20   H     H_    0.704160 0.932548 0.598186 0.092793
N17   N     N_R   0.889410 0.427540 0.453390 -0.037656
N18   N     N_R   0.110590 0.427540 0.546610 -0.039255
N19   N     N_R   0.389410 0.927540 0.453390 -0.037908
N20   N     N_R   0.610590 0.927540 0.546610 -0.037571
C21   C     C_R   0.187748 0.606959 0.795294 -0.108648
C22   C     C_R   0.812334 0.606736 0.204247 -0.101285
C23   C     C_R   0.677975 0.090994 0.812004 -0.117217
C24   C     C_R   0.312179 0.107537 0.205204 -0.117117
H21   H     H_    0.237573 0.580806 0.844099 0.090918
H22   H     H_    0.762506 0.580089 0.154508 0.089175
H23   H     H_    0.727755 0.062473 0.874734 0.101089
H24   H     H_    0.262301 0.081535 0.156458 0.090048
N21   N     N_R   0.126390 0.575330 0.705280 -0.051186
N22   N     N_R   0.873610 0.575330 0.294720 -0.050840
N23   N     N_R   0.626390 0.075330 0.705280 -0.048783
N24   N     N_R   0.373610 0.075330 0.294720 -0.050914
C25   C     C_R   0.931812 0.681349 0.547388 0.314293
C26   C     C_R   0.072138 0.685263 0.461732 0.308501
C27   C     C_R   0.420332 0.190694 0.519976 0.286249
C28   C     C_R   0.565436 0.178226 0.445957 0.328076
N25   N     N_R   0.940610 0.629500 0.507810 -0.086553
N26   N     N_R   0.059390 0.629500 0.492190 -0.087936
N27   N     N_R   0.440610 0.129500 0.507810 -0.086308
N28   N     N_R   0.559390 0.129500 0.492190 -0.085187
C29   C     C_R   0.096558 0.322878 0.724304 0.166764
C30   C     C_R   0.892287 0.309320 0.288831 0.197932
C31   C     C_R   0.598663 0.818608 0.721376 0.164509
C32   C     C_R   0.402715 0.822288 0.275694 0.176753
N29   N     N_R   0.075190 0.373370 0.650860 -0.061317
N30   N     N_R   0.924810 0.373370 0.349140 -0.061602
N31   N     N_R   0.575190 0.873370 0.650860 -0.060828
N32   N     N_R   0.424810 0.873370 0.349140 -0.057024
C33   C     C_R   0.157838 0.351176 0.826778 0.069112
C34   C     C_R   0.821033 0.323700 0.198479 0.054787
C35   C     C_R   0.662483 0.842560 0.823306 0.080181
C36   C     C_R   0.341990 0.851263 0.173644 0.057788
C37   C     C_R   0.877449 0.655791 0.522956 -0.058998
C38   C     C_R   0.130018 0.663280 0.493869 -0.053158
C39   C     C_R   0.359173 0.171545 0.479590 -0.052707
C40   C     C_R   0.618591 0.151395 0.468016 -0.063292
C41   C     C_R   0.870950 0.338808 0.507584 0.055364
C42   C     C_R   0.118303 0.349396 0.468758 0.044405
C43   C     C_R   0.380223 0.848154 0.528228 0.046071
C44   C     C_R   0.628856 0.838705 0.492458 0.058914
C45   C     C_R   0.175746 0.682830 0.797065 0.102363
C46   C     C_R   0.824431 0.682736 0.202656 0.096613
C47   C     C_R   0.657641 0.154644 0.824773 0.083373
C48   C     C_R   0.324264 0.183655 0.204038 0.094215
Ni1   Ni    Ni4+2 0.118300 0.501760 0.624810 0.202180
Ni2   Ni    Ni4+2 0.881700 0.501760 0.375190 0.199773
Ni3   Ni    Ni4+2 0.618300 0.001760 0.624810 0.206573
Ni4   Ni    Ni4+2 0.381700 0.001760 0.375190 0.197969
Ni5   Ni    Ni4+2 0.000000 0.373470 0.500000 0.212902
Ni6   Ni    Ni4+2 0.500000 0.873470 0.500000 0.207299
Ni7   Ni    Ni4+2 0.000000 0.628290 0.500000 0.297921
Ni8   Ni    Ni4+2 0.500000 0.128290 0.500000 0.309594
C49   C     C_2   0.768382 0.196601 0.115119 -0.136196
C50   C     C_2   0.167195 0.281072 0.946732 -0.128095
C51   C     C_2   0.333044 0.777306 0.056927 -0.114036
C52   C     C_2   0.669435 0.774124 0.940531 -0.121391
C53   C     C_2   0.762562 0.272606 0.114745 -0.182375
C54   C     C_2   0.198481 0.315409 0.930112 -0.174996
C55   C     C_2   0.301433 0.815334 0.070741 -0.165029
C56   C     C_2   0.702251 0.804845 0.924841 -0.188879
H25   H     H_    0.809840 0.164539 0.189503 0.148398
H26   H     H_    0.110854 0.281948 0.884289 0.114453
H27   H     H_    0.389498 0.774971 0.121558 0.111281
H28   H     H_    0.613099 0.776964 0.877669 0.113300
H29   H     H_    0.714185 0.300877 0.041980 0.141157
H30   H     H_    0.254630 0.314667 0.990798 0.147715
H31   H     H_    0.245150 0.817742 0.008192 0.143604
H32   H     H_    0.758438 0.802213 0.986151 0.145842
C57   C     C_2   0.292833 0.726707 0.963452 -0.136466
C58   C     C_2   0.707740 0.726124 0.035463 -0.131992
C59   C     C_2   0.724489 0.155883 0.012045 -0.119757
C60   C     C_2   0.207062 0.229796 0.039837 -0.131910
C61   C     C_2   0.226374 0.742932 0.869603 -0.177827
C62   C     C_2   0.774040 0.742681 0.129015 -0.178234
C63   C     C_2   0.697387 0.193558 0.924893 -0.191056
C64   C     C_2   0.274060 0.244585 0.132822 -0.174062
H33   H     H_    0.719637 0.093954 0.010270 0.135993
H34   H     H_    0.184160 0.174603 0.024757 0.127054
H35   H     H_    0.314987 0.670932 0.978614 0.126952
H36   H     H_    0.684947 0.671286 0.021905 0.125204
H37   H     H_    0.206210 0.800452 0.853574 0.149893
H38   H     H_    0.794439 0.799577 0.142406 0.149731
H39   H     H_    0.702871 0.254961 0.924465 0.145774
H40   H     H_    0.294853 0.301668 0.148454 0.151127
C65   C     C_R   0.148739 0.310176 0.447863 0.123165
C66   C     C_R   0.837353 0.295230 0.519909 0.117448
C67   C     C_R   0.661630 0.795632 0.478522 0.119346
C68   C     C_R   0.347841 0.806900 0.544288 0.120529
C69   C     C_R   0.842059 0.698449 0.532937 0.104159
C70   C     C_R   0.166315 0.707873 0.486830 0.104618
C71   C     C_R   0.323927 0.215590 0.488878 0.107748
C72   C     C_R   0.654302 0.193839 0.458097 0.100842
C73   C     C_R   0.842205 0.744748 0.650890 0.138501
C74   C     C_R   0.167007 0.756649 0.370620 0.138409
C75   C     C_R   0.328006 0.262515 0.611504 0.144936
C76   C     C_R   0.656704 0.238373 0.342436 0.137905
C77   C     C_R   0.877607 0.714287 0.637234 -0.228733
C78   C     C_R   0.131176 0.725602 0.383165 -0.228467
C79   C     C_R   0.361361 0.231857 0.594407 -0.226269
C80   C     C_R   0.620353 0.207356 0.354333 -0.229510
C81   C     C_R   0.770898 0.713669 0.439021 0.079892
C82   C     C_R   0.237589 0.722178 0.581415 0.079628
C83   C     C_R   0.252778 0.232754 0.396788 0.075172
C84   C     C_R   0.724738 0.211840 0.552969 0.076839
C85   C     C_R   0.733510 0.740434 0.451259 0.063733
C86   C     C_R   0.275343 0.750690 0.570345 0.063286
C87   C     C_R   0.217490 0.259141 0.413013 0.082983
C88   C     C_R   0.763236 0.238765 0.542777 0.065662
C89   C     C_R   0.255406 0.273045 0.521105 0.085641
C90   C     C_R   0.728733 0.252061 0.436594 0.097314
C91   C     C_R   0.769653 0.755639 0.558166 0.097818
C92   C     C_R   0.239564 0.766783 0.463867 0.096712
C93   C     C_R   0.219855 0.296924 0.536778 -0.245306
C94   C     C_R   0.767040 0.279466 0.426951 -0.245814
C95   C     C_R   0.732445 0.782032 0.570047 -0.247423
C96   C     C_R   0.277117 0.792868 0.452616 -0.244490
C97   C     C_R   0.110418 0.295557 0.341551 -0.182354
C98   C     C_R   0.872210 0.280512 0.623953 -0.165997
C99   C     C_R   0.625207 0.779497 0.373809 -0.165414
C100  C     C_R   0.383944 0.791265 0.648949 -0.168311
C101  C     C_R   0.144788 0.269947 0.323892 -0.176658
C102  C     C_R   0.835216 0.252880 0.635731 -0.191654
C103  C     C_R   0.661081 0.752469 0.359804 -0.192100
C104  C     C_R   0.347750 0.763353 0.662319 -0.191418
H41   H     H_    0.247362 0.307420 0.618344 0.153242
H42   H     H_    0.742384 0.291195 0.347517 0.152617
H43   H     H_    0.758329 0.794756 0.650094 0.151598
H44   H     H_    0.251448 0.804879 0.372518 0.152545
H45   H     H_    0.054889 0.306763 0.272771 0.124521
H46   H     H_    0.926993 0.294376 0.695770 0.117806
H47   H     H_    0.569974 0.791829 0.303010 0.117536
H48   H     H_    0.439113 0.803754 0.719839 0.117434
H49   H     H_    0.631718 0.743331 0.277141 0.127904
H50   H     H_    0.376770 0.753855 0.744757 0.128488
H51   H     H_    0.114478 0.259277 0.240797 0.147936
H52   H     H_    0.863352 0.244792 0.717835 0.128524
H53   H     H_    0.932732 0.701364 0.708208 0.152498
H54   H     H_    0.076020 0.713109 0.311544 0.151478
H55   H     H_    0.416599 0.218859 0.664043 0.135401
H56   H     H_    0.565808 0.192428 0.282582 0.155930
N33   N     N_2   0.367198 0.279555 0.719832 -0.114998
H57   H     H_    0.408839 0.243157 0.778161 0.170074
C105  C     C_3   0.387301 0.359239 0.749864 -0.905630
H58   H     H_    0.423540 0.374921 0.750646 0.265811
H59   H     H_    0.414073 0.368615 0.832680 0.242836
H60   H     H_    0.340754 0.397101 0.691740 0.250945
N34   N     N_2   0.621114 0.253300 0.235836 -0.114745
H61   H     H_    0.582101 0.214369 0.177982 0.170830
C106  C     C_3   0.597188 0.331581 0.199775 -0.899129
H62   H     H_    0.557136 0.344507 0.191647 0.269233
H63   H     H_    0.573702 0.339641 0.119108 0.241521
H64   H     H_    0.641327 0.372385 0.258405 0.249555
N35   N     N_2   0.879359 0.761933 0.757960 -0.115461
H65   H     H_    0.919947 0.724692 0.816958 0.170304
C107  C     C_3   0.900932 0.841189 0.789328 -0.897205
H66   H     H_    0.939150 0.855118 0.793730 0.269057
H67   H     H_    0.925901 0.850873 0.870836 0.242006
H68   H     H_    0.855319 0.880165 0.729903 0.249739
N36   N     N_2   0.130243 0.775168 0.264029 -0.115479
H69   H     H_    0.089146 0.738787 0.204036 0.170419
C108  C     C_3   0.109918 0.854874 0.234509 -0.896756
H70   H     H_    0.071850 0.869132 0.230292 0.269146
H71   H     H_    0.085195 0.865516 0.153304 0.241754
H72   H     H_    0.156122 0.892933 0.294900 0.249816
N37   N     N_2   0.738071 0.698936 0.334062 -0.118308
H73   H     H_    0.691246 0.670090 0.279487 0.152418
C109  C     C_3   0.739683 0.762321 0.287469 -0.846819
H74   H     H_    0.716868 0.744013 0.209540 0.241230
H75   H     H_    0.794305 0.780853 0.343893 0.280792
H76   H     H_    0.708914 0.811250 0.270999 0.241570
N38   N     N_2   0.270189 0.704748 0.685643 -0.118543
H77   H     H_    0.317154 0.676265 0.739347 0.152932
C110  C     C_3   0.268882 0.766512 0.734091 -0.850094
H78   H     H_    0.293499 0.747077 0.812980 0.242755
H79   H     H_    0.214220 0.783567 0.679504 0.278826
H80   H     H_    0.298297 0.816724 0.749355 0.242786
N39   N     N_2   0.216990 0.225170 0.288830 -0.125785
H81   H     H_    0.226523 0.175455 0.273208 0.169679
C111  C     C_3   0.221062 0.292476 0.249899 -0.852028
H82   H     H_    0.187189 0.284600 0.162767 0.241732
H83   H     H_    0.275601 0.301595 0.297874 0.274391
H84   H     H_    0.202686 0.343920 0.256479 0.254492
N40   N     N_2   0.755768 0.200208 0.657163 -0.117266
H85   H     H_    0.802804 0.171687 0.714238 0.154042
C112  C     C_3   0.752803 0.265869 0.699300 -0.837374
H86   H     H_    0.773274 0.249755 0.776067 0.237254
H87   H     H_    0.698048 0.285441 0.639578 0.285237
H88   H     H_    0.784868 0.313463 0.716606 0.238948
N41   N     N_R   0.954883 0.759119 0.570330 0.214906
O1    O     O_R   0.956485 0.792763 0.511827 -0.387754
O2    O     O_R   0.964620 0.799703 0.637969 -0.421416
N42   N     N_R   0.048252 0.762454 0.440625 0.215362
O3    O     O_R   0.042166 0.791619 0.495231 -0.391943
O4    O     O_R   0.041894 0.806972 0.378947 -0.420871
N43   N     N_R   0.443109 0.267587 0.533865 0.212395
O5    O     O_R   0.477642 0.282941 0.519012 -0.387044
O6    O     O_R   0.423459 0.323896 0.549935 -0.407888
N44   N     N_R   0.540172 0.255258 0.415710 0.214390
O7    O     O_R   0.546949 0.296669 0.479653 -0.364636
O8    O     O_R   0.521783 0.288135 0.335560 -0.428000
N45   N     N_2   0.078265 0.244013 0.700001 -0.131368
H89   H     H_    0.079886 0.216496 0.749353 0.166036
C113  C     C_3   0.114020 0.201170 0.689437 -0.902188
H90   H     H_    0.092897 0.141950 0.661961 0.259952
H91   H     H_    0.170746 0.198253 0.769351 0.255814
H92   H     H_    0.106112 0.228388 0.628132 0.260301
N46   N     N_2   0.925731 0.237176 0.323477 -0.133291
H93   H     H_    0.907709 0.201729 0.262921 0.161920
C114  C     C_3   0.942063 0.200116 0.408339 -0.932091
H94   H     H_    0.968691 0.144732 0.430296 0.264165
H95   H     H_    0.893850 0.189315 0.380753 0.252689
H96   H     H_    0.977667 0.236859 0.481655 0.277437
N47   N     N_2   0.577989 0.740653 0.690707 -0.126096
H97   H     H_    0.576386 0.711993 0.735663 0.163682
C115  C     C_3   0.615995 0.697769 0.684444 -0.901591
H98   H     H_    0.591866 0.640343 0.649045 0.260856
H99   H     H_    0.671186 0.690250 0.767244 0.254900
H100  H     H_    0.614433 0.727775 0.631540 0.254366
N48   N     N_2   0.416986 0.742353 0.296740 -0.116355
H101  H     H_    0.437021 0.716745 0.276954 0.148964
C116  C     C_3   0.438170 0.711605 0.388954 -0.870521
H102  H     H_    0.444771 0.648532 0.392911 0.255293
H103  H     H_    0.397588 0.723740 0.379787 0.256926
H104  H     H_    0.488108 0.737397 0.465838 0.257221

loop_
_geom_bond_atom_site_label_1
_geom_bond_atom_site_label_2
_geom_bond_distance
_ccdc_geom_bond_type
C85   C91   1.425239 A    
C113  H92   1.111357 S    
C31   N31   1.330255 A    
C105  H58   1.111718 S    
N43   O6    1.300654 A    
C29   N45   1.420280 S    
N23   Ni3   1.876228 S    
C41   C66   1.421043 S    
C26   C38   1.379360 A    
C37   C69   1.427729 S    
C111  H82   1.109920 S    
C22   H22   1.081026 S    
C25   C37   1.381232 A    
C4    H4    1.081099 S    
C24   N24   1.338491 A    
C58   H36   1.084693 S    
C73   N35   1.424558 S    
C27   C39   1.377311 A    
C113  H90   1.110247 S    
C87   C89   1.422645 A    
N31   Ni6   1.848670 S    
C58   C62   1.330271 D    
N35   H65   1.031936 S    
C116  H104  1.105988 S    
C7    H7    1.079863 S    
C92   C96   1.379176 A    
C105  H59   1.110391 S    
C43   C68   1.421352 S    
C93   H41   1.084695 S    
N41   O1    1.299863 A    
C68   C96   1.384089 A    
C27   N27   1.336752 A    
N39   H81   1.028482 S    
N27   Ni8   1.903378 S    
C1    H1    1.081026 S    
C24   H24   1.081002 S    
N42   O4    1.300312 A    
C115  H99   1.111523 S    
C36   C55   1.440806 S    
C74   C78   1.381735 A    
C108  H72   1.111098 S    
C27   N43   1.433937 S    
C107  H67   1.110405 S    
C73   C77   1.383887 A    
C7    C39   1.374207 A    
N45   H89   1.028707 S    
C98   H46   1.084069 S    
C67   C95   1.383942 A    
C72   C80   1.390956 A    
C14   C46   1.369133 A    
C16   C48   1.368306 A    
C44   C67   1.419547 S    
N1    Ni1   1.859839 S    
N40   H85   1.030260 S    
C40   C72   1.431502 S    
C32   N48   1.422514 S    
C106  H64   1.111090 S    
C17   N17   1.325727 A    
N34   C106  1.446762 S    
C66   C98   1.389415 A    
C3    C35   1.381895 A    
C19   H19   1.079401 S    
N33   H57   1.031960 S    
C31   N47   1.420774 S    
C2    C34   1.373314 A    
C76   N34   1.424393 S    
C47   C63   1.431547 S    
C54   H30   1.085483 S    
C20   N20   1.325722 A    
N37   C109  1.445077 S    
C82   C86   1.396545 A    
C69   C81   1.399263 A    
N10   Ni5   1.903354 S    
C10   N10   1.336735 A    
N2    N30   1.391508 A    
C115  H98   1.110187 S    
N3    N31   1.391341 A    
N40   C112  1.445134 S    
N25   Ni7   1.903378 S    
C1    C33   1.384616 A    
N48   H101  1.029616 S    
C96   H44   1.084708 S    
N26   Ni7   1.903324 S    
N47   C115  1.446776 S    
C4    N4    1.335970 A    
N9    Ni5   1.903308 S    
C48   C64   1.448411 S    
C110  H78   1.109003 S    
C112  H88   1.111020 S    
C81   N37   1.428360 S    
C82   N38   1.427120 S    
C83   N39   1.427748 S    
C8    H8    1.078195 S    
C74   C92   1.407391 A    
N32   Ni6   1.848675 S    
C12   C44   1.369112 A    
C88   C90   1.424504 A    
N17   Ni2   1.855392 S    
C28   C40   1.382246 A    
C8    N8    1.326269 A    
C114  H94   1.110126 S    
C19   C43   1.376018 A    
N33   C105  1.446778 S    
C22   N22   1.335138 A    
C73   C91   1.408184 A    
C13   C45   1.369491 A    
C2    H2    1.082194 S    
N16   N24   1.381959 A    
C110  H80   1.111131 S    
N8    N28   1.391505 A    
N24   Ni4   1.873142 S    
N37   H73   1.030145 S    
C19   N19   1.322935 A    
C99   C103  1.380475 A    
N35   C107  1.446772 S    
C9    H9    1.075246 S    
N39   C111  1.445493 S    
C70   C82   1.399766 A    
C105  H60   1.111098 S    
C23   H23   1.077855 S    
C79   H55   1.085091 S    
C18   C42   1.376778 A    
C51   H27   1.085657 S    
C97   H45   1.083492 S    
N4    N32   1.391508 A    
N13   N21   1.382121 A    
N34   H61   1.031916 S    
C18   N18   1.324322 A    
C34   C53   1.455264 S    
C32   N32   1.335692 A    
C12   H12   1.073115 S    
C115  H100  1.110367 S    
C1    N1    1.337502 A    
N6    N26   1.391505 A    
C23   C47   1.378197 A    
C100  H48   1.083783 S    
C107  H68   1.111109 S    
N36   H69   1.031940 S    
N4    Ni4   1.862897 S    
N21   Ni1   1.876228 S    
C4    C36   1.382988 A    
C15   H15   1.075419 S    
C3    H3    1.078140 S    
C11   N11   1.335142 A    
C116  H102  1.110065 S    
C30   N30   1.342733 A    
C15   N15   1.333999 A    
C75   C79   1.381263 A    
C20   C44   1.374168 A    
C86   C92   1.424208 A    
C21   C45   1.379306 A    
C52   C56   1.344186 D    
C51   C55   1.342920 D    
C5    C37   1.380519 A    
C52   C58   1.454166 S    
C85   C103  1.407312 A    
C102  H52   1.080265 S    
N44   O8    1.300281 A    
C107  H66   1.111745 S    
C46   C62   1.444866 S    
C49   C59   1.464070 S    
C108  H70   1.111722 S    
C59   H33   1.086804 S    
N22   Ni2   1.873142 S    
C62   H38   1.087861 S    
N11   N19   1.382122 A    
C75   C89   1.405745 A    
C59   C63   1.339462 D    
N14   Ni7   1.849031 S    
C109  H74   1.110021 S    
C57   H35   1.084714 S    
C76   C80   1.386194 A    
C83   C87   1.394560 A    
C60   C64   1.331738 D    
C11   C43   1.374361 A    
C45   C61   1.446292 S    
N28   Ni8   1.903324 S    
C56   H32   1.085788 S    
C106  H62   1.111744 S    
C8    C40   1.379098 A    
C5    N5    1.325407 A    
C111  H83   1.111775 S    
N8    Ni3   1.826250 S    
C98   C102  1.380524 A    
N20   Ni3   1.858453 S    
C110  H79   1.111352 S    
N15   N23   1.382121 A    
C72   C84   1.400347 A    
N11   Ni6   1.903308 S    
C76   C90   1.409262 A    
C10   C42   1.375225 A    
C49   C53   1.336568 D    
C104  H50   1.080374 S    
C84   C88   1.394757 A    
C9    C41   1.371094 A    
C109  H75   1.111228 S    
C23   N23   1.336467 A    
C10   H10   1.074542 S    
N41   O2    1.300276 A    
C71   C83   1.402430 A    
C114  H95   1.110900 S    
C11   H11   1.074535 S    
N3    Ni3   1.859839 S    
C57   C61   1.332102 D    
N1    N29   1.391341 A    
C39   C71   1.427539 S    
C13   N13   1.334567 A    
N43   O5    1.298396 A    
C2    N2    1.333160 A    
C49   H25   1.078815 S    
C103  H49   1.080266 S    
C86   C104  1.409309 A    
N45   C113  1.446684 S    
C90   C94   1.384053 A    
C60   H34   1.084809 S    
C21   N21   1.336151 A    
C113  H91   1.111589 S    
C16   N16   1.334340 A    
C106  H63   1.110407 S    
N9    N17   1.382122 A    
C52   H28   1.086122 S    
N16   Ni8   1.849031 S    
C20   H20   1.079621 S    
C50   C60   1.459492 S    
C6    H6    1.079179 S    
C64   H40   1.087456 S    
C25   N41   1.429717 S    
C24   C48   1.380646 A    
N30   Ni5   1.848675 S    
N5    Ni2   1.829258 S    
C30   N46   1.416635 S    
C65   C93   1.384887 A    
N12   N20   1.381959 A    
N5    N25   1.391340 A    
C26   N42   1.429915 S    
C28   N28   1.337526 A    
N13   Ni7   1.849116 S    
C15   C47   1.373080 A    
C42   C65   1.426087 S    
C51   C57   1.457117 S    
C116  H103  1.110804 S    
N6    Ni1   1.826250 S    
C31   C35   1.380003 A    
N15   Ni8   1.849116 S    
C70   C78   1.390895 A    
N29   Ni5   1.848670 S    
N19   Ni4   1.855392 S    
C30   C34   1.392213 A    
C5    H5    1.078715 S    
C50   C54   1.343602 D    
C108  H71   1.110401 S    
N46   H93   1.029221 S    
N18   Ni1   1.858453 S    
C95   H43   1.084530 S    
C112  H87   1.110969 S    
N44   O7    1.299267 A    
C29   C33   1.388559 A    
C18   H18   1.078519 S    
C75   N33   1.424969 S    
C94   H42   1.084478 S    
C14   N14   1.333677 A    
N12   Ni6   1.903354 S    
N46   C114  1.442033 S    
C6    N6    1.326688 A    
C87   C101  1.407511 A    
C91   C95   1.381889 A    
C28   N44   1.428179 S    
C55   H31   1.085230 S    
C97   C101  1.386743 A    
N7    Ni4   1.829258 S    
C66   C94   1.385538 A    
C7    N7    1.328357 A    
C63   H39   1.084316 S    
C78   H54   1.084757 S    
C71   C79   1.393780 A    
C111  H84   1.111382 S    
C77   H53   1.084598 S    
N36   C108  1.446784 S    
N48   C116  1.445596 S    
C21   H21   1.080931 S    
C13   H13   1.077197 S    
C101  H51   1.082842 S    
C88   C102  1.407590 A    
C29   N29   1.333874 A    
N14   N22   1.381958 A    
C17   H17   1.079744 S    
C3    N3    1.340952 A    
C80   H56   1.084417 S    
N38   C110  1.444684 S    
C17   C41   1.373907 A    
C50   H26   1.085949 S    
C14   H14   1.077341 S    
C67   C99   1.389904 A    
C38   C70   1.427768 S    
C16   H16   1.077613 S    
C109  H76   1.111011 S    
C99   H47   1.084073 S    
C33   C54   1.443456 S    
C12   N12   1.332636 A    
C25   N25   1.333273 A    
C68   C100  1.389703 A    
C26   N26   1.333102 A    
C114  H96   1.104142 S    
C65   C97   1.392494 A    
N38   H77   1.030266 S    
N10   N18   1.381959 A    
N2    Ni2   1.862897 S    
C89   C93   1.379462 A    
C35   C56   1.439276 S    
C61   H37   1.087070 S    
C32   C36   1.384937 A    
N7    N27   1.391340 A    
C74   N36   1.424878 S    
C112  H86   1.110264 S    
C53   H29   1.086590 S    
C69   C77   1.390886 A    
C84   N40   1.428073 S    
C6    C38   1.378783 A    
C81   C85   1.394534 A    
C100  C104  1.383886 A    
C9    N9    1.334747 A    
N42   O3    1.299615 A    
C22   C46   1.380560 A    
N47   H97   1.029512 S    
