data_mof_unit_27463.cif
_audit_creation_date              2012-12-11T17:41:19-0500
_audit_creation_method            fapswitch 2.2
_symmetry_space_group_name_H-M    P1
_symmetry_Int_Tables_number       1
_space_group_crystal_system       triclinic
_cell_length_a                    15.56276
_cell_length_b                    15.088838
_cell_length_c                    14.963961
_cell_angle_alpha                 109.799234
_cell_angle_beta                  121.61736
_cell_angle_gamma                 58.941226
_cell_volume                      2552.09221805

loop_
_atom_site_label
_atom_site_type_symbol
_atom_type_description
_atom_site_fract_x
_atom_site_fract_y
_atom_site_fract_z
_atom_type_partial_charge
C1    C     C_R   0.749303 0.997229 0.791612 -0.113149
C2    C     C_R   0.195362 0.063323 0.227058 -0.137288
C3    C     C_R   0.211624 0.298706 0.566016 0.149724
C4    C     C_R   0.862217 0.725244 0.518324 0.143728
C5    C     C_R   0.501257 0.301909 0.443748 0.155903
C6    C     C_R   0.495004 0.677935 0.455895 0.199821
C7    C     C_R   0.499953 0.924675 0.794876 0.063931
C8    C     C_R   0.494783 0.960117 0.170894 0.049910
C9    C     C_R   0.791284 0.608835 0.852454 -0.128425
C10   C     C_R   0.155411 0.226953 0.994526 -0.117723
C11   C     C_R   0.692979 0.681511 0.861921 -0.145816
C12   C     C_R   0.261063 0.151929 0.003376 -0.154249
C13   C     C_R   0.695759 0.756825 0.948908 0.122301
C14   C     C_R   0.280292 0.046915 0.971680 0.100509
C15   C     C_R   0.798918 0.757165 0.026943 -0.181621
C16   C     C_R   0.192266 0.018440 0.927642 -0.163458
C17   C     C_R   0.897087 0.684139 0.017283 -0.109035
C18   C     C_R   0.086728 0.093703 0.917685 -0.122393
C19   C     C_R   0.893266 0.610137 0.930072 -0.094587
C20   C     C_R   0.068238 0.197875 0.951661 -0.121709
C21   C     C_R   0.585735 0.850991 0.052983 -0.240036
C22   C     C_R   0.393995 0.946723 0.879993 -0.253526
C23   C     C_R   0.243295 0.289340 0.490770 -0.120635
C24   C     C_R   0.799824 0.725354 0.558587 -0.127320
C25   C     C_R   0.488213 0.924384 0.064568 0.068910
C26   C     C_R   0.495618 0.893453 0.874509 0.048358
C27   C     C_R   0.389134 0.967849 0.974108 0.031861
C28   C     C_R   0.591101 0.834669 0.957990 0.027456
C29   C     C_2   0.149054 0.396110 0.612727 -0.231565
C30   C     C_2   0.976815 0.651127 0.536774 -0.214927
C31   C     C_2   0.131614 0.487355 0.597091 -0.106388
C32   C     C_2   0.036418 0.580420 0.605958 -0.115056
C33   C     C_2   0.827015 0.131935 0.901505 -0.237345
C34   C     C_2   0.014753 0.047218 0.157246 -0.225829
C35   C     C_R   0.269077 0.805596 0.627450 -0.132004
C36   C     C_R   0.584475 0.179296 0.176981 -0.114998
C37   C     C_R   0.356446 0.725482 0.603789 -0.120648
C38   C     C_R   0.538447 0.272466 0.231751 -0.134751
C39   C     C_R   0.333700 0.672204 0.502838 0.249383
C40   C     C_R   0.606681 0.303308 0.332525 0.269433
C41   C     C_R   0.222746 0.700461 0.425926 -0.142849
C42   C     C_R   0.721238 0.239209 0.378155 -0.192677
C43   C     C_R   0.135938 0.782205 0.449319 -0.149313
C44   C     C_R   0.767075 0.146340 0.322939 -0.127542
C45   C     C_R   0.593388 0.218238 0.493949 -0.178696
C46   C     C_R   0.404969 0.772282 0.440365 -0.139325
C47   C     C_R   0.159102 0.834570 0.550241 -0.097331
C48   C     C_R   0.698739 0.116355 0.222474 -0.084057
C49   C     C_R   0.439012 0.485008 0.488876 0.577478
C50   C     C_R   0.553851 0.492469 0.397395 0.593097
C51   C     C_R   0.500206 0.395654 0.441992 -0.211359
C52   C     C_R   0.487341 0.582809 0.439796 -0.203396
C53   C     C_R   0.555626 0.397648 0.393382 -0.235941
C54   C     C_R   0.423289 0.579833 0.478581 -0.235835
C55   C     C_2   0.854319 0.107933 0.993957 -0.090416
C56   C     C_2   0.952227 0.117009 0.086582 -0.105306
C57   C     C_R   0.408188 0.980881 0.711490 -0.128270
C58   C     C_R   0.590278 0.950932 0.265965 -0.105286
C59   C     C_R   0.408333 0.290596 0.415836 -0.051255
C60   C     C_R   0.590387 0.694368 0.524342 -0.128448
C61   C     C_R   0.591986 0.910627 0.789412 -0.153053
C62   C     C_R   0.405203 0.018830 0.194839 -0.137694
C63   C     C_R   0.242755 0.199068 0.583006 -0.150414
C64   C     C_R   0.801379 0.814976 0.467882 -0.151953
C65   C     C_R   0.749725 0.089615 0.702082 -0.157325
C66   C     C_R   0.195592 0.971810 0.316351 -0.161314
C67   C     C_R   0.775417 0.076476 0.802251 0.143958
C68   C     C_R   0.131825 0.025490 0.228213 0.157641
H1    H     H_    0.758858 0.966054 0.852882 0.090607
H2    H     H_    0.166180 0.120801 0.178215 0.100710
H3    H     H_    0.982990 0.997092 0.155971 0.126670
H4    H     H_    0.857460 0.181231 0.899252 0.124262
H5    H     H_    0.969326 0.553777 0.922670 0.097245
H6    H     H_    0.986305 0.256221 0.943958 0.100081
H7    H     H_    0.788357 0.551470 0.784943 0.099459
H8    H     H_    0.140842 0.307688 0.019926 0.106638
H9    H     H_    0.614845 0.679204 0.801524 0.099647
H10   H     H_    0.327805 0.175172 0.035156 0.109319
H11   H     H_    0.803219 0.814799 0.094356 0.101195
H12   H     H_    0.205336 0.938164 0.900168 0.120751
H13   H     H_    0.976133 0.685144 0.077297 0.103868
H14   H     H_    0.019610 0.070616 0.882470 0.122323
H15   H     H_    0.659243 0.809585 0.119101 0.126841
H16   H     H_    0.318018 0.986983 0.815111 0.123762
H17   H     H_    0.005562 0.581782 0.656938 0.125180
H18   H     H_    0.173749 0.491264 0.560252 0.155293
H19   H     H_    0.008745 0.648470 0.485926 0.141706
H20   H     H_    0.105833 0.393319 0.649227 0.129564
H21   H     H_    0.091821 0.896833 0.568959 0.102864
H22   H     H_    0.734178 0.044084 0.180157 0.094900
H23   H     H_    0.229744 0.350636 0.456799 0.110591
H24   H     H_    0.826583 0.674412 0.613012 0.079981
H25   H     H_    0.286252 0.844142 0.706028 0.117207
H26   H     H_    0.531510 0.155498 0.099603 0.112769
H27   H     H_    0.441049 0.703601 0.664219 0.091300
H28   H     H_    0.449534 0.319851 0.196434 0.101794
H29   H     H_    0.203766 0.658827 0.348095 0.103344
H30   H     H_    0.774522 0.260229 0.457015 0.097934
H31   H     H_    0.050693 0.803974 0.389699 0.104586
H32   H     H_    0.855402 0.097078 0.358481 0.107083
H33   H     H_    0.679392 0.199176 0.518582 0.106472
H34   H     H_    0.318423 0.787505 0.392885 0.111520
H35   H     H_    0.322868 0.993652 0.680236 0.089862
H36   H     H_    0.675936 0.910629 0.277938 0.088680
H37   H     H_    0.322859 0.338453 0.367213 0.093521
H38   H     H_    0.675041 0.636963 0.558834 0.089426
H39   H     H_    0.678092 0.862861 0.835084 0.117677
H40   H     H_    0.319629 0.034478 0.145384 0.131221
H41   H     H_    0.230026 0.178338 0.636211 0.101317
H42   H     H_    0.832289 0.845539 0.440720 0.090908
H43   H     H_    0.760189 0.145175 0.682926 0.096794
H44   H     H_    0.164988 0.946564 0.349114 0.099121
H45   H     H_    0.982845 0.167384 0.086647 0.130664
H46   H     H_    0.821849 0.061058 0.997251 0.124841
N1    N     N_R   0.705410 0.966550 0.689210 -0.046177
N2    N     N_R   0.294590 0.033450 0.310790 -0.044990
N3    N     N_R   0.294590 0.188320 0.465660 -0.048255
N4    N     N_R   0.705410 0.811680 0.534340 -0.039856
N5    N     N_R   0.556610 0.157790 0.497330 -0.043191
N6    N     N_R   0.443390 0.842210 0.502670 -0.046698
N7    N     N_R   0.443390 0.997080 0.657540 -0.038044
N8    N     N_R   0.556610 0.002920 0.342460 -0.038238
N9    N     N_R   0.443390 0.203250 0.451380 -0.053683
N10   N     N_R   0.556610 0.796750 0.548620 -0.047490
N11   N     N_R   0.556610 0.951620 0.703500 -0.040504
N12   N     N_R   0.443390 0.048380 0.296500 -0.045710
N13   N     N_R   0.294590 0.131500 0.522480 -0.041793
N14   N     N_R   0.705410 0.868500 0.477520 -0.039381
N15   N     N_R   0.705410 0.023370 0.632390 -0.040559
N16   N     N_R   0.294590 0.976630 0.367610 -0.038072
Ni1   Ni    Ni4+2 0.629830 0.882720 0.617850 0.214637
Ni2   Ni    Ni4+2 0.370170 0.117280 0.382150 0.209553
Ni3   Ni    Ni4+2 0.629830 0.013030 0.487540 0.215463
Ni4   Ni    Ni4+2 0.370170 0.986970 0.512460 0.215253
O1    O     O_3   0.384776 0.480762 0.536141 -0.623960
C69   C     C_3   0.458942 0.462967 0.642800 -0.235153
H47   H     H_    0.489732 0.524530 0.685634 0.124190
H48   H     H_    0.530515 0.385378 0.650453 0.140753
H49   H     H_    0.413826 0.464355 0.681456 0.175677
O2    O     O_3   0.602869 0.500807 0.347286 -0.602257
C70   C     C_3   0.719184 0.465310 0.409457 -0.236680
H50   H     H_    0.762516 0.393733 0.368511 0.171427
H51   H     H_    0.749246 0.449608 0.491007 0.083032
H52   H     H_    0.744229 0.525051 0.416441 0.169341

loop_
_geom_bond_atom_site_label_1
_geom_bond_atom_site_label_2
_ccdc_geom_bond_type
C33   C55   D    
C66   C68   A    
C55   C56   S    
C34   C56   D    
C23   H23   S    
N9    Ni2   S    
C47   H21   S    
C3    C23   A    
N13   Ni4   S    
C35   C47   A    
C49   C51   A    
C4    C30   S    
O1    C69   S    
C39   C41   A    
N1    Ni1   S    
C46   H34   S    
N5    Ni3   S    
C7    C26   S    
N4    N14   A    
C35   C37   A    
C43   H31   S    
C2    C68   A    
C70   H51   S    
C4    C24   A    
C50   O2    S    
C39   C54   S    
C62   H40   S    
C49   C54   A    
C6    C52   S    
C11   C13   A    
C37   H27   S    
C60   N10   A    
C3    C29   S    
N3    Ni2   S    
C65   H43   S    
C29   H20   S    
N4    Ni1   S    
C11   H9    S    
C33   H4    S    
C8    C58   A    
C2    N2    A    
C9    C19   A    
C15   H11   S    
C21   H15   S    
C10   C20   A    
C65   C67   A    
C12   H10   S    
C50   C52   A    
C56   H45   S    
C13   C28   S    
C14   C27   S    
C17   H13   S    
N6    Ni4   S    
C45   N5    A    
C40   C42   A    
C49   O1    S    
C31   H18   S    
C48   H22   S    
C8    C25   S    
C41   C43   A    
N16   Ni4   S    
C42   C44   A    
C69   H49   S    
C24   H24   S    
C52   C54   A    
C10   C12   A    
C35   H25   S    
C59   N9    A    
C57   H35   S    
C58   N8    A    
C50   C53   A    
C5    C59   A    
C20   H6    S    
C6    C60   A    
C19   H5    S    
O2    C70   S    
C69   H48   S    
C70   H52   S    
C34   C68   S    
C62   N12   A    
C64   N14   A    
C5    C45   A    
C1    H1    S    
N10   Ni1   S    
C16   H12   S    
C22   H16   S    
N8    N12   A    
N8    Ni3   S    
N7    N11   A    
C9    C11   A    
N11   Ni1   S    
C64   H42   S    
C31   C32   S    
N2    Ni2   S    
N12   Ni2   S    
C41   H29   S    
C46   N6    A    
C59   H37   S    
N3    N13   A    
C45   H33   S    
N15   Ni3   S    
C16   C18   A    
C21   C28   A    
C12   C14   A    
C18   H14   S    
C3    C63   A    
C22   C27   A    
C13   C15   A    
N7    Ni4   S    
C14   C16   A    
C58   H36   S    
C60   H38   S    
C33   C67   S    
N1    N15   A    
C15   C17   A    
C21   C25   A    
C6    C46   A    
C10   H8    S    
C69   H47   S    
C23   N3    A    
C65   N15   A    
C1    C67   A    
C55   H46   S    
N5    N9    A    
C25   C27   A    
C1    N1    A    
C4    C64   A    
C26   C28   A    
C66   H44   S    
C42   H30   S    
C29   C31   D    
C44   C48   A    
C2    H2    S    
C70   H50   S    
C30   C32   D    
C44   H32   S    
C38   C40   A    
C32   H17   S    
C36   C38   A    
C24   N4    A    
C17   C19   A    
C36   C48   A    
C18   C20   A    
C61   H39   S    
C63   N13   A    
C57   N7    A    
C36   H26   S    
N2    N16   A    
C37   C39   A    
C40   C53   S    
C22   C26   A    
C38   H28   S    
C5    C51   S    
C61   N11   A    
C9    H7    S    
C51   C53   A    
C30   H19   S    
N14   Ni3   S    
C43   C47   A    
C34   H3    S    
C7    C57   A    
C7    C61   A    
N6    N10   A    
C8    C62   A    
C63   H41   S    
C66   N16   A    
