data_mof_unit_61238.cif
_audit_creation_date              2012-12-10T17:02:14-0500
_audit_creation_method            fapswitch 2.2
_symmetry_space_group_name_H-M    P1
_symmetry_Int_Tables_number       1
_space_group_crystal_system       triclinic
_cell_length_a                    21.843046
_cell_length_b                    21.843046
_cell_length_c                    29.362865
_cell_angle_alpha                 89.999919
_cell_angle_beta                  89.999919
_cell_angle_gamma                 89.999905
_cell_volume                      14009.5707602

loop_
_atom_site_label
_atom_site_type_symbol
_atom_type_description
_atom_site_fract_x
_atom_site_fract_y
_atom_site_fract_z
_atom_type_partial_charge
C1    C     C_R   0.500000 0.118494 0.500000 0.969139
C2    C     C_R   0.881506 0.500000 0.500000 0.969140
C3    C     C_R   0.500000 0.881506 0.500000 0.969137
C4    C     C_R   0.118494 0.500000 0.500000 0.969137
C5    C     C_R   1.000000 0.618494 1.000000 0.969139
C6    C     C_R   0.381506 0.000000 0.000000 0.969140
C7    C     C_R   1.000000 0.381506 1.000000 0.969138
C8    C     C_R   0.618494 1.000000 0.000000 0.969137
C9    C     C_R   0.458938 0.281277 0.471018 -0.109832
C10   C     C_R   0.718723 0.458939 0.471017 -0.109831
C11   C     C_R   0.541062 0.718723 0.471018 -0.109832
C12   C     C_R   0.281277 0.541061 0.471017 -0.109832
C13   C     C_R   0.458939 0.718723 0.528983 -0.109832
C14   C     C_R   0.718723 0.541062 0.528982 -0.109832
C15   C     C_R   0.541061 0.281277 0.528983 -0.109831
C16   C     C_R   0.281277 0.458938 0.528982 -0.109832
C17   C     C_R   0.958938 0.781277 0.971018 -0.109832
C18   C     C_R   0.218723 0.958939 0.971017 -0.109831
C19   C     C_R   0.041062 0.218723 0.971018 -0.109832
C20   C     C_R   0.781277 0.041061 0.971017 -0.109832
C21   C     C_R   0.958939 0.218723 0.028983 -0.109832
C22   C     C_R   0.218723 0.041062 0.028982 -0.109832
C23   C     C_R   0.041061 0.781277 0.028983 -0.109831
C24   C     C_R   0.781277 0.958938 0.028982 -0.109832
C25   C     C_R   0.465491 0.217234 0.466703 -0.112542
C26   C     C_R   0.782767 0.465492 0.466703 -0.112539
C27   C     C_R   0.534510 0.782766 0.466704 -0.112542
C28   C     C_R   0.217233 0.534508 0.466703 -0.112538
C29   C     C_R   0.465492 0.782767 0.533296 -0.112538
C30   C     C_R   0.782766 0.534509 0.533296 -0.112542
C31   C     C_R   0.534508 0.217233 0.533297 -0.112539
C32   C     C_R   0.217234 0.465490 0.533296 -0.112542
C33   C     C_R   0.965491 0.717234 0.966704 -0.112542
C34   C     C_R   0.282767 0.965492 0.966703 -0.112539
C35   C     C_R   0.034510 0.282766 0.966704 -0.112542
C36   C     C_R   0.717233 0.034508 0.966703 -0.112538
C37   C     C_R   0.965491 0.282767 0.033296 -0.112538
C38   C     C_R   0.282766 0.034509 0.033296 -0.112542
C39   C     C_R   0.034508 0.717233 0.033297 -0.112539
C40   C     C_R   0.717234 0.965490 0.033296 -0.112542
C41   C     C_R   0.500000 0.313427 0.500000 -0.089002
C42   C     C_R   0.686573 0.500000 0.500000 -0.089002
C43   C     C_R   0.500000 0.686573 0.500000 -0.089003
C44   C     C_R   0.313427 0.500000 0.500000 -0.089003
C45   C     C_R   1.000000 0.813427 0.000000 -0.089002
C46   C     C_R   0.186573 0.000000 1.000000 -0.089002
C47   C     C_R   1.000000 0.186573 0.000000 -0.089003
C48   C     C_R   0.813427 0.000000 1.000000 -0.089003
C49   C     C_R   0.500000 0.185167 0.500000 -0.109412
C50   C     C_R   0.814833 0.500000 0.500000 -0.109412
C51   C     C_R   0.500000 0.814833 0.500000 -0.109413
C52   C     C_R   0.185167 0.500000 0.500000 -0.109413
C53   C     C_R   1.000000 0.685167 0.000000 -0.109412
C54   C     C_R   0.314833 0.000000 1.000000 -0.109412
C55   C     C_R   0.000000 0.314833 1.000000 -0.109413
C56   C     C_R   0.685167 1.000000 0.000000 -0.109413
C57   C     C_R   0.619883 0.500000 0.500000 1.091874
C58   C     C_R   0.500000 0.619883 0.500000 1.091874
C59   C     C_R   0.380117 0.500000 0.500000 1.091874
C60   C     C_R   0.500000 0.380117 0.500000 1.091874
C61   C     C_R   0.119883 1.000000 1.000000 1.091874
C62   C     C_R   1.000000 0.119883 0.000000 1.091874
C63   C     C_R   0.880117 0.000000 0.000000 1.091874
C64   C     C_R   0.000000 0.880117 0.000000 1.091874
C65   C     C_R   0.500000 1.000000 0.415428 0.933126
C66   C     C_R   1.000000 0.500000 0.415428 0.933137
C67   C     C_R   0.500000 1.000000 0.584572 0.933137
C68   C     C_R   0.000000 0.500000 0.584572 0.933126
C69   C     C_R   1.000000 0.500000 0.915428 0.933126
C70   C     C_R   0.500000 0.000000 0.915428 0.933137
C71   C     C_R   1.000000 0.500000 0.084572 0.933136
C72   C     C_R   0.500000 1.000000 0.084572 0.933126
C73   C     C_1   0.500000 1.000000 0.364139 -0.078551
C74   C     C_1   0.000000 0.500000 0.364139 -0.078549
C75   C     C_1   0.500000 0.000000 0.635861 -0.078549
C76   C     C_1   1.000000 0.500000 0.635861 -0.078552
C77   C     C_1   0.000000 0.500000 0.864139 -0.078551
C78   C     C_1   0.500000 0.000000 0.864139 -0.078549
C79   C     C_1   1.000000 0.500000 0.135861 -0.078549
C80   C     C_1   0.500000 1.000000 0.135861 -0.078552
C81   C     C_1   0.500000 1.000000 0.321649 0.016419
C82   C     C_1   1.000000 0.500000 0.321649 0.016418
C83   C     C_1   0.500000 0.000000 0.678350 0.016418
C84   C     C_1   1.000000 0.500000 0.678350 0.016419
C85   C     C_1   0.000000 0.500000 0.821650 0.016419
C86   C     C_1   0.500000 0.000000 0.821650 0.016418
C87   C     C_1   1.000000 0.500000 0.178350 0.016418
C88   C     C_1   0.500000 1.000000 0.178350 0.016419
C89   C     C_1   0.500000 1.000000 0.271247 0.019660
C90   C     C_1   1.000000 0.500000 0.271247 0.019659
C91   C     C_1   0.500000 0.000000 0.728753 0.019659
C92   C     C_1   1.000000 0.500000 0.728753 0.019660
C93   C     C_1   1.000000 0.500000 0.771247 0.019660
C94   C     C_1   0.500000 1.000000 0.771247 0.019659
C95   C     C_1   1.000000 0.500000 0.228753 0.019659
C96   C     C_1   0.500000 1.000000 0.228753 0.019660
C97   C     C_R   0.436304 0.187488 0.429412 0.602428
C98   C     C_R   0.812513 0.436307 0.429410 0.602426
C99   C     C_R   0.563698 0.812512 0.429412 0.602429
C100  C     C_R   0.187488 0.563694 0.429411 0.602427
C101  C     C_R   0.436306 0.812512 0.570589 0.602427
C102  C     C_R   0.812512 0.563696 0.570588 0.602428
C103  C     C_R   0.563693 0.187487 0.570590 0.602426
C104  C     C_R   0.187488 0.436302 0.570588 0.602428
C105  C     C_R   0.936304 0.687488 0.929412 0.602428
C106  C     C_R   0.312513 0.936307 0.929410 0.602426
C107  C     C_R   0.063698 0.312512 0.929412 0.602429
C108  C     C_R   0.687488 0.063694 0.929411 0.602427
C109  C     C_R   0.936306 0.312512 0.070589 0.602427
C110  C     C_R   0.312511 0.063696 0.070588 0.602428
C111  C     C_R   0.063693 0.687487 0.070590 0.602426
C112  C     C_R   0.687488 0.936302 0.070587 0.602428
C113  C     C_R   0.394220 0.218634 0.402421 -0.276612
C114  C     C_R   0.781368 0.394226 0.402418 -0.276610
C115  C     C_R   0.605783 0.781367 0.402422 -0.276613
C116  C     C_R   0.218632 0.605776 0.402419 -0.276614
C117  C     C_R   0.394224 0.781368 0.597581 -0.276614
C118  C     C_R   0.781366 0.605780 0.597579 -0.276612
C119  C     C_R   0.605774 0.218632 0.597582 -0.276610
C120  C     C_R   0.218633 0.394217 0.597578 -0.276613
C121  C     C_R   0.894220 0.718634 0.902421 -0.276612
C122  C     C_R   0.281368 0.894226 0.902418 -0.276610
C123  C     C_R   0.105783 0.281367 0.902422 -0.276613
C124  C     C_R   0.718632 0.105776 0.902419 -0.276614
C125  C     C_R   0.894224 0.281368 0.097581 -0.276614
C126  C     C_R   0.281366 0.105780 0.097579 -0.276612
C127  C     C_R   0.105774 0.718632 0.097582 -0.276610
C128  C     C_R   0.718633 0.894217 0.097578 -0.276613
C129  C     C_R   0.380175 0.279183 0.411689 -0.289835
C130  C     C_R   0.720818 0.380180 0.411686 -0.289836
C131  C     C_R   0.619828 0.720817 0.411691 -0.289835
C132  C     C_R   0.279182 0.619822 0.411687 -0.289835
C133  C     C_R   0.380178 0.720818 0.588313 -0.289835
C134  C     C_R   0.720817 0.619825 0.588311 -0.289835
C135  C     C_R   0.619820 0.279182 0.588314 -0.289836
C136  C     C_R   0.279183 0.380172 0.588309 -0.289835
C137  C     C_R   0.880175 0.779183 0.911689 -0.289835
C138  C     C_R   0.220818 0.880180 0.911686 -0.289836
C139  C     C_R   0.119828 0.220817 0.911691 -0.289835
C140  C     C_R   0.779182 0.119822 0.911687 -0.289835
C141  C     C_R   0.880178 0.220818 0.088313 -0.289835
C142  C     C_R   0.220817 0.119825 0.088311 -0.289835
C143  C     C_R   0.119820 0.779182 0.088314 -0.289836
C144  C     C_R   0.779183 0.880172 0.088309 -0.289835
C145  C     C_R   0.411815 0.310678 0.445509 0.631225
C146  C     C_R   0.689323 0.411817 0.445507 0.631217
C147  C     C_R   0.588186 0.689322 0.445510 0.631225
C148  C     C_R   0.310677 0.588183 0.445508 0.631218
C149  C     C_R   0.411816 0.689322 0.554492 0.631218
C150  C     C_R   0.689322 0.588185 0.554491 0.631224
C151  C     C_R   0.588183 0.310677 0.554493 0.631217
C152  C     C_R   0.310678 0.411814 0.554489 0.631225
C153  C     C_R   0.911815 0.810678 0.945509 0.631225
C154  C     C_R   0.189323 0.911817 0.945507 0.631217
C155  C     C_R   0.088186 0.189322 0.945510 0.631225
C156  C     C_R   0.810677 0.088183 0.945508 0.631218
C157  C     C_R   0.911816 0.189323 0.054492 0.631218
C158  C     C_R   0.189322 0.088185 0.054490 0.631224
C159  C     C_R   0.088182 0.810677 0.054492 0.631217
C160  C     C_R   0.810678 0.911814 0.054490 0.631225
Cu1   Cu    Cu3+1 0.561800 0.000000 0.500000 1.061685
Cu2   Cu    Cu3+1 1.000000 0.561800 0.500000 1.061684
Cu3   Cu    Cu3+1 0.438200 0.000000 0.500000 1.061685
Cu4   Cu    Cu3+1 1.000000 0.438200 0.500000 1.061685
Cu5   Cu    Cu3+1 0.061800 0.500000 0.000000 1.061685
Cu6   Cu    Cu3+1 0.500000 0.061800 0.000000 1.061684
Cu7   Cu    Cu3+1 0.938200 0.500000 0.000000 1.061685
Cu8   Cu    Cu3+1 0.500000 0.938200 0.000000 1.061685
Cu9   Cu    Cu3+1 0.500000 0.500000 0.542480 1.136543
Cu10  Cu    Cu3+1 0.500000 0.500000 0.457520 1.136543
Cu11  Cu    Cu3+1 1.000000 0.000000 0.042480 1.136543
Cu12  Cu    Cu3+1 1.000000 0.000000 0.957520 1.136543
H1    H     H_    0.345168 0.302263 0.392021 0.194286
H2    H     H_    0.697738 0.345176 0.392016 0.194287
H3    H     H_    0.654834 0.697737 0.392023 0.194286
H4    H     H_    0.302262 0.654826 0.392018 0.194288
H5    H     H_    0.345174 0.697738 0.607982 0.194288
H6    H     H_    0.697737 0.654832 0.607979 0.194286
H7    H     H_    0.654824 0.302262 0.607984 0.194287
H8    H     H_    0.302263 0.345166 0.607977 0.194286
H9    H     H_    0.845168 0.802263 0.892021 0.194286
H10   H     H_    0.197738 0.845176 0.892016 0.194287
H11   H     H_    0.154834 0.197737 0.892023 0.194286
H12   H     H_    0.802262 0.154826 0.892018 0.194288
H13   H     H_    0.845174 0.197738 0.107982 0.194288
H14   H     H_    0.197737 0.154832 0.107979 0.194286
H15   H     H_    0.154824 0.802262 0.107984 0.194287
H16   H     H_    0.802263 0.845166 0.107977 0.194286
O1    O     O_R   0.552190 0.090170 0.499990 -0.560711
O2    O     O_R   0.909830 0.552190 0.499990 -0.560708
O3    O     O_R   0.447810 0.909830 0.499990 -0.560710
O4    O     O_R   0.090170 0.447810 0.499990 -0.560708
O5    O     O_R   0.552190 0.909830 0.500010 -0.560708
O6    O     O_R   0.909830 0.447810 0.500010 -0.560710
O7    O     O_R   0.447810 0.090170 0.500010 -0.560708
O8    O     O_R   0.090170 0.552190 0.500010 -0.560710
O9    O     O_R   0.052190 0.590170 0.999990 -0.560711
O10   O     O_R   0.409830 0.052190 0.999990 -0.560708
O11   O     O_R   0.947810 0.409830 0.999990 -0.560710
O12   O     O_R   0.590170 0.947810 0.999990 -0.560708
O13   O     O_R   0.052190 0.409830 0.000010 -0.560708
O14   O     O_R   0.409830 0.947810 0.000010 -0.560710
O15   O     O_R   0.947810 0.590170 0.000010 -0.560708
O16   O     O_R   0.590170 0.052190 0.000010 -0.560710
O17   O     O_R   0.552190 0.000010 0.438020 -0.552169
O18   O     O_R   0.999990 0.552190 0.438020 -0.552170
O19   O     O_R   0.447810 0.999990 0.438020 -0.552170
O20   O     O_R   0.000010 0.447810 0.438020 -0.552170
O21   O     O_R   0.552190 0.999990 0.561980 -0.552170
O22   O     O_R   0.999990 0.447810 0.561980 -0.552169
O23   O     O_R   0.447810 0.000010 0.561980 -0.552170
O24   O     O_R   0.000010 0.552190 0.561980 -0.552170
O25   O     O_R   0.052190 0.500010 0.938020 -0.552169
O26   O     O_R   0.499990 0.052190 0.938020 -0.552170
O27   O     O_R   0.947810 0.499990 0.938020 -0.552170
O28   O     O_R   0.500010 0.947810 0.938020 -0.552170
O29   O     O_R   0.052190 0.499990 0.061980 -0.552170
O30   O     O_R   0.499990 0.947810 0.061980 -0.552169
O31   O     O_R   0.947810 0.500010 0.061980 -0.552170
O32   O     O_R   0.500010 0.052190 0.061980 -0.552170
O33   O     O_R   0.590140 0.499990 0.535880 -0.553164
O34   O     O_R   0.500010 0.590140 0.535880 -0.553162
O35   O     O_R   0.409860 0.500010 0.535880 -0.553165
O36   O     O_R   0.499990 0.409860 0.535880 -0.553163
O37   O     O_R   0.590140 0.500010 0.464120 -0.553163
O38   O     O_R   0.500010 0.409860 0.464120 -0.553164
O39   O     O_R   0.409860 0.499990 0.464120 -0.553161
O40   O     O_R   0.499990 0.590140 0.464120 -0.553164
O41   O     O_R   0.090140 0.999990 0.035880 -0.553164
O42   O     O_R   0.000010 0.090140 0.035880 -0.553162
O43   O     O_R   0.909860 0.000010 0.035880 -0.553165
O44   O     O_R   0.999990 0.909860 0.035880 -0.553163
O45   O     O_R   0.090140 0.000010 0.964120 -0.553163
O46   O     O_R   0.000010 0.909860 0.964120 -0.553164
O47   O     O_R   0.909860 0.999990 0.964120 -0.553161
O48   O     O_R   0.999990 0.090140 0.964120 -0.553164
H17   H     H_    0.628459 0.195273 0.625383 0.194059
H18   H     H_    0.804725 0.628468 0.625379 0.194058
H19   H     H_    0.371538 0.804727 0.625381 0.194060
H20   H     H_    0.195274 0.371529 0.625377 0.194059
H21   H     H_    0.628471 0.804726 0.374623 0.194059
H22   H     H_    0.804727 0.371541 0.374617 0.194059
H23   H     H_    0.371532 0.195274 0.374621 0.194058
H24   H     H_    0.195273 0.628462 0.374619 0.194060
H25   H     H_    0.128459 0.695273 0.125383 0.194059
H26   H     H_    0.304725 0.128468 0.125379 0.194058
H27   H     H_    0.871538 0.304727 0.125381 0.194060
H28   H     H_    0.695274 0.871529 0.125377 0.194059
H29   H     H_    0.128471 0.304726 0.874623 0.194059
H30   H     H_    0.304727 0.871541 0.874617 0.194059
H31   H     H_    0.871532 0.695274 0.874621 0.194058
H32   H     H_    0.695273 0.128462 0.874619 0.194060
F1    F     F_    0.450168 0.129405 0.416978 -0.696622
F2    F     F_    0.870596 0.450172 0.416977 -0.696626
F3    F     F_    0.549834 0.870595 0.416978 -0.696622
F4    F     F_    0.129404 0.549830 0.416978 -0.696624
F5    F     F_    0.450170 0.870596 0.583022 -0.696624
F6    F     F_    0.870595 0.549832 0.583022 -0.696622
F7    F     F_    0.549828 0.129404 0.583023 -0.696626
F8    F     F_    0.129405 0.450166 0.583021 -0.696622
F9    F     F_    0.950168 0.629405 0.916978 -0.696622
F10   F     F_    0.370596 0.950172 0.916977 -0.696626
F11   F     F_    0.049834 0.370595 0.916978 -0.696622
F12   F     F_    0.629404 0.049830 0.916978 -0.696624
F13   F     F_    0.950170 0.370596 0.083022 -0.696624
F14   F     F_    0.370595 0.049832 0.083022 -0.696622
F15   F     F_    0.049828 0.629404 0.083023 -0.696626
F16   F     F_    0.629405 0.950166 0.083021 -0.696622
F17   F     F_    0.393118 0.368616 0.454285 -0.662112
F18   F     F_    0.631385 0.393119 0.454282 -0.662117
F19   F     F_    0.606883 0.631384 0.454286 -0.662114
F20   F     F_    0.368615 0.606881 0.454282 -0.662118
F21   F     F_    0.393118 0.631384 0.545718 -0.662118
F22   F     F_    0.631384 0.606882 0.545715 -0.662113
F23   F     F_    0.606881 0.368615 0.545718 -0.662116
F24   F     F_    0.368616 0.393117 0.545714 -0.662114
F25   F     F_    0.893118 0.868616 0.954285 -0.662112
F26   F     F_    0.131385 0.893119 0.954282 -0.662117
F27   F     F_    0.106883 0.131384 0.954286 -0.662114
F28   F     F_    0.868615 0.106882 0.954282 -0.662118
F29   F     F_    0.893118 0.131385 0.045718 -0.662118
F30   F     F_    0.131384 0.106882 0.045715 -0.662113
F31   F     F_    0.106881 0.868615 0.045718 -0.662116
F32   F     F_    0.868616 0.893117 0.045714 -0.662114

loop_
_geom_bond_atom_site_label_1
_geom_bond_atom_site_label_2
_ccdc_geom_bond_type
C63   O43   A    
Cu11  Cu12  S    
C116  H24   S    
C82   C90   S    
C23   C45   A    
C100  F4    S    
Cu10  O40   S    
C126  H26   S    
C61   O45   A    
Cu9   Cu10  S    
C148  F20   S    
C20   C36   A    
C69   C77   S    
C116  C132  A    
C69   O27   A    
Cu7   O27   S    
C107  C123  A    
C75   C83   T    
C78   C86   T    
C76   C84   T    
C47   C62   S    
C88   C96   S    
C28   C100  A    
C58   O34   A    
C9    C25   A    
C90   C95   T    
C40   C112  A    
C115  C131  A    
Cu12  O45   S    
C130  H2    S    
C84   C92   S    
C27   C99   A    
C140  H12   S    
C9    C145  A    
C113  C129  A    
C4    C52   S    
C3    O5    A    
C103  C119  A    
C146  F18   S    
C13   C29   A    
C1    O7    A    
C142  C158  A    
C123  H29   S    
C3    O3    A    
C26   C50   A    
C155  F27   S    
C99   C115  A    
C66   O18   A    
C19   C47   A    
C130  C146  A    
C121  H31   S    
Cu9   O36   S    
C70   C78   S    
C44   C59   S    
C22   C38   A    
C18   C46   A    
C106  F10   S    
C71   O31   A    
C153  F25   S    
C132  H4    S    
C121  C137  A    
C143  H15   S    
C19   C35   A    
C4    O4    A    
C16   C32   A    
C32   C52   A    
C99   F3    S    
C86   C94   S    
C43   C58   S    
Cu1   Cu3   S    
C117  C133  A    
C115  H21   S    
C85   C93   S    
C58   O40   A    
Cu6   O26   S    
Cu9   O33   S    
Cu5   O25   S    
Cu1   O5    S    
Cu4   O22   S    
Cu11  O41   S    
C113  H23   S    
C21   C157  A    
C100  C116  A    
C1    O1    A    
C61   O41   A    
C38   C110  A    
C32   C104  A    
C131  C147  A    
C101  F5    S    
C127  H25   S    
C11   C27   A    
C144  C160  A    
C2    C50   S    
C112  F16   S    
C37   C109  A    
Cu4   O6    S    
C118  C134  A    
C89   C96   T    
Cu5   O29   S    
C14   C42   A    
C145  F17   S    
C81   C89   S    
C128  C144  A    
C118  H18   S    
Cu5   O13   S    
C39   C111  A    
Cu3   O7    S    
C30   C50   A    
Cu11  O42   S    
C68   O22   A    
Cu5   Cu7   S    
C79   C87   T    
C80   C88   T    
Cu6   Cu8   S    
C8    C56   S    
C114  C130  A    
Cu1   O17   S    
C102  C118  A    
C31   C49   A    
C17   C33   A    
C74   C82   T    
C142  H14   S    
C60   O36   A    
C42   C57   S    
C73   C81   T    
C136  C152  A    
C27   C51   A    
C141  H13   S    
Cu2   Cu4   S    
C104  C120  A    
Cu12  O48   S    
C33   C53   A    
Cu8   O28   S    
C72   O32   A    
Cu11  O43   S    
C11   C43   A    
C62   O48   A    
C46   C61   S    
C29   C101  A    
C72   O30   A    
C34   C106  A    
C35   C107  A    
C150  F22   S    
C8    O16   A    
C133  C149  A    
C122  C138  A    
C110  F14   S    
Cu1   O1    S    
C152  F24   S    
C65   C73   S    
C125  C141  A    
C64   O44   A    
C3    C51   S    
C119  H17   S    
C48   C63   S    
C57   O33   A    
C22   C158  A    
C40   C56   A    
C17   C153  A    
C14   C30   A    
Cu1   O21   S    
C15   C31   A    
C126  C142  A    
C35   C55   A    
C119  C135  A    
C71   C79   S    
C102  F6    S    
Cu3   O3    S    
C87   C95   S    
C120  C136  A    
C128  H28   S    
C31   C103  A    
C57   O37   A    
Cu6   O10   S    
C64   O46   A    
C36   C56   A    
Cu5   O9    S    
C122  H30   S    
C66   O20   A    
C62   O42   A    
C24   C48   A    
C159  F31   S    
Cu9   O34   S    
C38   C54   A    
C139  C155  A    
C147  F19   S    
C106  C122  A    
C144  H16   S    
C10   C26   A    
C105  C121  A    
C16   C152  A    
C135  H7    S    
C127  C143  A    
C15   C151  A    
C134  H6    S    
C67   O23   A    
C10   C42   A    
C18   C34   A    
C15   C41   A    
C20   C48   A    
C59   O35   A    
C30   C102  A    
C26   C98   A    
C7    C55   S    
C141  C157  A    
C117  H19   S    
C25   C97   A    
C114  H22   S    
C109  F13   S    
C110  C126  A    
C6    C54   S    
Cu7   O15   S    
Cu10  O38   S    
C111  C127  A    
C19   C155  A    
C120  H20   S    
C123  C139  A    
C68   O24   A    
C125  H27   S    
C67   C75   S    
C111  F15   S    
C97   C113  A    
Cu2   O2    S    
C10   C146  A    
C157  F29   S    
Cu6   O32   S    
C13   C43   A    
C139  H11   S    
C129  C145  A    
C131  H3    S    
C6    O10   A    
C29   C51   A    
Cu12  O47   S    
C109  C125  A    
C4    O8    A    
Cu2   O24   S    
C16   C44   A    
Cu11  O44   S    
C137  C153  A    
Cu3   O23   S    
C20   C156  A    
C134  C150  A    
C22   C46   A    
C160  F32   S    
C132  C148  A    
C103  F7    S    
C124  C140  A    
Cu8   O12   S    
C2    O2    A    
C41   C60   S    
C17   C45   A    
C18   C154  A    
C5    O15   A    
Cu6   O16   S    
C5    O9    A    
C24   C160  A    
C156  F28   S    
C6    O14   A    
C65   O19   A    
Cu12  O46   S    
C68   C76   S    
C98   C114  A    
C83   C91   S    
C2    O6    A    
C136  H8    S    
C45   C64   S    
C9    C41   A    
C71   O29   A    
C33   C105  A    
C36   C108  A    
C65   O17   A    
C70   O28   A    
C101  C117  A    
C12   C148  A    
C69   O25   A    
C5    C53   S    
C13   C149  A    
C72   C80   S    
Cu4   O4    S    
C7    O13   A    
C91   C94   T    
C28   C52   A    
C34   C54   A    
C133  H5    S    
C39   C53   A    
C67   O21   A    
C1    C49   S    
C77   C85   T    
C135  C151  A    
C124  H32   S    
C129  H1    S    
Cu3   O19   S    
C92   C93   T    
C24   C40   A    
Cu8   O14   S    
Cu4   O20   S    
C108  C124  A    
C70   O26   A    
C60   O38   A    
C143  C159  A    
C140  C156  A    
C7    O11   A    
C138  H10   S    
Cu9   O35   S    
C25   C49   A    
C104  F8    S    
C112  C128  A    
C8    O12   A    
C63   O47   A    
C14   C150  A    
C37   C55   A    
C97   F1    S    
C158  F30   S    
C21   C37   A    
Cu7   O31   S    
C12   C28   A    
C105  F9    S    
C59   O39   A    
Cu10  O37   S    
Cu2   O8    S    
Cu7   O11   S    
C12   C44   A    
C154  F26   S    
C107  F11   S    
C11   C147  A    
C98   F2    S    
Cu8   O30   S    
C138  C154  A    
Cu10  O39   S    
C108  F12   S    
C151  F23   S    
C23   C39   A    
Cu2   O18   S    
C137  H9    S    
C149  F21   S    
C23   C159  A    
C21   C47   A    
C66   C74   S    
