data_mof_unit_14100.cif
_audit_creation_date              2012-12-10T18:11:35-0500
_audit_creation_method            fapswitch 2.2
_symmetry_space_group_name_H-M    P1
_symmetry_Int_Tables_number       1
_space_group_crystal_system       triclinic
_cell_length_a                    10.51532
_cell_length_b                    12.657165
_cell_length_c                    13.112382
_cell_angle_alpha                 82.37841
_cell_angle_beta                  93.119986
_cell_angle_gamma                 101.854045
_cell_volume                      1692.21000945

loop_
_atom_site_label
_atom_site_type_symbol
_atom_type_description
_atom_site_fract_x
_atom_site_fract_y
_atom_site_fract_z
_atom_type_partial_charge
C1    C     C_R   0.474085 0.440260 0.690363 0.917215
C2    C     C_R   0.475101 0.450135 0.973275 -0.018821
C3    C     C_R   0.447046 0.481644 0.868767 -0.053457
C4    C     C_R   0.741886 0.499961 0.501849 0.846067
C5    C     C_R   0.524098 0.533493 0.036757 -0.060236
C6    C     C_R   0.537378 0.645010 0.995044 -0.093790
C7    C     C_R   0.488667 0.671529 0.896742 -0.299527
C8    C     C_R   0.429654 0.589845 0.838540 0.507941
C9    C     C_R   0.563037 0.511687 0.139853 0.423559
C10   C     C_R   0.599976 0.701454 0.162201 -0.378709
C11   C     C_R   0.442355 0.404635 0.798683 -0.129817
C12   C     C_3   0.067769 0.604293 0.493114 -0.295619
C13   C     C_R   0.270944 0.081421 0.389566 -0.415036
C14   C     C_R   0.666116 0.800682 0.623523 0.020318
C15   C     C_R   0.702010 0.904567 0.652286 -0.254491
C16   C     C_R   0.531480 0.559353 0.311117 0.883966
C17   C     C_R   0.635201 0.984810 0.610096 -0.178430
C18   C     C_R   0.530683 0.961137 0.539106 -0.035272
C19   C     C_R   0.496393 0.853741 0.511258 0.132321
C20   C     C_R   0.459724 0.040307 0.493378 -0.005727
C21   C     C_R   0.341328 0.006633 0.439469 0.068596
C22   C     C_R   0.299463 0.899073 0.427026 -0.381095
C23   C     C_3   0.977528 0.547417 0.582620 -0.355671
C24   C     C_R   0.388462 0.830525 0.440441 0.462686
C25   C     C_R   0.501138 0.151898 0.497312 -0.155399
C26   C     C_R   0.322704 0.191891 0.388185 0.658184
C27   C     C_R   0.257904 0.500054 0.498191 0.957619
C28   C     C_3   0.932917 0.396277 0.506198 -0.288046
C29   C     C_3   0.034411 0.444398 0.585016 0.553416
C30   C     C_3   0.122564 0.500299 0.497354 -0.081249
C31   C     C_3   0.022489 0.454248 0.417108 -0.263994
C32   C     C_3   0.964969 0.556944 0.414907 0.510051
C33   C     C_3   0.986015 0.346817 0.743981 0.094469
C34   C     C_3   0.876860 0.500318 0.502075 -0.106248
C35   C     C_3   0.043032 0.288276 0.838878 -0.840996
C36   C     C_3   0.726080 0.423215 0.200980 0.162691
C37   C     C_3   0.766173 0.313888 0.199571 -0.387005
C38   C     C_3   0.698269 0.226759 0.281694 -0.760956
C39   C     C_3   0.289308 0.086710 0.949423 0.072916
C40   C     C_3   0.186796 0.079633 0.029954 -0.399177
C41   C     C_3   0.060651 0.002086 0.005326 -0.929505
C42   C     C_3   0.236115 0.639725 0.784562 0.092543
C43   C     C_3   0.206342 0.741179 0.718133 -0.335056
C44   C     C_3   0.295713 0.845596 0.744687 -0.857448
C45   C     C_R   0.588809 0.728630 0.055802 0.524142
C46   C     C_3   0.216122 0.251105 0.238680 0.063702
C47   C     C_3   0.204790 0.357583 0.172933 -0.832141
C48   C     C_3   0.339915 0.766775 0.279851 0.059695
C49   C     C_3   0.251472 0.668229 0.239840 -0.311533
C50   C     C_3   0.224201 0.686520 0.124050 -0.993504
C51   C     C_3   0.893988 0.711709 0.335131 0.090791
C52   C     C_3   0.930175 0.793300 0.239997 -0.857696
C53   C     C_3   0.552423 0.904816 0.032911 0.095011
C54   C     C_3   0.629029 0.990156 0.096744 -0.824313
C55   C     C_R   0.567867 0.592521 0.204062 -0.247558
C56   C     C_R   0.426390 0.293609 0.835542 -0.308346
C57   C     C_R   0.419403 0.258983 0.941014 0.503220
C58   C     C_R   0.448982 0.337031 0.009000 -0.202035
H1    H     H_    0.423114 0.233798 0.783032 0.171385
H2    H     H_    0.043927 0.417576 0.349657 0.170781
H3    H     H_    0.125535 0.688324 0.483726 0.167833
H4    H     H_    0.954167 0.584460 0.649596 0.138394
H5    H     H_    0.630329 0.764295 0.211705 0.181230
H6    H     H_    0.486793 0.755250 0.868006 0.192373
H7    H     H_    0.905565 0.288050 0.711241 0.139289
H8    H     H_    0.946703 0.414419 0.768508 0.122412
H9    H     H_    0.123601 0.345109 0.873454 0.250616
H10   H     H_    0.966782 0.256675 0.896781 0.208264
H11   H     H_    0.081139 0.219071 0.817206 0.258044
H12   H     H_    0.446713 0.305480 0.089020 0.216987
H13   H     H_    0.748650 0.449752 0.278396 0.183503
H14   H     H_    0.785680 0.483392 0.143270 0.105040
H15   H     H_    0.742453 0.286301 0.122483 0.223635
H16   H     H_    0.873016 0.324553 0.213340 0.173447
H17   H     H_    0.721055 0.252939 0.359270 0.251386
H18   H     H_    0.732663 0.149819 0.279590 0.222063
H19   H     H_    0.591361 0.210975 0.267316 0.274403
H20   H     H_    0.305359 0.003390 0.945331 0.150930
H21   H     H_    0.252278 0.115475 0.871703 0.132738
H22   H     H_    0.224869 0.050297 0.106997 0.219355
H23   H     H_    0.205473 0.872979 0.390055 0.157159
H24   H     H_    0.165832 0.161734 0.032222 0.216468
H25   H     H_    0.019957 0.029843 0.928862 0.267231
H26   H     H_    0.988292 0.999983 0.064555 0.271559
H27   H     H_    0.078303 0.918515 0.005374 0.262260
H28   H     H_    0.234173 0.651160 0.867503 0.108139
H29   H     H_    0.156255 0.569978 0.772107 0.146784
H30   H     H_    0.217453 0.734151 0.636007 0.242871
H31   H     H_    0.104071 0.746818 0.729429 0.165483
H32   H     H_    0.290504 0.853425 0.827651 0.228419
H33   H     H_    0.265326 0.916819 0.698559 0.248712
H34   H     H_    0.179826 0.053987 0.349283 0.142153
H35   H     H_    0.397358 0.846091 0.725835 0.281906
H36   H     H_    0.118564 0.196637 0.240979 0.141078
H37   H     H_    0.284751 0.213383 0.200699 0.127490
H38   H     H_    0.297957 0.417083 0.175487 0.274036
H39   H     H_    0.180598 0.343061 0.091840 0.198314
H40   H     H_    0.127010 0.392555 0.200981 0.233920
H41   H     H_    0.432456 0.786847 0.240137 0.158219
H42   H     H_    0.293602 0.837972 0.257504 0.115084
H43   H     H_    0.294260 0.594785 0.258447 0.216535
H44   H     H_    0.158409 0.652409 0.279333 0.262521
H45   H     H_    0.587003 0.185448 0.540146 0.141108
H46   H     H_    0.185371 0.761935 0.102723 0.263634
H47   H     H_    0.151212 0.616568 0.100773 0.272364
H48   H     H_    0.314044 0.692402 0.081631 0.258227
H49   H     H_    0.943172 0.748723 0.402910 0.136506
H50   H     H_    0.787750 0.698870 0.344490 0.180073
H51   H     H_    0.894768 0.868949 0.246358 0.208831
H52   H     H_    0.037380 0.813855 0.232885 0.248417
H53   H     H_    0.885634 0.758772 0.169800 0.284611
H54   H     H_    0.461005 0.863381 0.071990 0.109393
H55   H     H_    0.522379 0.947682 0.958925 0.178254
H56   H     H_    0.717620 0.737981 0.656475 0.130809
H57   H     H_    0.715510 0.037153 0.054435 0.259937
H58   H     H_    0.566825 0.047046 0.111998 0.250908
H59   H     H_    0.661656 0.951199 0.171611 0.223791
H60   H     H_    0.875700 0.311663 0.512961 0.153099
H61   H     H_    0.664547 0.063649 0.636465 0.137640
H62   H     H_    0.781128 0.922764 0.707649 0.159019
N1    N     N_R   0.432930 0.222190 0.444670 -0.133805
N2    N     N_R   0.566370 0.776980 0.554790 -0.107019
O1    O     O_R   0.467970 0.366730 0.627150 -0.632064
O2    O     O_3   0.591259 0.411789 0.178862 -0.632313
O3    O     O_3   0.409187 0.150250 0.979717 -0.670059
O4    O     O_3   0.353094 0.615916 0.753298 -0.585767
O5    O     O_3   0.259558 0.271894 0.339503 -0.577928
O6    O     O_3   0.366250 0.741295 0.387073 -0.594038
O7    O     O_3   0.926681 0.611865 0.320886 -0.665696
O8    O     O_3   0.632620 0.834356 0.010020 -0.617871
O9    O     O_R   0.510820 0.544830 0.662520 -0.580701
O10   O     O_R   0.664630 0.410960 0.482340 -0.641070
O11   O     O_R   0.707470 0.589060 0.517710 -0.656556
O12   O     O_R   0.489180 0.455170 0.337480 -0.542899
O13   O     O_R   0.532030 0.633270 0.372850 -0.588860
O14   O     O_R   0.292530 0.410940 0.482290 -0.568430
O15   O     O_R   0.335370 0.589040 0.517660 -0.548076
O16   O     O_3   0.084648 0.386542 0.672036 -0.617075
Zn1   Zn    Zn3+2 0.471390 0.381080 0.476380 0.995333
Zn2   Zn    Zn3+2 0.528610 0.618920 0.523620 0.984607

loop_
_geom_bond_atom_site_label_1
_geom_bond_atom_site_label_2
_ccdc_geom_bond_type
C37   H16   S    
C19   N2    A    
C50   H46   S    
C14   N2    A    
C6    C45   A    
C10   H5    S    
C1    C11   S    
C16   O12   A    
C51   O7    S    
C33   H7    S    
C7    C8    A    
C4    O10   A    
C38   H18   S    
C53   C54   S    
C56   C57   A    
O10   Zn1   S    
C29   O16   S    
C12   C23   S    
C29   C30   S    
C47   H40   S    
C39   O3    S    
C43   H30   S    
C23   C29   S    
C28   C29   S    
C36   O2    S    
C57   O3    S    
C30   C31   S    
C20   C25   A    
C41   H25   S    
O1    Zn1   S    
C9    O2    S    
C35   H10   S    
C15   H62   S    
C18   C19   A    
C27   O15   A    
C44   H35   S    
C23   H4    S    
C46   H37   S    
C51   H50   S    
C54   H58   S    
C50   H47   S    
C47   H38   S    
C40   H22   S    
C9    C55   A    
C26   N1    A    
C52   H52   S    
C36   H13   S    
C28   C34   S    
C45   O8    S    
C21   C22   A    
C12   C32   S    
C27   C30   S    
O14   Zn1   S    
C32   O7    S    
C53   H55   S    
C33   H8    S    
C38   H17   S    
O13   Zn2   S    
C48   H42   S    
O15   Zn2   S    
C4    C34   S    
C51   C52   S    
C22   H23   S    
C40   H24   S    
C46   O5    S    
C3    C8    A    
C49   H44   S    
C42   O4    S    
C58   H12   S    
C52   H53   S    
C14   H56   S    
C41   H26   S    
C32   C34   S    
C31   H2    S    
C43   C44   S    
C1    O1    A    
C5    C9    A    
C37   C38   S    
C48   O6    S    
C31   C32   S    
C46   H36   S    
C35   H9    S    
C33   O16   S    
C23   C34   S    
C54   H57   S    
C10   C45   A    
C17   C18   A    
C13   C21   A    
C43   H31   S    
C10   C55   A    
C44   H33   S    
C42   H28   S    
C53   H54   S    
C8    O4    S    
C48   C49   S    
C13   H34   S    
C22   C24   A    
C13   C26   A    
C2    C5    A    
C42   C43   S    
C27   O14   A    
O12   Zn1   S    
C44   H32   S    
C50   H48   S    
C15   C17   A    
C48   H41   S    
C37   H15   S    
C46   C47   S    
C36   C37   S    
C12   C30   S    
O9    Zn2   S    
C28   C31   S    
C25   H45   S    
C1    O9    A    
C2    C58   A    
C6    C7    A    
C42   H29   S    
C38   H19   S    
C41   H27   S    
C47   H39   S    
C56   H1    S    
N1    Zn1   S    
C2    C3    A    
C16   C55   S    
N2    Zn2   S    
C28   H60   S    
C49   H43   S    
C12   H3    S    
C57   C58   A    
C5    C6    A    
C52   H51   S    
C33   C35   S    
C19   C24   A    
C18   C20   A    
C26   O5    S    
C7    H6    S    
C3    C11   A    
C17   H61   S    
C39   C40   S    
C20   C21   A    
C35   H11   S    
O11   Zn2   S    
C51   H49   S    
C49   C50   S    
C54   H59   S    
C24   O6    S    
C14   C15   A    
C40   C41   S    
C53   O8    S    
C39   H20   S    
C16   O13   A    
C25   N1    A    
C11   C56   A    
C36   H14   S    
C39   H21   S    
C4    O11   A    
