data_mof_unit_30735.cif
_audit_creation_date              2012-10-26T19:40:45-0400
_audit_creation_method            fapswitch 2.2
_symmetry_space_group_name_H-M    P1
_symmetry_Int_Tables_number       1
_space_group_crystal_system       triclinic
_cell_length_a                    9.721843
_cell_length_b                    10.953592
_cell_length_c                    13.378205
_cell_angle_alpha                 89.713213
_cell_angle_beta                  73.838587
_cell_angle_gamma                 89.649038
_cell_volume                      1368.29972418

loop_
_atom_site_label
_atom_site_type_symbol
_atom_type_description
_atom_site_fract_x
_atom_site_fract_y
_atom_site_fract_z
_atom_type_partial_charge
C1    C     C_R   0.499436 0.734400 0.500306 0.552898
C2    C     C_R   0.387318 0.440775 0.808481 -0.026482
C3    C     C_2   0.622293 0.064206 0.485101 0.088071
C4    C     C_R   0.425636 0.481829 0.698185 0.545740
C5    C     C_2   0.504716 0.133002 0.490005 -0.027742
C6    C     C_2   0.617802 0.930204 0.480817 -0.154553
C7    C     C_2   0.496060 0.866182 0.503170 -0.124216
C8    C     C_2   0.052514 0.569564 0.559591 0.005430
C9    C     C_2   0.902826 0.581616 0.548253 0.020809
C10   C     C_R   0.501802 0.265347 0.497191 0.591331
C11   C     C_R   0.575659 0.502214 0.300172 0.541979
C12   C     C_R   0.447410 0.429501 0.973328 0.001089
C13   C     C_R   0.796349 0.512013 0.020310 -0.072724
C14   C     C_R   0.616817 0.500576 0.186246 0.002722
C15   C     C_R   0.243798 0.414965 0.860612 -0.177242
C16   C     C_R   0.204445 0.382619 0.966285 -0.006084
C17   C     C_R   0.303402 0.400147 0.023628 -0.100336
C18   C     C_2   0.143591 0.465630 0.400697 0.724033
C19   C     C_2   0.060909 0.330798 0.018083 0.569907
C20   C     C_2   0.689767 0.317151 0.726426 0.629851
C21   C     C_R   0.492371 0.425657 0.863590 -0.028309
C22   C     C_R   0.550093 0.457716 0.027264 0.028612
C23   C     C_R   0.695396 0.473987 0.970160 0.042534
C24   C     C_R   0.740166 0.442085 0.865374 -0.118759
C25   C     C_R   0.640006 0.404044 0.814943 0.013564
C26   C     C_R   0.512933 0.473171 0.135448 -0.117131
C27   C     C_R   0.757743 0.523813 0.128062 -0.078705
Cu1   Cu    Cu3+1 0.361370 0.499980 0.499980 1.026003
Cu2   Cu    Cu3+1 0.638630 0.500020 0.500020 1.039044
H1    H     H_    0.838422 0.549082 0.165892 0.170474
H2    H     H_    0.403770 0.463421 0.181959 0.148782
H3    H     H_    0.163621 0.417661 0.818395 0.124493
H4    H     H_    0.268020 0.382561 0.106090 0.138266
H5    H     H_    0.169282 0.330772 0.295006 0.326564
H6    H     H_    0.032886 0.253873 0.886982 0.299287
H7    H     H_    0.506179 0.217869 0.762808 0.290408
H8    H     H_    0.791184 0.084521 0.543880 0.270447
H9    H     H_    0.831830 0.092644 0.412760 0.232708
H10   H     H_    0.405213 0.092787 0.485806 0.078411
H11   H     H_    0.720309 0.882713 0.461008 0.151724
H12   H     H_    0.391116 0.908337 0.525605 0.104232
H13   H     H_    0.076874 0.620881 0.621615 0.108688
H14   H     H_    0.838768 0.659448 0.584050 0.127271
H15   H     H_    0.897169 0.418395 0.484303 0.267979
H16   H     H_    0.853799 0.436387 0.826029 0.137275
H17   H     H_    0.906320 0.528691 0.976343 0.116603
N1    N     N_2   0.152660 0.501340 0.501130 -0.217993
N2    N     N_2   0.846520 0.501370 0.501160 -0.307386
N3    N     N_3   0.757149 0.119386 0.481811 -0.527604
O1    O     O_R   0.382960 0.678040 0.499980 -0.504868
O2    O     O_R   0.178442 0.345799 0.367560 -0.675076
O3    O     O_2   0.012694 0.338369 0.112458 -0.479818
O4    O     O_R   0.980025 0.269644 0.962353 -0.662220
O5    O     O_2   0.813301 0.321279 0.671841 -0.498694
O6    O     O_R   0.600799 0.225390 0.707404 -0.666680
O7    O     O_R   0.617100 0.678080 0.500020 -0.507866
O8    O     O_R   0.325800 0.499940 0.650950 -0.519138
O9    O     O_R   0.559930 0.499980 0.650990 -0.497979
O10   O     O_R   0.382900 0.321920 0.499980 -0.486882
O11   O     O_R   0.617040 0.321960 0.500020 -0.425002
O12   O     O_R   0.440070 0.500020 0.349010 -0.494458
O13   O     O_R   0.674200 0.500060 0.349050 -0.484560
O14   O     O_2   0.112488 0.540366 0.342037 -0.528721

loop_
_geom_bond_atom_site_label_1
_geom_bond_atom_site_label_2
_ccdc_geom_bond_type
C12   C17   A    
C4    O8    A    
C10   O11   A    
C23   C24   A    
Cu1   N1    S    
C6    C7    D    
C8    C9    S    
Cu2   O7    S    
C14   C27   A    
H6    O4    S    
H8    N3    S    
C1    O1    A    
C2    C4    S    
Cu2   O11   S    
C11   O13   A    
Cu1   O12   S    
C19   O4    S    
C2    C21   A    
C5    H10   S    
C10   O10   A    
C3    N3    S    
C8    N1    D    
C5    C10   S    
H9    N3    S    
C1    C7    S    
Cu1   O8    S    
C18   N1    S    
C27   H1    S    
C2    C15   A    
H5    O2    S    
C17   H4    S    
C20   O6    S    
C24   H16   S    
Cu2   O9    S    
Cu1   Cu2   S    
C1    O7    A    
C8    H13   S    
C18   O2    S    
C7    H12   S    
C16   C19   S    
C13   H17   S    
C11   C14   S    
C6    H11   S    
C18   O14   D    
C9    H14   S    
C20   C25   S    
Cu2   N2    S    
C15   C16   A    
C12   C21   A    
C12   C22   A    
C26   H2    S    
C24   C25   A    
C13   C23   A    
C9    N2    D    
C20   O5    D    
C22   C26   A    
Cu1   O10   S    
C4    O9    A    
H7    O6    S    
C21   C25   A    
Cu2   O13   S    
C13   C27   A    
C11   O12   A    
C22   C23   A    
Cu1   O1    S    
C19   O3    D    
C3    C6    S    
C14   C26   A    
H15   N2    S    
C16   C17   A    
C3    C5    D    
C15   H3    S    
