data_mof_unit_64157.cif
_audit_creation_date              2012-12-10T19:27:05-0500
_audit_creation_method            fapswitch 2.2
_symmetry_space_group_name_H-M    P1
_symmetry_Int_Tables_number       1
_space_group_crystal_system       triclinic
_cell_length_a                    30.556692
_cell_length_b                    30.556692
_cell_length_c                    27.69929
_cell_angle_alpha                 90.000022
_cell_angle_beta                  90.000025
_cell_angle_gamma                 89.996796
_cell_volume                      25863.1435242

loop_
_atom_site_label
_atom_site_type_symbol
_atom_type_description
_atom_site_fract_x
_atom_site_fract_y
_atom_site_fract_z
_atom_type_partial_charge
C1    C     C_R   0.118380 0.381620 0.250000 -0.092055
C2    C     C_R   0.881630 0.381630 0.250000 -0.205413
C3    C     C_1   0.000000 0.500000 0.525492 0.009405
C4    C     C_1   1.000000 0.500000 0.974508 0.009405
C5    C     C_1   1.000000 0.500000 0.025492 0.009212
C6    C     C_1   0.500000 0.000000 0.974508 0.009212
C7    C     C_1   0.500000 0.000000 0.025492 0.009405
C8    C     C_R   0.155728 0.386236 0.220978 -0.312711
C9    C     C_R   0.884414 0.653865 0.718159 -0.191643
C10   C     C_R   0.386688 0.843838 0.221770 -0.311423
C11   C     C_R   0.653368 0.116063 0.717462 -0.183983
C12   C     C_R   0.844272 0.613765 0.220976 -0.312711
C13   C     C_R   0.381620 0.118380 0.750000 -0.092056
C14   C     C_R   0.115586 0.346134 0.718159 -0.191642
C15   C     C_R   0.613312 0.156162 0.221770 -0.311423
C16   C     C_R   0.346632 0.883937 0.717461 -0.183983
C17   C     C_R   0.156162 0.613312 0.778231 -0.311424
C18   C     C_R   0.883938 0.346631 0.282537 -0.183983
C19   C     C_R   0.386235 0.155728 0.779023 -0.312711
C20   C     C_R   0.653866 0.884414 0.281841 -0.191643
C21   C     C_R   0.843841 0.386684 0.778237 -0.311421
C22   C     C_R   0.116061 0.653370 0.282536 -0.183983
C23   C     C_R   0.613762 0.844270 0.779019 -0.312713
C24   C     C_R   0.618376 0.881624 0.250000 -0.206056
C25   C     C_R   0.346134 0.115586 0.281841 -0.191643
C26   C     C_R   0.655730 0.886238 0.720982 -0.312713
C27   C     C_R   0.384414 0.153866 0.218159 -0.191643
C28   C     C_R   0.886684 0.343841 0.721763 -0.311422
C29   C     C_R   0.153370 0.616061 0.217464 -0.183983
C30   C     C_R   0.344272 0.113765 0.720976 -0.312711
C31   C     C_R   0.615586 0.846134 0.218159 -0.191643
C32   C     C_R   0.113312 0.656162 0.721769 -0.311423
C33   C     C_R   0.846631 0.383938 0.217463 -0.183983
C34   C     C_R   0.656162 0.113312 0.278230 -0.311424
C35   C     C_R   0.881627 0.381627 0.750000 -0.091980
C36   C     C_R   0.383936 0.846632 0.782539 -0.183983
C37   C     C_R   0.886235 0.655728 0.279024 -0.312711
C38   C     C_R   0.153866 0.384414 0.781841 -0.191643
C39   C     C_R   0.343838 0.886688 0.278229 -0.311422
C40   C     C_R   0.616063 0.153368 0.782538 -0.183983
C41   C     C_R   0.113764 0.344272 0.279022 -0.312711
C42   C     C_R   0.846135 0.615586 0.781841 -0.191642
C43   C     C_R   0.188411 0.353909 0.220786 0.407163
C44   C     C_R   0.852341 0.686349 0.717479 0.450241
C45   C     C_R   0.354378 0.811142 0.221614 0.408252
C46   C     C_R   0.118370 0.618370 0.250000 -0.205413
C47   C     C_R   0.685878 0.148101 0.716833 0.422896
C48   C     C_R   0.811589 0.646092 0.220785 0.407163
C49   C     C_R   0.147659 0.313650 0.717480 0.450241
C50   C     C_R   0.645623 0.188858 0.221613 0.408252
C51   C     C_R   0.314122 0.851898 0.716832 0.422897
C52   C     C_R   0.188858 0.645623 0.778387 0.408253
C53   C     C_R   0.851900 0.314121 0.283166 0.422897
C54   C     C_R   0.353908 0.188410 0.779215 0.407163
C55   C     C_R   0.686350 0.852341 0.282520 0.450240
C56   C     C_R   0.811146 0.354374 0.778393 0.408252
C57   C     C_R   0.618380 0.881620 0.750000 -0.092054
C58   C     C_R   0.148099 0.685880 0.283165 0.422897
C59   C     C_R   0.646089 0.811587 0.779210 0.407163
C60   C     C_R   0.313650 0.147659 0.282520 0.450240
C61   C     C_R   0.688413 0.853911 0.720790 0.407163
C62   C     C_R   0.352341 0.186350 0.217480 0.450240
C63   C     C_R   0.854374 0.311145 0.721607 0.408252
C64   C     C_R   0.185880 0.648100 0.216835 0.422896
C65   C     C_R   0.311590 0.146092 0.720785 0.407164
C66   C     C_R   0.647659 0.813650 0.217480 0.450240
C67   C     C_R   0.145623 0.688858 0.721613 0.408253
C68   C     C_R   0.381624 0.118376 0.250000 -0.206056
C69   C     C_R   0.814121 0.351900 0.216834 0.422897
C70   C     C_R   0.688858 0.145623 0.278387 0.408253
C71   C     C_R   0.351898 0.814122 0.783168 0.422897
C72   C     C_R   0.853908 0.688410 0.279215 0.407164
C73   C     C_R   0.186350 0.352341 0.782520 0.450241
C74   C     C_R   0.311142 0.854378 0.278386 0.408252
C75   C     C_R   0.648101 0.185878 0.783167 0.422897
C76   C     C_R   0.146091 0.311589 0.279214 0.407163
C77   C     C_R   0.813651 0.647659 0.782521 0.450240
C78   C     C_R   0.183361 0.316638 0.250000 0.080836
C79   C     C_R   0.282311 0.217689 0.250000 0.006910
C80   C     C_R   0.816471 0.683529 0.750000 -0.056314
C81   C     C_R   0.316661 0.816661 0.250000 0.075355
C82   C     C_R   0.683514 0.183514 0.750000 -0.142894
C83   C     C_R   0.816638 0.683361 0.250000 0.080835
C84   C     C_R   0.183529 0.316471 0.750000 -0.056315
C85   C     C_R   0.683339 0.183339 0.250000 0.075355
C86   C     C_R   0.316486 0.816486 0.750000 -0.142894
C87   C     C_R   0.183339 0.683339 0.750000 0.075353
C88   C     C_R   0.816486 0.316486 0.250000 -0.142893
C89   C     C_R   0.316638 0.183361 0.750000 0.080835
C90   C     C_R   0.717472 0.782528 0.750000 0.187149
C91   C     C_R   0.683529 0.816471 0.250000 -0.056314
C92   C     C_R   0.816661 0.316661 0.750000 0.075353
C93   C     C_R   0.183514 0.683514 0.250000 -0.142894
C94   C     C_R   0.683361 0.816639 0.750000 0.080839
C95   C     C_R   0.316471 0.183529 0.250000 -0.056314
C96   C     C_R   0.217685 0.717685 0.250000 -0.066290
C97   C     C_R   0.881624 0.618376 0.750000 -0.206057
C98   C     C_R   0.782574 0.282574 0.750000 0.143734
C99   C     C_R   0.717689 0.782311 0.250000 0.006910
C100  C     C_R   0.282528 0.217472 0.750000 0.187160
C101  C     C_R   0.782315 0.282315 0.250000 -0.066290
C102  C     C_R   0.217426 0.717426 0.750000 0.143727
C103  C     C_R   0.282315 0.782315 0.750000 -0.066290
C104  C     C_R   0.717426 0.217426 0.250000 0.143730
C105  C     C_R   0.217689 0.282311 0.750000 0.006910
C106  C     C_R   0.782528 0.717472 0.250000 0.187160
C107  C     C_R   0.717685 0.217685 0.750000 -0.066290
C108  C     C_R   0.381627 0.881627 0.250000 -0.091978
C109  C     C_R   0.282574 0.782574 0.250000 0.143730
C110  C     C_R   0.782311 0.717689 0.750000 0.006908
C111  C     C_R   0.217472 0.282528 0.250000 0.187159
C112  C     C_R   0.256457 0.289276 0.275924 0.061023
C113  C     C_R   0.743368 0.710938 0.724049 0.020823
C114  C     C_R   0.288168 0.744710 0.278123 0.111040
C115  C     C_R   0.712184 0.255720 0.721759 0.040982
C116  C     C_R   0.743543 0.710724 0.275923 0.061023
C117  C     C_R   0.256631 0.289061 0.724047 0.020825
C118  C     C_R   0.711832 0.255291 0.278122 0.111040
C119  C     C_R   0.618370 0.118370 0.750000 -0.205413
C120  C     C_R   0.287816 0.744279 0.721760 0.040979
C121  C     C_R   0.255292 0.711830 0.721881 0.111042
C122  C     C_R   0.744281 0.287815 0.278243 0.040980
C123  C     C_R   0.289276 0.256457 0.724077 0.061023
C124  C     C_R   0.710938 0.743369 0.275953 0.020825
C125  C     C_R   0.744708 0.288169 0.721880 0.111037
C126  C     C_R   0.255718 0.712186 0.278245 0.040980
C127  C     C_R   0.710723 0.743542 0.724078 0.061028
C128  C     C_R   0.289061 0.256631 0.275954 0.020825
C129  C     C_R   0.756458 0.789277 0.775922 0.061028
C130  C     C_R   0.881620 0.618380 0.250000 -0.092055
C131  C     C_R   0.243369 0.210939 0.224046 0.020825
C132  C     C_R   0.788169 0.244708 0.778120 0.111038
C133  C     C_R   0.212186 0.755718 0.221755 0.040980
C134  C     C_R   0.243543 0.210724 0.775923 0.061023
C135  C     C_R   0.756631 0.789061 0.224047 0.020825
C136  C     C_R   0.211830 0.755292 0.778119 0.111041
C137  C     C_R   0.787814 0.244281 0.221757 0.040980
C138  C     C_R   0.755291 0.211832 0.221878 0.111040
C139  C     C_R   0.244279 0.787816 0.778240 0.040979
C140  C     C_R   0.789276 0.756457 0.224076 0.061023
C141  C     C_R   0.118376 0.381624 0.750000 -0.206057
C142  C     C_R   0.210939 0.243369 0.775953 0.020825
C143  C     C_R   0.244710 0.788167 0.221877 0.111040
C144  C     C_R   0.755720 0.212184 0.778241 0.040982
C145  C     C_R   0.210724 0.243543 0.224076 0.061024
C146  C     C_R   0.789062 0.756632 0.775951 0.020823
C147  C     C_R   0.500000 0.000000 0.120845 0.820883
C148  C     C_R   0.500000 0.000000 0.879155 0.820504
C149  C     C_R   0.000000 0.500000 0.120845 0.820504
C150  C     C_R   1.000000 0.500000 0.879155 0.820883
C151  C     C_R   0.000000 0.500000 0.620845 0.820883
C152  C     C_R   0.618373 0.118373 0.250000 -0.091979
C153  C     C_R   1.000000 0.500000 0.379155 0.820504
C154  C     C_R   0.500000 0.000000 0.620845 0.820504
C155  C     C_R   0.500000 0.000000 0.379155 0.820883
C156  C     C_R   0.415730 0.915730 0.250000 0.851553
C157  C     C_R   0.584269 0.084269 0.750000 0.849906
C158  C     C_R   0.915728 0.584272 0.250000 0.851264
C159  C     C_R   0.084271 0.415729 0.750000 0.855282
C160  C     C_R   0.584270 0.084270 0.250000 0.851553
C161  C     C_R   0.415731 0.915731 0.750000 0.849906
C162  C     C_R   0.084272 0.415728 0.250000 0.851264
C163  C     C_R   0.381630 0.881630 0.750000 -0.205413
C164  C     C_R   0.915729 0.584271 0.750000 0.855282
C165  C     C_R   0.415728 0.084272 0.750000 0.851264
C166  C     C_R   0.584271 0.915729 0.250000 0.855282
C167  C     C_R   0.915730 0.415730 0.750000 0.851554
C168  C     C_R   0.084269 0.584269 0.250000 0.849906
C169  C     C_R   0.584272 0.915728 0.750000 0.851264
C170  C     C_R   0.415729 0.084271 0.250000 0.855282
C171  C     C_R   0.084270 0.584269 0.750000 0.851553
C172  C     C_R   0.915731 0.415731 0.250000 0.849907
C173  C     C_1   0.500000 0.000000 0.430976 -0.135656
C174  C     C_R   0.118373 0.618373 0.750000 -0.091979
C175  C     C_1   0.500000 0.000000 0.569024 -0.136285
C176  C     C_1   1.000000 0.500000 0.430976 -0.136285
C177  C     C_1   1.000000 0.500000 0.569024 -0.135656
C178  C     C_1   1.000000 0.500000 0.930976 -0.135657
C179  C     C_1   1.000000 0.500000 0.069024 -0.136285
C180  C     C_1   0.500000 0.000000 0.930976 -0.136285
C181  C     C_1   0.500000 1.000000 0.069024 -0.135656
C182  C     C_1   0.500000 0.000000 0.474508 0.009405
C183  C     C_1   0.500000 0.000000 0.525492 0.009212
C184  C     C_1   0.000000 0.500000 0.474508 0.009212
H1    H     H_    0.159539 0.414977 0.198474 0.176574
H2    H     H_    0.910784 0.344438 0.307978 0.199981
H3    H     H_    0.739908 0.167799 0.685395 0.351215
H4    H     H_    0.776152 0.614284 0.174140 0.342351
H5    H     H_    0.167606 0.259940 0.685569 0.350042
H6    H     H_    0.613073 0.225061 0.176328 0.342805
H7    H     H_    0.260093 0.832200 0.685393 0.351214
H8    H     H_    0.225061 0.613073 0.823672 0.342805
H9    H     H_    0.832202 0.260090 0.314603 0.351215
H10   H     H_    0.385716 0.223848 0.825860 0.342350
H11   H     H_    0.740059 0.832394 0.314431 0.350042
H12   H     H_    0.774947 0.386918 0.823689 0.342805
H13   H     H_    0.414975 0.159538 0.801529 0.176574
H14   H     H_    0.167796 0.739912 0.314600 0.351215
H15   H     H_    0.614277 0.776145 0.825847 0.342351
H16   H     H_    0.259940 0.167605 0.314431 0.350042
H17   H     H_    0.723855 0.885723 0.674153 0.342351
H18   H     H_    0.332395 0.240060 0.185569 0.350042
H19   H     H_    0.886918 0.274947 0.676311 0.342805
H20   H     H_    0.239912 0.667796 0.185400 0.351215
H21   H     H_    0.276152 0.114284 0.674139 0.342350
H22   H     H_    0.667606 0.759940 0.185569 0.350042
H23   H     H_    0.113073 0.725061 0.676328 0.342805
H24   H     H_    0.656431 0.911631 0.306755 0.200611
H25   H     H_    0.760090 0.332203 0.185397 0.351215
H26   H     H_    0.725061 0.113073 0.323672 0.342805
H27   H     H_    0.332199 0.760093 0.814607 0.351214
H28   H     H_    0.885716 0.723848 0.325860 0.342350
H29   H     H_    0.240060 0.332394 0.814431 0.350042
H30   H     H_    0.274937 0.886929 0.323669 0.342805
H31   H     H_    0.667799 0.239908 0.814605 0.351215
H32   H     H_    0.114282 0.276150 0.325857 0.342351
H33   H     H_    0.759942 0.667607 0.814433 0.350042
H34   H     H_    0.839679 0.415777 0.800107 0.176518
H35   H     H_    0.089215 0.655564 0.307976 0.199981
H36   H     H_    0.585020 0.840457 0.801519 0.176575
H37   H     H_    0.343569 0.088368 0.306755 0.200611
H38   H     H_    0.659543 0.914980 0.698481 0.176575
H39   H     H_    0.411631 0.156431 0.193245 0.200611
H40   H     H_    0.915777 0.339679 0.699893 0.176518
H41   H     H_    0.911631 0.656430 0.693244 0.200611
H42   H     H_    0.155563 0.589215 0.192024 0.199981
H43   H     H_    0.340462 0.085025 0.698471 0.176574
H44   H     H_    0.588369 0.843569 0.193245 0.200611
H45   H     H_    0.084217 0.660327 0.699904 0.176517
H46   H     H_    0.844438 0.410784 0.192022 0.199981
H47   H     H_    0.660327 0.084217 0.300095 0.176518
H48   H     H_    0.410782 0.844440 0.807982 0.199981
H49   H     H_    0.914975 0.659538 0.301529 0.176574
H50   H     H_    0.156430 0.411631 0.806755 0.200611
H51   H     H_    0.339672 0.915784 0.300094 0.176517
H52   H     H_    0.415784 0.839672 0.199906 0.176517
H53   H     H_    0.589217 0.155561 0.807980 0.199981
H54   H     H_    0.085023 0.340460 0.301526 0.176574
H55   H     H_    0.843570 0.588369 0.806756 0.200611
H56   H     H_    0.266999 0.321766 0.338720 0.189432
H57   H     H_    0.290220 0.345120 0.289291 0.205521
H58   H     H_    0.709633 0.655042 0.710893 0.200693
H59   H     H_    0.732799 0.678290 0.661367 0.193966
H60   H     H_    0.317604 0.736098 0.342854 0.208806
H61   H     H_    0.342823 0.711023 0.295929 0.220756
H62   H     H_    0.646383 0.261111 0.715212 0.212811
H63   H     H_    0.655561 0.089217 0.692020 0.199981
H64   H     H_    0.671556 0.235803 0.668331 0.209122
H65   H     H_    0.733000 0.678233 0.338718 0.189432
H66   H     H_    0.709780 0.654879 0.289288 0.205520
H67   H     H_    0.290366 0.344956 0.710887 0.200692
H68   H     H_    0.267198 0.321707 0.661364 0.193968
H69   H     H_    0.682393 0.263905 0.342851 0.208806
H70   H     H_    0.657176 0.288978 0.295924 0.220757
H71   H     H_    0.353617 0.738889 0.715215 0.212812
H72   H     H_    0.328445 0.764196 0.668333 0.209121
H73   H     H_    0.263909 0.682389 0.657155 0.208804
H74   H     H_    0.840462 0.585025 0.198471 0.176574
H75   H     H_    0.288980 0.657173 0.704084 0.220760
H76   H     H_    0.738891 0.353616 0.284792 0.212811
H77   H     H_    0.764200 0.328441 0.331671 0.209122
H78   H     H_    0.321767 0.267000 0.661282 0.189432
H79   H     H_    0.345121 0.290220 0.710712 0.205520
H80   H     H_    0.655044 0.709634 0.289113 0.200691
H81   H     H_    0.678293 0.732802 0.338636 0.193967
H82   H     H_    0.736092 0.317610 0.657153 0.208810
H83   H     H_    0.711020 0.342826 0.704082 0.220752
H84   H     H_    0.261108 0.646385 0.284797 0.212810
H85   H     H_    0.088369 0.343570 0.693245 0.200611
H86   H     H_    0.235798 0.671561 0.331674 0.209122
H87   H     H_    0.678231 0.732997 0.661285 0.189425
H88   H     H_    0.654878 0.709779 0.710716 0.205527
H89   H     H_    0.344956 0.290365 0.289115 0.200691
H90   H     H_    0.321706 0.267197 0.338637 0.193968
H91   H     H_    0.767003 0.821769 0.838715 0.189425
H92   H     H_    0.790221 0.845122 0.789284 0.205527
H93   H     H_    0.209635 0.155044 0.210885 0.200691
H94   H     H_    0.232803 0.178294 0.161363 0.193968
H95   H     H_    0.817610 0.236092 0.842847 0.208810
H96   H     H_    0.584217 0.160327 0.199905 0.176518
H97   H     H_    0.842826 0.211020 0.795918 0.220752
H98   H     H_    0.146385 0.761108 0.215203 0.212810
H99   H     H_    0.171561 0.735798 0.168326 0.209122
H100  H     H_    0.233000 0.178233 0.838718 0.189432
H101  H     H_    0.209780 0.154879 0.789288 0.205520
H102  H     H_    0.790366 0.844956 0.210887 0.200691
H103  H     H_    0.767198 0.821707 0.161364 0.193967
H104  H     H_    0.182389 0.763910 0.842845 0.208803
H105  H     H_    0.157173 0.788980 0.795916 0.220761
H106  H     H_    0.853616 0.238891 0.215208 0.212811
H107  H     H_    0.344440 0.910782 0.692018 0.199981
H108  H     H_    0.828441 0.264200 0.168328 0.209122
H109  H     H_    0.763904 0.182393 0.157149 0.208806
H110  H     H_    0.788978 0.157176 0.204076 0.220757
H111  H     H_    0.238889 0.853618 0.784785 0.212812
H112  H     H_    0.264196 0.828445 0.831667 0.209121
H113  H     H_    0.821767 0.767000 0.161282 0.189432
H114  H     H_    0.845121 0.790220 0.210711 0.205520
H115  H     H_    0.155044 0.209634 0.789113 0.200692
H116  H     H_    0.178293 0.232802 0.838636 0.193968
H117  H     H_    0.236098 0.817604 0.157146 0.208806
H118  H     H_    0.160327 0.584217 0.800096 0.176517
H119  H     H_    0.211023 0.842823 0.204071 0.220757
H120  H     H_    0.761111 0.146383 0.784788 0.212811
H121  H     H_    0.735803 0.171556 0.831669 0.209122
H122  H     H_    0.178234 0.233001 0.161280 0.189432
H123  H     H_    0.154880 0.209780 0.210709 0.205521
H124  H     H_    0.844958 0.790367 0.789107 0.200693
H125  H     H_    0.821710 0.767201 0.838633 0.193966
H126  H     H_    0.223850 0.385718 0.174143 0.342351
H127  H     H_    0.832393 0.740058 0.685567 0.350042
H128  H     H_    0.386929 0.774937 0.176331 0.342805
N1    N     N_3   0.262293 0.329283 0.302285 -0.444018
N2    N     N_3   0.738159 0.326184 0.307323 -0.459935
N3    N     N_3   0.329284 0.262294 0.697716 -0.444018
N4    N     N_3   0.670866 0.737539 0.302185 -0.442754
N5    N     N_3   0.739699 0.326958 0.693243 -0.436457
N6    N     N_3   0.261840 0.673818 0.307326 -0.459935
N7    N     N_3   0.670715 0.737704 0.697719 -0.444011
N8    N     N_3   0.329134 0.262460 0.302186 -0.442754
N9    N     N_3   0.762296 0.829285 0.802281 -0.444012
N10   N     N_3   0.237540 0.170866 0.197814 -0.442754
N11   N     N_3   0.826958 0.239699 0.806757 -0.436457
N12   N     N_3   0.737537 0.670864 0.697819 -0.442753
N13   N     N_3   0.173818 0.761840 0.192674 -0.459935
N14   N     N_3   0.237706 0.170716 0.802284 -0.444018
N15   N     N_3   0.762461 0.829134 0.197815 -0.442754
N16   N     N_3   0.173041 0.760302 0.806755 -0.436453
N17   N     N_3   0.826183 0.238159 0.192677 -0.459935
N18   N     N_3   0.760299 0.173044 0.193239 -0.436454
N19   N     N_3   0.238155 0.826187 0.807317 -0.459935
N20   N     N_3   0.829283 0.762294 0.197716 -0.444018
N21   N     N_3   0.170866 0.237539 0.802185 -0.442754
N22   N     N_3   0.239703 0.826955 0.193236 -0.436454
N23   N     N_3   0.326955 0.739703 0.306764 -0.436454
N24   N     N_3   0.761843 0.173815 0.807319 -0.459935
N25   N     N_3   0.170717 0.237707 0.197715 -0.444018
N26   N     N_3   0.829136 0.762463 0.802181 -0.442753
N27   N     N_3   0.673814 0.261843 0.692681 -0.459935
N28   N     N_3   0.737706 0.670717 0.302284 -0.444018
N29   N     N_3   0.262461 0.329134 0.697815 -0.442754
N30   N     N_3   0.673044 0.260299 0.306761 -0.436454
N31   N     N_3   0.326186 0.738155 0.692683 -0.459935
N32   N     N_3   0.260302 0.673041 0.693245 -0.436453
O1    O     O_3   0.500000 0.000000 0.250000 -0.483716
O2    O     O_R   0.500000 0.036340 0.856210 -0.632823
O3    O     O_R   0.963660 0.500000 0.143790 -0.632823
O4    O     O_R   0.036340 0.500000 0.856210 -0.632639
O5    O     O_R   1.000000 0.536340 0.643790 -0.632639
O6    O     O_R   1.000000 0.463660 0.356210 -0.632822
O7    O     O_R   0.536340 0.000000 0.643790 -0.632822
O8    O     O_R   0.463660 0.000000 0.356210 -0.632638
O9    O     O_R   1.000000 0.463660 0.643790 -0.632639
O10   O     O_R   1.000000 0.536340 0.356210 -0.632823
O11   O     O_R   0.463660 0.000000 0.643790 -0.632823
O12   O     O_3   0.500000 0.000000 0.750000 -0.482870
O13   O     O_R   0.536340 0.000000 0.356210 -0.632639
O14   O     O_R   0.448830 0.912520 0.222210 -0.644660
O15   O     O_R   0.551170 0.087480 0.777790 -0.643959
O16   O     O_R   0.912520 0.551170 0.222210 -0.644789
O17   O     O_R   0.087480 0.448830 0.777790 -0.643943
O18   O     O_R   0.551170 0.087480 0.222210 -0.644659
O19   O     O_R   0.448830 0.912520 0.777790 -0.643959
O20   O     O_R   0.087480 0.448830 0.222210 -0.644790
O21   O     O_R   0.912520 0.551170 0.777790 -0.643942
O22   O     O_R   0.448830 0.087480 0.777790 -0.644789
O23   O     O_3   1.000000 0.500000 0.250000 -0.482870
O24   O     O_R   0.551170 0.912520 0.222210 -0.643943
O25   O     O_R   0.912520 0.448830 0.777790 -0.644659
O26   O     O_R   0.087480 0.551170 0.222210 -0.643959
O27   O     O_R   0.551170 0.912520 0.777790 -0.644790
O28   O     O_R   0.448830 0.087480 0.222210 -0.643943
O29   O     O_R   0.087480 0.551170 0.777790 -0.644660
O30   O     O_R   0.912520 0.448830 0.222210 -0.643959
O31   O     O_R   0.948830 0.412520 0.722210 -0.644660
O32   O     O_R   0.051170 0.587480 0.277790 -0.643959
O33   O     O_R   0.412520 0.051170 0.722210 -0.644789
O34   O     O_3   1.000000 0.500000 0.750000 -0.483716
O35   O     O_R   0.587480 0.948830 0.277790 -0.643943
O36   O     O_R   0.051170 0.587480 0.722210 -0.644659
O37   O     O_R   0.948830 0.412520 0.277790 -0.643959
O38   O     O_R   0.587480 0.948830 0.722210 -0.644790
O39   O     O_R   0.412520 0.051170 0.277790 -0.643943
O40   O     O_R   0.948830 0.587480 0.277790 -0.644789
O41   O     O_R   0.051170 0.412520 0.722210 -0.643942
O42   O     O_R   0.412520 0.948830 0.277790 -0.644659
O43   O     O_R   0.587480 0.051170 0.722210 -0.643959
O44   O     O_R   0.051170 0.412520 0.277790 -0.644790
O45   O     O_R   0.500000 0.036340 0.143790 -0.632639
O46   O     O_R   0.948830 0.587480 0.722210 -0.643943
O47   O     O_R   0.587480 0.051170 0.277790 -0.644660
O48   O     O_R   0.412520 0.948830 0.722210 -0.643959
O49   O     O_3   0.225336 0.357798 0.192318 -0.757818
O50   O     O_3   0.857609 0.719845 0.684400 -0.746826
O51   O     O_3   0.358733 0.773736 0.194006 -0.757127
O52   O     O_3   0.719004 0.143209 0.683234 -0.752889
O53   O     O_3   0.774666 0.642204 0.192315 -0.757818
O54   O     O_3   0.142390 0.280154 0.684401 -0.746825
O55   O     O_3   0.641268 0.226263 0.194004 -0.757127
O56   O     O_R   0.500000 0.963660 0.856210 -0.632822
O57   O     O_3   0.280997 0.856789 0.683232 -0.752889
O58   O     O_3   0.226263 0.641268 0.805997 -0.757128
O59   O     O_3   0.856792 0.280994 0.316764 -0.752890
O60   O     O_3   0.357796 0.225334 0.807685 -0.757818
O61   O     O_3   0.719846 0.857610 0.315599 -0.746825
O62   O     O_3   0.773744 0.358725 0.806009 -0.757128
O63   O     O_3   0.143206 0.719008 0.316762 -0.752890
O64   O     O_3   0.642199 0.774661 0.807675 -0.757821
O65   O     O_3   0.280154 0.142390 0.315598 -0.746825
O66   O     O_3   0.725339 0.857801 0.692325 -0.757820
O67   O     O_R   0.036340 0.500000 0.143790 -0.632823
O68   O     O_3   0.357610 0.219846 0.184402 -0.746825
O69   O     O_3   0.858725 0.273744 0.693991 -0.757127
O70   O     O_3   0.219008 0.643206 0.183238 -0.752890
O71   O     O_3   0.274666 0.142204 0.692315 -0.757818
O72   O     O_3   0.642390 0.780154 0.184401 -0.746825
O73   O     O_3   0.141268 0.726263 0.694003 -0.757128
O74   O     O_3   0.780994 0.356792 0.183236 -0.752890
O75   O     O_3   0.726263 0.141268 0.305996 -0.757128
O76   O     O_3   0.356789 0.780997 0.816768 -0.752890
O77   O     O_3   0.857796 0.725334 0.307685 -0.757818
O78   O     O_R   0.963660 0.500000 0.856210 -0.632639
O79   O     O_3   0.219846 0.357610 0.815599 -0.746825
O80   O     O_3   0.273736 0.858733 0.305994 -0.757127
O81   O     O_3   0.643209 0.219004 0.816766 -0.752889
O82   O     O_3   0.142202 0.274664 0.307682 -0.757818
O83   O     O_3   0.780155 0.642391 0.815600 -0.746825
O84   O     O_R   0.500000 0.963660 0.143790 -0.632638
Zn1   Zn    Zn3+2 0.448040 0.000000 0.289870 0.982526
Zn2   Zn    Zn3+2 0.051960 0.500000 0.210130 0.981361
Zn3   Zn    Zn3+2 0.500000 0.051960 0.789870 0.981361
Zn4   Zn    Zn3+2 0.500000 0.948040 0.210130 0.982526
Zn5   Zn    Zn3+2 0.051960 0.500000 0.789870 0.982526
Zn6   Zn    Zn3+2 0.948040 0.500000 0.210130 0.981361
Zn7   Zn    Zn3+2 0.500000 0.948040 0.789870 0.981361
Zn8   Zn    Zn3+2 0.500000 0.051960 0.210130 0.982526
Zn9   Zn    Zn3+2 0.551960 0.000000 0.710130 0.981361
Zn10  Zn    Zn3+2 1.000000 0.551960 0.289870 0.981361
Zn11  Zn    Zn3+2 1.000000 0.448040 0.710130 0.982526
Zn12  Zn    Zn3+2 0.551960 0.000000 0.289870 0.982526
Zn13  Zn    Zn3+2 0.448040 0.000000 0.710130 0.981361
Zn14  Zn    Zn3+2 1.000000 0.448040 0.289870 0.981361
Zn15  Zn    Zn3+2 1.000000 0.551960 0.710130 0.982526
Zn16  Zn    Zn3+2 0.948040 0.500000 0.789870 0.982526

loop_
_geom_bond_atom_site_label_1
_geom_bond_atom_site_label_2
_ccdc_geom_bond_type
C132  C144  A    
O48   Zn13  S    
O23   Zn2   S    
C67   O73   S    
C162  O20   A    
C65   C89   A    
H127  O50   S    
H58   N12   S    
C15   H96   S    
C63   O69   S    
C56   O62   S    
C153  O10   A    
C149  C179  S    
C58   O63   S    
C54   O60   S    
C39   C74   A    
C182  C183  S    
C5    C179  T    
C27   C68   A    
C23   H36   S    
C171  O36   A    
O16   Zn6   S    
C62   O68   S    
O9    Zn11  S    
C25   C60   A    
C3    C184  S    
C36   C71   A    
C33   C69   A    
C147  C181  S    
H73   N32   S    
C29   C64   A    
C62   C95   A    
C55   C91   A    
O47   Zn12  S    
C30   H43   S    
C17   C52   A    
C161  C163  S    
H7    O57   S    
C48   O53   S    
C41   H54   S    
O42   Zn1   S    
C122  N2    S    
C143  N22   S    
O1    Zn12  S    
C13   C30   A    
O40   Zn10  S    
C114  N23   S    
C42   C97   A    
C64   O70   S    
C101  C137  A    
C61   C94   A    
H59   N12   S    
C147  O45   A    
O56   Zn7   S    
C73   O79   S    
C97   C164  S    
O15   Zn3   S    
C84   C105  S    
C116  N28   S    
C161  O48   A    
C69   C88   A    
C12   C130  A    
C1    C41   A    
C173  C182  T    
H66   N28   S    
C172  O37   A    
C74   C81   A    
C53   O59   S    
C175  C183  T    
C112  N1    S    
C176  C184  T    
C26   C61   A    
C45   C81   A    
C4    C5    S    
C144  N24   S    
C22   C58   A    
O36   Zn15  S    
C40   C75   A    
C37   H49   S    
C6    C7    S    
C21   C35   A    
C148  O56   A    
C27   H39   S    
C101  C122  A    
C172  O30   A    
H81   N4    S    
H120  N24   S    
C118  N30   S    
H80   N4    S    
C41   C76   A    
O43   Zn9   S    
H20   O70   S    
C170  O28   A    
H91   N9    S    
H68   N29   S    
C26   C57   A    
C71   O76   S    
C166  O24   A    
H56   N1    S    
C28   C63   A    
C40   C119  A    
C17   H118  S    
H87   N7    S    
O27   Zn7   S    
H17   O66   S    
O39   Zn1   S    
C22   H35   S    
C1    C8    A    
C10   C108  A    
C34   H47   S    
C16   C51   A    
H102  N15   S    
C14   H85   S    
C162  O44   A    
C139  N19   S    
O22   Zn3   S    
C23   C59   A    
O35   Zn12  S    
H23   O73   S    
C49   C84   A    
C146  N26   S    
C76   C78   A    
H89   N8    S    
C114  C126  A    
C151  C177  S    
H95   N11   S    
C50   O55   S    
C118  C122  A    
H105  N16   S    
C90   C129  A    
C141  C159  S    
C98   C125  A    
H94   N10   S    
C28   C35   A    
C26   H38   S    
C36   C163  A    
C52   O58   S    
C78   C111  S    
C102  C121  A    
H15   O64   S    
C50   C85   A    
C119  C157  S    
O41   Zn11  S    
H57   N1    S    
C31   H44   S    
C70   O75   S    
C29   H42   S    
H79   N3    S    
C113  N12   S    
C100  C134  A    
C43   O49   S    
O21   Zn16  S    
C39   C108  A    
O8    Zn1   S    
C7    C181  T    
O44   Zn14  S    
C105  C142  A    
C34   C152  A    
C133  N13   S    
C59   O64   S    
O25   Zn16  S    
O33   Zn13  S    
O37   Zn14  S    
C167  O25   A    
C129  N9    S    
C60   C95   A    
C27   C62   A    
C71   C86   A    
H84   N6    S    
C72   O77   S    
O34   Zn16  S    
C154  O11   A    
C28   H40   S    
C79   C131  A    
C10   C45   A    
C66   O72   S    
C96   C126  A    
H124  N26   S    
C159  O17   A    
C155  O8    A    
C109  C114  A    
C169  O27   A    
C32   C67   A    
O5    Zn15  S    
C19   C54   A    
H88   N7    S    
O28   Zn8   S    
C16   H107  S    
C123  N3    S    
C38   C141  A    
C158  O40   A    
C51   O57   S    
H5    O54   S    
O11   Zn13  S    
C120  C121  A    
C23   C57   A    
C60   O65   S    
C6    C180  T    
C151  O5    A    
C4    C178  T    
C75   O81   S    
C75   C82   A    
H11   O61   S    
H25   O74   S    
C10   H52   S    
C48   C83   A    
H64   N27   S    
H113  N20   S    
C165  O22   A    
O32   Zn10  S    
C131  C145  A    
C140  N20   S    
C131  N10   S    
H26   O75   S    
H31   O81   S    
O26   Zn2   S    
C42   C77   A    
C149  O3    A    
H76   N2    S    
C9    H41   S    
O1    Zn4   S    
C91   C99   S    
C110  C146  A    
C70   C85   A    
C2    C172  S    
C99   C124  A    
O34   Zn5   S    
H93   N10   S    
C31   C66   A    
C11   C47   A    
C103  C120  A    
H97   N11   S    
C8    C43   A    
C45   O51   S    
C77   O83   S    
H19   O69   S    
C43   C78   A    
C76   O82   S    
C46   C168  S    
H77   N2    S    
C167  O31   A    
H116  N21   S    
C58   C93   A    
H67   N29   S    
H9    O59   S    
H86   N6    S    
H33   O83   S    
H65   N28   S    
H22   O72   S    
C150  O4    A    
C125  N5    S    
C18   C53   A    
C68   C170  S    
C127  N7    S    
C111  C112  A    
C128  N8    S    
C90   C127  A    
H117  N22   S    
C59   C94   A    
H111  N19   S    
H4    O53   S    
C34   C70   A    
O19   Zn7   S    
H103  N15   S    
C149  O67   A    
C148  C180  S    
C105  C117  A    
C25   C68   A    
H21   O71   S    
C136  C139  A    
C51   C86   A    
O18   Zn8   S    
C15   C152  A    
O29   Zn5   S    
C90   C94   S    
C104  C118  A    
C135  C140  A    
C171  C174  S    
C19   H13   S    
C13   C19   A    
H72   N31   S    
C44   C80   A    
C157  O15   A    
C142  N21   S    
O17   Zn5   S    
C89   C100  S    
H61   N23   S    
C32   C174  A    
O23   Zn10  S    
C106  C116  A    
H125  N26   S    
C24   C166  S    
C79   C95   S    
C134  C142  A    
C106  C140  A    
C108  C156  S    
O12   Zn3   S    
C99   C135  A    
C153  O6    A    
C109  C143  A    
O12   Zn9   S    
C129  C146  A    
C157  O43   A    
C85   C104  S    
H3    O52   S    
C2    C33   A    
O34   Zn11  S    
C22   C46   A    
C81   C109  S    
C156  O42   A    
C136  N16   S    
H82   N5    S    
H115  N21   S    
C121  N32   S    
C17   C174  A    
H110  N18   S    
C77   C80   A    
C32   H45   S    
C9    C97   A    
C116  C124  A    
C148  O2    A    
H78   N3    S    
C155  O13   A    
C38   H50   S    
C21   C56   A    
C42   H55   S    
H121  N24   S    
C65   O71   S    
C83   C106  S    
C29   C46   A    
C130  C158  S    
C100  C123  A    
C24   C31   A    
C120  N31   S    
C117  N29   S    
H90   N8    S    
C170  O39   A    
C171  O29   A    
C168  O32   A    
C3    C177  T    
C102  C136  A    
C112  C128  A    
C72   C83   A    
H108  N17   S    
H106  N17   S    
C14   C49   A    
C69   O74   S    
C37   C72   A    
C134  N14   S    
H98   N13   S    
H62   N27   S    
H119  N22   S    
C107  C144  A    
O14   Zn4   S    
C169  O38   A    
H122  N25   S    
C132  N11   S    
C79   C128  A    
C152  C160  S    
C2    C18   A    
O31   Zn11  S    
H10   O60   S    
C12   C48   A    
O1    Zn1   S    
C11   C119  A    
C49   O54   S    
C88   C101  S    
C92   C98   S    
H104  N16   S    
C147  O84   A    
C138  N18   S    
C153  C176  S    
C154  C175  S    
C64   C93   A    
C145  N25   S    
C111  C145  A    
C15   C50   A    
H126  O49   S    
H32   O82   S    
H29   O79   S    
O3    Zn6   S    
C156  O14   A    
H30   O80   S    
C37   C130  A    
O1    Zn8   S    
C158  O16   A    
C164  O21   A    
C124  N4    S    
C44   O50   S    
H70   N30   S    
C13   C165  S    
C20   C24   A    
O20   Zn2   S    
C63   C92   A    
C35   C167  S    
C25   H37   S    
H123  N25   S    
C73   C84   A    
H99   N13   S    
C36   H48   S    
C150  C178  S    
C155  C173  S    
C14   C141  A    
H18   O68   S    
H71   N31   S    
C12   H74   S    
C20   C55   A    
C86   C103  S    
C74   O80   S    
C57   C169  S    
C16   C163  A    
C135  N15   S    
C133  C143  A    
H60   N23   S    
C30   C65   A    
H92   N9    S    
C54   C89   A    
C159  O41   A    
C126  N6    S    
H128  O51   S    
O7    Zn9   S    
H16   O65   S    
H8    O58   S    
O2    Zn3   S    
C18   H2    S    
C168  O26   A    
H14   O63   S    
C164  O46   A    
O10   Zn10  S    
C160  O47   A    
C40   H53   S    
C103  C139  A    
O23   Zn6   S    
C87   C102  S    
H69   N30   S    
C166  O35   A    
C115  N27   S    
C61   O66   S    
C160  O18   A    
C82   C107  S    
O13   Zn12  S    
C110  C113  A    
C107  C115  A    
C66   C91   A    
C137  N17   S    
O30   Zn6   S    
O67   Zn2   S    
C93   C96   S    
C21   H34   S    
H12   O62   S    
C20   H24   S    
C98   C132  A    
C33   H46   S    
C150  O78   A    
H101  N14   S    
C9    C44   A    
O24   Zn4   S    
H75   N32   S    
O46   Zn15  S    
C47   C82   A    
C52   C87   A    
H100  N14   S    
O6    Zn14  S    
H83   N5    S    
C161  O19   A    
C47   O52   S    
C1    C162  S    
H27   O76   S    
O45   Zn8   S    
C96   C133  A    
C113  C127  A    
C8    H1    S    
C137  C138  A    
C67   C87   A    
C115  C125  A    
H112  N19   S    
H6    O55   S    
O78   Zn16  S    
C11   H63   S    
O12   Zn13  S    
C117  C123  A    
C39   H51   S    
O12   Zn7   S    
O34   Zn15  S    
C165  O33   A    
H114  N20   S    
C151  O9    A    
C104  C138  A    
C55   O61   S    
C53   C88   A    
O4    Zn5   S    
C56   C92   A    
C80   C110  S    
C154  O7    A    
O38   Zn9   S    
H28   O77   S    
O23   Zn14  S    
H109  N18   S    
O84   Zn4   S    
C38   C73   A    
