data_mof_unit_22280.cif
_audit_creation_date              2012-12-11T15:17:44-0500
_audit_creation_method            fapswitch 2.2
_symmetry_space_group_name_H-M    P1
_symmetry_Int_Tables_number       1
_space_group_crystal_system       triclinic
_cell_length_a                    7.153185
_cell_length_b                    18.426794
_cell_length_c                    24.690344
_cell_angle_alpha                 90.000761
_cell_angle_beta                  90.003977
_cell_angle_gamma                 89.956442
_cell_volume                      3254.43987253

loop_
_atom_site_label
_atom_site_type_symbol
_atom_type_description
_atom_site_fract_x
_atom_site_fract_y
_atom_site_fract_z
_atom_type_partial_charge
O1    O     O_R   0.620180 0.810610 0.187990 -0.543887
O2    O     O_R   0.379820 0.189390 0.812010 -0.529963
O3    O     O_R   0.379820 0.189390 0.687990 -0.543889
O4    O     O_R   0.620180 0.810610 0.312010 -0.529964
O5    O     O_R   0.120180 0.689390 0.312010 -0.543558
O6    O     O_R   0.879820 0.310610 0.687990 -0.529755
O7    O     O_R   0.879820 0.310610 0.812010 -0.543556
O8    O     O_R   0.120180 0.689390 0.187990 -0.529752
O9    O     O_R   0.290420 0.818570 0.311590 -0.545057
O10   O     O_R   0.709580 0.181430 0.688410 -0.532339
O11   O     O_R   0.709580 0.181430 0.811590 -0.545064
O12   O     O_R   0.290420 0.818570 0.188410 -0.532339
O13   O     O_R   0.790420 0.681430 0.188410 -0.545262
O14   O     O_R   0.209580 0.318570 0.811590 -0.532681
O15   O     O_R   0.209580 0.318570 0.688410 -0.545258
O16   O     O_R   0.790420 0.681430 0.311590 -0.532685
H1    H     H_    0.002124 0.614301 0.618031 0.120869
H2    H     H_    0.071244 0.391364 0.382152 0.123229
H3    H     H_    0.998047 0.385708 0.118031 0.120943
H4    H     H_    0.928669 0.608630 0.882152 0.123250
H5    H     H_    0.501644 0.885980 0.881967 0.122221
H6    H     H_    0.571357 0.108505 0.117926 0.121477
H7    H     H_    0.498200 0.114038 0.381976 0.121185
H8    H     H_    0.428728 0.891477 0.617916 0.121518
C1    C     C_R   0.457891 0.836372 0.330900 0.748514
C2    C     C_R   0.540245 0.164102 0.668911 0.750491
C3    C     C_R   0.542119 0.163639 0.830907 0.748532
C4    C     C_R   0.459744 0.835888 0.168904 0.750475
C5    C     C_R   0.958019 0.663605 0.169119 0.748475
C6    C     C_R   0.040136 0.335839 0.831113 0.751041
C7    C     C_R   0.041972 0.336395 0.669119 0.748457
C8    C     C_R   0.959874 0.664161 0.331113 0.751060
O17   O     O_3   0.453640 0.707610 0.250000 -0.378339
O18   O     O_3   0.546360 0.292390 0.750000 -0.378334
O19   O     O_3   0.953640 0.792390 0.250000 -0.378436
O20   O     O_3   0.046360 0.207610 0.750000 -0.378438
V1    V     V_3+5 0.178800 0.757860 0.250000 1.463302
V2    V     V_3+5 0.821200 0.242140 0.750000 1.463304
V3    V     V_3+5 0.678800 0.742140 0.250000 1.462365
V4    V     V_3+5 0.321200 0.257860 0.750000 1.462401
C9    C     C_R   0.045827 0.355612 0.566636 0.120642
C10   C     C_R   0.991552 0.645578 0.433530 0.126848
C11   C     C_R   0.954131 0.644386 0.066636 0.120642
C12   C     C_R   0.008505 0.354424 0.933530 0.126823
C13   C     C_R   0.545253 0.144457 0.933403 0.120534
C14   C     C_R   0.492092 0.854491 0.066491 0.126918
C15   C     C_R   0.454789 0.855550 0.433391 0.120562
C16   C     C_R   0.507857 0.145501 0.566503 0.127066
C17   C     C_R   0.038801 0.385647 0.619317 -0.099002
C18   C     C_R   0.976794 0.615580 0.380932 -0.103875
C19   C     C_R   0.961175 0.614352 0.119317 -0.098974
C20   C     C_R   0.023236 0.384421 0.880932 -0.103859
C21   C     C_R   0.539335 0.114392 0.880716 -0.099201
C22   C     C_R   0.476297 0.884527 0.119098 -0.103846
C23   C     C_R   0.460692 0.885621 0.380707 -0.099265
C24   C     C_R   0.523672 0.115460 0.619108 -0.104045
C25   C     C_R   0.032879 0.462391 0.624136 0.196801
C26   C     C_R   0.996846 0.540008 0.376092 0.194026
C27   C     C_R   0.967122 0.537609 0.124136 0.196809
C28   C     C_R   0.003159 0.459992 0.876092 0.194062
C29   C     C_R   0.535421 0.037598 0.875887 0.196967
C30   C     C_R   0.494319 0.960195 0.123948 0.193072
C31   C     C_R   0.464583 0.962420 0.375884 0.196881
C32   C     C_R   0.505670 0.039787 0.623952 0.193075
C33   C     C_R   0.029427 0.508854 0.576616 0.030761
C34   C     C_R   0.027134 0.494950 0.423775 0.032570
C35   C     C_R   0.970611 0.491147 0.076616 0.030800
C36   C     C_R   0.972860 0.505049 0.923775 0.032502
C37   C     C_R   0.530497 0.991193 0.923414 0.030366
C38   C     C_R   0.526035 0.005170 0.076255 0.032010
C39   C     C_R   0.469477 0.008818 0.423416 0.030617
C40   C     C_R   0.473972 0.994818 0.576253 0.031987
C41   C     C_R   0.038056 0.478292 0.523959 -0.048377
C42   C     C_R   0.025731 0.525223 0.476644 -0.057673
C43   C     C_R   0.961957 0.521709 0.023959 -0.048332
C44   C     C_R   0.974293 0.474778 0.976644 -0.057677
C45   C     C_R   0.538199 0.021785 0.976077 -0.048114
C46   C     C_R   0.525543 0.974867 0.023387 -0.057105
C47   C     C_R   0.461797 0.978218 0.476075 -0.048249
C48   C     C_R   0.474440 0.025130 0.523388 -0.057326
C49   C     C_R   0.049729 0.400918 0.518606 0.051571
C50   C     C_R   0.010140 0.602111 0.481791 0.059337
C51   C     C_R   0.950245 0.599081 0.018606 0.051418
C52   C     C_R   0.989924 0.397892 0.981791 0.059332
C53   C     C_R   0.549368 0.099166 0.981438 0.051354
C54   C     C_R   0.510430 0.897981 0.018235 0.058400
C55   C     C_R   0.450661 0.900835 0.481430 0.051378
C56   C     C_R   0.489515 0.102018 0.518243 0.059303
C57   C     C_R   0.016096 0.585816 0.580237 -0.183169
C58   C     C_R   0.053753 0.419350 0.420041 -0.172952
C59   C     C_R   0.984003 0.414189 0.080237 -0.183298
C60   C     C_R   0.946198 0.580648 0.920041 -0.172578
C61   C     C_R   0.516546 0.914269 0.919786 -0.184490
C62   C     C_R   0.553237 0.080733 0.080001 -0.172223
C63   C     C_R   0.483381 0.085745 0.419794 -0.183786
C64   C     C_R   0.446812 0.919253 0.579993 -0.172193
C65   C     C_R   0.012452 0.632165 0.535162 0.272730
C66   C     C_R   0.057230 0.373137 0.464815 0.212715
C67   C     C_R   0.987631 0.367839 0.035161 0.272793
C68   C     C_R   0.942719 0.626861 0.964815 0.212899
C69   C     C_R   0.512941 0.867913 0.964863 0.273930
C70   C     C_R   0.556750 0.126969 0.035236 0.213140
C71   C     C_R   0.487045 0.132095 0.464874 0.273122
C72   C     C_R   0.443299 0.873023 0.535224 0.213117
N1    N     N_3   0.029603 0.494152 0.677218 -0.691755
H9    H     H_    0.034205 0.486555 0.716469 0.206625
H10   H     H_    0.015421 0.549860 0.679427 0.213252
N2    N     N_3   0.974705 0.507598 0.323007 -0.688628
H11   H     H_    0.965750 0.514100 0.283200 0.204721
H12   H     H_    0.966513 0.451464 0.321592 0.215395
N3    N     N_3   0.970353 0.505847 0.177217 -0.691780
H13   H     H_    0.965756 0.513445 0.216469 0.206613
H14   H     H_    0.984546 0.450138 0.179426 0.213219
N4    N     N_3   0.025302 0.492401 0.823007 -0.688569
H15   H     H_    0.034244 0.485899 0.783200 0.204714
H16   H     H_    0.033388 0.548535 0.821594 0.215527
N5    N     N_3   0.536359 0.005718 0.822797 -0.691312
H17   H     H_    0.541656 0.013223 0.783497 0.206594
H18   H     H_    0.523004 0.949949 0.820644 0.213003
N6    N     N_3   0.468011 0.992808 0.177014 -0.687824
H19   H     H_    0.458338 0.986260 0.216775 0.205198
H20   H     H_    0.471543 0.048981 0.178467 0.215386
N7    N     N_3   0.463680 0.994312 0.322798 -0.691370
H21   H     H_    0.458369 0.986792 0.283508 0.206593
H22   H     H_    0.477015 0.050078 0.320635 0.213022
N8    N     N_3   0.531960 0.007161 0.677013 -0.687858
H23   H     H_    0.541649 0.013727 0.716764 0.205228
H24   H     H_    0.528485 0.950991 0.678476 0.215400
N9    N     N_3   0.008505 0.709317 0.546700 -0.692056
H25   H     H_    0.999186 0.725999 0.587238 0.232194
H26   H     H_    0.033639 0.751059 0.518412 0.275523
N10   N     N_3   0.026151 0.294990 0.451445 -0.613689
H27   H     H_    0.116216 0.283672 0.415709 0.203327
H28   H     H_    0.105578 0.259173 0.479979 0.253497
N11   N     N_3   0.991506 0.290688 0.046696 -0.691575
H29   H     H_    0.997663 0.274006 0.087239 0.231680
H30   H     H_    0.966414 0.248946 0.018411 0.275348
N12   N     N_3   0.973754 0.705006 0.951446 -0.612274
H31   H     H_    0.883697 0.716323 0.915707 0.201444
H32   H     H_    0.894371 0.740829 0.979978 0.252899
N13   N     N_3   0.511534 0.790756 0.953323 -0.686523
H33   H     H_    0.528409 0.774183 0.912831 0.226071
H34   H     H_    0.534412 0.748995 0.981594 0.274589
N14   N     N_3   0.525353 0.205116 0.048628 -0.613848
H35   H     H_    0.615654 0.216350 0.084355 0.203935
H36   H     H_    0.604558 0.240944 0.020100 0.253518
N15   N     N_3   0.490416 0.209249 0.453357 -0.690837
H37   H     H_    0.490368 0.225872 0.412834 0.230509
H38   H     H_    0.465437 0.251015 0.481609 0.274972
N16   N     N_3   0.474718 0.794873 0.548608 -0.614215
H39   H     H_    0.384426 0.783635 0.584332 0.204335
H40   H     H_    0.395498 0.759048 0.520074 0.253686
N17   N     N_3   0.033885 0.278942 0.563156 -0.713795
H41   H     H_    0.124862 0.241743 0.584640 0.242910
H42   H     H_    0.914196 0.263802 0.542599 0.262181
N18   N     N_3   0.976888 0.721050 0.437563 -0.713575
H43   H     H_    0.065100 0.756686 0.414791 0.243252
H44   H     H_    0.849141 0.737765 0.453847 0.251796
N19   N     N_3   0.966055 0.721055 0.063157 -0.713823
H45   H     H_    0.875045 0.758248 0.084623 0.242919
H46   H     H_    0.085736 0.736196 0.042603 0.262264
N20   N     N_3   0.023183 0.278953 0.937563 -0.713543
H47   H     H_    0.934987 0.243314 0.914781 0.243216
H48   H     H_    0.150942 0.262241 0.953848 0.251891
N21   N     N_3   0.533402 0.221113 0.936884 -0.714073
H49   H     H_    0.624626 0.258192 0.915481 0.243004
H50   H     H_    0.413772 0.236251 0.957445 0.262017
N22   N     N_3   0.477383 0.779034 0.062411 -0.713426
H51   H     H_    0.565277 0.743311 0.085297 0.243190
H52   H     H_    0.349603 0.762394 0.046105 0.252017
N23   N     N_3   0.466665 0.778893 0.436866 -0.714024
H53   H     H_    0.375473 0.741809 0.415443 0.242993
H54   H     H_    0.586304 0.763757 0.457430 0.261974
N24   N     N_3   0.522549 0.220959 0.562429 -0.713364
H55   H     H_    0.434643 0.256678 0.585310 0.243199
H56   H     H_    0.650320 0.237603 0.546127 0.252075

loop_
_geom_bond_atom_site_label_1
_geom_bond_atom_site_label_2
_ccdc_geom_bond_type
C25   N1    S    
N23   H53   S    
N8    H23   S    
O5    V1    S    
C38   C46   A    
C11   C51   A    
C41   C42   A    
C28   N4    S    
N15   H37   S    
C10   C50   A    
C11   C19   A    
C44   C52   A    
C47   C55   A    
O4    C1    A    
C35   C43   A    
O9    C1    A    
N11   H29   S    
C34   C58   A    
N21   H49   S    
C45   C46   A    
C33   C57   A    
N1    H10   S    
C13   N21   S    
O17   V3    S    
C70   N14   S    
O12   C4    A    
O18   V4    S    
O8    C5    A    
O13   C5    A    
N18   H43   S    
O19   V1    S    
O14   V4    S    
C42   C50   A    
N20   H47   S    
C11   N19   S    
H8    C64   S    
N7    H22   S    
C39   C63   A    
C49   C66   A    
C34   C42   A    
C33   C41   A    
N2    H11   S    
C30   C38   A    
N11   H30   S    
C72   N16   S    
O12   V1    S    
N24   H55   S    
C20   C28   A    
C27   C35   A    
C37   C45   A    
C26   C34   A    
N3    H13   S    
C63   C71   A    
N10   H27   S    
O9    V1    S    
C23   C31   A    
O1    C4    A    
C27   N3    S    
C16   C56   A    
O2    C3    A    
N17   H42   S    
C30   N6    S    
N7    H21   S    
C12   C20   A    
N22   H52   S    
O6    C7    A    
C13   C21   A    
N21   H50   S    
O7    C6    A    
C48   C56   A    
C14   C54   A    
C15   N23   S    
H6    C62   S    
C12   N20   S    
C7    C17   S    
C41   C49   A    
N6    H20   S    
N4    H15   S    
C9    N17   S    
C71   N15   S    
H2    C58   S    
O20   V4    S    
H1    C57   S    
N14   H36   S    
C61   C69   A    
C4    C22   S    
C22   C30   A    
O14   C6    A    
C29   N5    S    
C10   N18   S    
C39   C47   A    
C47   C48   A    
C57   C65   A    
N13   H34   S    
C18   C26   A    
O11   V2    S    
O19   V3    S    
C43   C44   A    
N23   H54   S    
C31   N7    S    
N19   H45   S    
O4    V3    S    
O11   C3    A    
C9    C49   A    
C14   C22   A    
C35   C59   A    
O10   C2    A    
C67   N11   S    
N3    H14   S    
N24   H56   S    
C8    C18   S    
C68   N12   S    
C10   C18   A    
C16   N24   S    
N22   H51   S    
C31   C39   A    
O3    V4    S    
C32   N8    S    
C51   C68   A    
C64   C72   A    
C50   C65   A    
N16   H40   S    
H4    C60   S    
C36   C44   A    
O8    V1    S    
C21   C29   A    
O20   V2    S    
C56   C71   A    
N6    H19   S    
C60   C68   A    
C15   C23   A    
N9    H25   S    
C5    C19   S    
C29   C37   A    
C16   C24   A    
C6    C20   S    
N8    H24   S    
N15   H38   S    
O18   V2    S    
C52   C67   A    
C69   N13   S    
O3    C2    A    
C1    C23   S    
C25   C33   A    
N14   H35   S    
C12   C52   A    
C2    C24   S    
C17   C25   A    
N4    H16   S    
C3    C21   S    
O15   C7    A    
N12   H32   S    
O16   C8    A    
C9    C17   A    
N1    H9    S    
C37   C61   A    
C13   C53   A    
O10   V2    S    
O5    C8    A    
N5    H18   S    
N19   H46   S    
C14   N22   S    
C65   N9    S    
C40   C48   A    
N20   H48   S    
N13   H33   S    
C43   C51   A    
C24   C32   A    
N2    H12   S    
H5    C61   S    
N18   H44   S    
C36   C60   A    
O7    V2    S    
H7    C63   S    
C26   N2    S    
C32   C40   A    
O17   V1    S    
O15   V4    S    
O13   V3    S    
H3    C59   S    
N12   H31   S    
O1    V3    S    
O16   V3    S    
C45   C53   A    
C55   C72   A    
C40   C64   A    
O2    V4    S    
C19   C27   A    
C28   C36   A    
N10   H28   S    
C46   C54   A    
C66   N10   S    
C38   C62   A    
N16   H39   S    
C59   C67   A    
N17   H41   S    
N5    H17   S    
C54   C69   A    
O6    V2    S    
C58   C66   A    
C53   C70   A    
C62   C70   A    
C15   C55   A    
N9    H26   S    
