data_mof_unit_54342.cif
_audit_creation_date              2012-12-10T17:31:15-0500
_audit_creation_method            fapswitch 2.2
_symmetry_space_group_name_H-M    P1
_symmetry_Int_Tables_number       1
_space_group_crystal_system       triclinic
_cell_length_a                    12.001203
_cell_length_b                    12.874737
_cell_length_c                    15.454769
_cell_angle_alpha                 87.02264
_cell_angle_beta                  116.033178
_cell_angle_gamma                 93.580454
_cell_volume                      2140.68127288

loop_
_atom_site_label
_atom_site_type_symbol
_atom_type_description
_atom_site_fract_x
_atom_site_fract_y
_atom_site_fract_z
_atom_type_partial_charge
C1    C     C_R   0.476859 0.299483 0.497970 0.871989
C2    C     C_R   0.632698 0.971407 0.474319 -0.221282
C3    C     C_R   0.371352 0.136386 0.518297 -0.205408
C4    C     C_R   0.628456 0.863750 0.481354 -0.205707
C5    C     C_R   0.548117 0.133246 0.480683 -0.285122
C6    C     C_R   0.451120 0.866901 0.518237 -0.282460
C7    C     C_R   0.545208 0.026363 0.488188 0.188785
C8    C     C_R   0.454041 0.973779 0.510733 0.187120
C9    C     C_R   0.004689 0.603166 0.413737 -0.342183
C10   C     C_R   0.995001 0.396421 0.585720 -0.338681
C11   C     C_R   0.125313 0.593148 0.422248 0.017140
C12   C     C_R   0.523084 0.700548 0.501920 0.895675
C13   C     C_R   0.874804 0.407007 0.577876 0.015753
C14   C     C_R   0.159285 0.454043 0.536176 -0.056275
C15   C     C_R   0.839946 0.545025 0.462707 -0.063296
C16   C     C_R   0.576473 0.491713 0.680511 0.866686
C17   C     C_R   0.422616 0.501337 0.319497 0.865598
C18   C     C_R   0.038921 0.461912 0.530721 0.093673
C19   C     C_R   0.960535 0.537458 0.468467 0.094273
C20   C     C_R   0.625185 0.484762 0.785126 -0.114780
C21   C     C_R   0.373042 0.498885 0.214938 -0.115279
C22   C     C_R   0.787735 0.524886 0.943326 -0.207605
C23   C     C_R   0.646122 0.518732 0.113472 -0.217971
C24   C     C_R   0.222139 0.553158 0.056266 -0.209880
C25   C     C_R   0.748581 0.516547 0.844490 -0.229386
C26   C     C_R   0.258748 0.541945 0.155143 -0.227734
C27   C     C_R   0.543359 0.456334 0.825855 0.102815
C28   C     C_R   0.447260 0.462268 0.174694 0.087636
C29   C     C_R   0.573655 0.492449 0.918010 0.081246
C30   C     C_R   0.426028 0.500158 0.082181 0.083196
C31   C     C_R   0.700069 0.514510 0.980590 0.139539
C32   C     C_R   0.306373 0.533996 0.019288 0.140373
C33   C     C_R   0.482903 0.505980 0.950284 0.060863
C34   C     C_R   0.360828 0.532444 0.886552 -0.218277
C35   C     C_R   0.519011 0.504494 0.049883 0.061915
C36   C     C_3   0.529898 0.369905 0.222559 -0.368374
C37   C     C_3   0.502254 0.280093 0.153956 -0.875083
C38   C     C_3   0.440292 0.372165 0.779724 -0.391816
C39   C     C_3   0.452954 0.279025 0.848500 -0.871754
C40   C     C_R   0.735403 0.527750 0.078436 -0.229572
C41   C     C_R   0.274700 0.550099 0.921385 -0.230289
C42   C     C_R   0.536536 0.811958 0.502006 -0.056774
C43   C     C_R   0.463135 0.188152 0.497474 -0.048983
C44   C     C_R   0.366754 0.028731 0.524870 -0.220382
H1    H     H_    0.831664 0.544428 0.127740 0.146286
H2    H     H_    0.131706 0.582532 0.009966 0.137078
H3    H     H_    0.676044 0.532762 0.188940 0.146608
H4    H     H_    0.334809 0.549214 0.811034 0.152764
H5    H     H_    0.381001 0.826560 0.535538 0.160595
H6    H     H_    0.618043 0.173630 0.463169 0.158182
H7    H     H_    0.694640 0.821204 0.468546 0.156813
H8    H     H_    0.305574 0.178944 0.531602 0.155773
H9    H     H_    0.296392 0.988682 0.541914 0.138794
H10   H     H_    0.703128 0.011462 0.457358 0.138561
H11   H     H_    0.778626 0.602618 0.414811 0.123444
H12   H     H_    0.183610 0.575802 0.871897 0.147919
H13   H     H_    0.219614 0.395207 0.582613 0.112884
H14   H     H_    0.401111 0.259550 0.119049 0.264019
H15   H     H_    0.534359 0.300530 0.097767 0.265377
H16   H     H_    0.551998 0.210680 0.195081 0.247912
H17   H     H_    0.629861 0.393124 0.253603 0.208684
H18   H     H_    0.512507 0.336427 0.283448 0.213698
H19   H     H_    0.547937 0.249317 0.877708 0.265299
H20   H     H_    0.433520 0.300532 0.908950 0.264942
H21   H     H_    0.385076 0.215650 0.809081 0.245155
H22   H     H_    0.346710 0.402714 0.753568 0.199623
H23   H     H_    0.841843 0.356264 0.620552 0.133651
H24   H     H_    0.444794 0.340136 0.716047 0.208889
H25   H     H_    0.158549 0.644246 0.379964 0.127580
H26   H     H_    0.946642 0.661975 0.364888 0.142264
H27   H     H_    0.053089 0.337595 0.634523 0.146186
H28   H     H_    0.198427 0.567033 0.184755 0.160901
H29   H     H_    0.814049 0.535224 0.814552 0.165150
H30   H     H_    0.884217 0.545395 0.989306 0.138630
N1    N     N_R   0.799120 0.480200 0.517090 -0.096810
N2    N     N_R   0.200880 0.519800 0.482910 -0.093469
O1    O     O_R   0.580150 0.341050 0.504560 -0.630206
O2    O     O_R   0.419850 0.658950 0.495440 -0.623217
O3    O     O_R   0.388090 0.353760 0.493600 -0.626280
O4    O     O_R   0.611910 0.646240 0.506400 -0.620098
O5    O     O_R   0.650890 0.490020 0.640860 -0.611366
O6    O     O_R   0.349110 0.509980 0.359140 -0.610679
O7    O     O_R   0.458830 0.502730 0.629890 -0.619623
O8    O     O_R   0.541170 0.497270 0.370110 -0.624800
Zn1   Zn    Zn3+2 0.628240 0.491510 0.507320 0.929254
Zn2   Zn    Zn3+2 0.371760 0.508490 0.492680 0.933712

loop_
_geom_bond_atom_site_label_1
_geom_bond_atom_site_label_2
_ccdc_geom_bond_type
C15   N1    A    
C21   C26   A    
C27   C29   A    
C26   H28   S    
C14   C18   A    
C2    C7    A    
C7    C8    A    
C15   C19   A    
C39   H20   S    
C3    C43   A    
C30   C35   A    
C36   C37   S    
C24   C26   A    
C18   C19   A    
C11   N2    A    
C38   C39   S    
C20   C25   A    
C27   C38   S    
C23   C40   A    
C29   C33   A    
C1    O1    A    
C31   C40   A    
C17   O6    A    
C12   C42   S    
C44   H9    S    
C1    C43   S    
C13   N1    A    
C9    C19   A    
C22   C25   A    
C12   O2    A    
C32   C41   A    
C37   H14   S    
C10   H27   S    
O2    Zn2   S    
C5    C43   A    
O1    Zn1   S    
C39   H21   S    
C34   C41   A    
C36   H18   S    
N1    Zn1   S    
C40   H1    S    
C3    C44   A    
C23   H3    S    
C22   C31   A    
C4    H7    S    
C38   H22   S    
C9    H26   S    
C2    H10   S    
C5    C7    A    
C6    C8    A    
O6    Zn2   S    
C16   O7    A    
C17   C21   S    
C15   H11   S    
C2    C4    A    
C24   C32   A    
C41   H12   S    
O4    Zn1   S    
C16   C20   S    
C33   C34   A    
O8    Zn1   S    
C9    C11   A    
C37   H15   S    
C21   C28   A    
C38   H24   S    
C23   C35   A    
C1    O3    A    
C5    H6    S    
C34   H4    S    
C22   H30   S    
C36   H17   S    
N2    Zn2   S    
C13   H23   S    
C14   H13   S    
C8    C44   A    
C10   C13   A    
C3    H8    S    
C11   H25   S    
C20   C27   A    
C39   H19   S    
C17   O8    A    
C24   H2    S    
C28   C30   A    
C29   C31   A    
C30   C32   A    
C4    C42   A    
C10   C18   A    
C12   O4    A    
C16   O5    A    
C33   C35   A    
C25   H29   S    
C6    H5    S    
C37   H16   S    
O7    Zn2   S    
C28   C36   S    
C6    C42   A    
O3    Zn2   S    
O5    Zn1   S    
C14   N2    A    
