data_mof_unit_57946.cif
_audit_creation_date              2012-10-26T19:24:16-0400
_audit_creation_method            fapswitch 2.2
_symmetry_space_group_name_H-M    P1
_symmetry_Int_Tables_number       1
_space_group_crystal_system       triclinic
_cell_length_a                    27.793417
_cell_length_b                    10.770926
_cell_length_c                    9.595945
_cell_angle_alpha                 90.131931
_cell_angle_beta                  89.724313
_cell_angle_gamma                 92.502568
_cell_volume                      2869.87087201

loop_
_atom_site_label
_atom_site_type_symbol
_atom_type_description
_atom_site_fract_x
_atom_site_fract_y
_atom_site_fract_z
_atom_type_partial_charge
C1    C     C_R   0.498493 0.262616 0.499916 0.544757
C2    C     C_R   0.971604 0.373151 0.491655 0.018926
C3    C     C_R   0.975701 0.593570 0.419876 0.020975
C4    C     C_R   0.407312 0.501266 0.500479 0.534952
C5    C     C_R   0.948426 0.484728 0.460277 0.009604
C6    C     C_R   0.942687 0.261054 0.506743 0.129060
C7    C     C_R   0.892553 0.266613 0.516172 -0.076958
C8    C     C_R   0.869853 0.378955 0.501171 -0.011076
C9    C     C_R   0.897537 0.487531 0.468759 -0.037750
C10   C     C_R   0.874195 0.598884 0.444086 0.032582
C11   C     C_R   0.823815 0.599786 0.454428 0.397250
C12   C     C_R   0.274735 0.511774 0.608968 -0.019054
C13   C     C_R   0.819512 0.383973 0.510368 0.398052
C14   C     C_R   0.720168 0.485091 0.367396 -0.068417
C15   C     C_R   0.670092 0.486052 0.370334 -0.161427
C16   C     C_R   0.498718 0.737170 0.500134 0.526051
C17   C     C_R   0.671853 0.508064 0.622062 -0.146766
C18   C     C_R   0.722052 0.506420 0.618816 -0.057934
C19   C     C_R   0.746242 0.495122 0.491429 0.249219
C20   C     C_R   0.022520 0.378873 0.507085 0.013348
C21   C     C_R   0.049766 0.484058 0.457154 0.032078
C22   C     C_R   0.026455 0.589127 0.406364 0.017123
C23   C     C_R   0.252487 0.492242 0.480141 0.209259
C24   C     C_R   0.046985 0.286745 0.579155 -0.152788
C25   C     C_R   0.104969 0.684786 0.344303 -0.112784
C26   C     C_R   0.951251 0.704015 0.396856 -0.146160
C27   C     C_R   0.901469 0.706449 0.409158 -0.119068
C28   C     C_R   0.592471 0.499682 0.499599 0.536801
C29   C     C_R   0.054965 0.687071 0.346186 -0.143995
C30   C     C_R   0.421006 0.121038 0.643205 -0.109701
C31   C     C_R   0.384800 0.052079 0.713011 -0.116267
C32   C     C_R   0.384848 0.922935 0.712963 -0.109646
C33   C     C_R   0.421139 0.862084 0.643278 -0.096150
C34   C     C_R   0.100818 0.485278 0.461053 -0.027038
C35   C     C_R   0.458719 0.930017 0.573916 0.032404
C36   C     C_R   0.458628 0.061258 0.573722 0.026194
C37   C     C_R   0.495322 0.128531 0.499653 0.001944
C38   C     C_R   0.529892 0.067383 0.422838 -0.141322
C39   C     C_R   0.530017 0.939324 0.423260 -0.152996
C40   C     C_R   0.174877 0.390492 0.527945 0.397512
C41   C     C_R   0.495534 0.870649 0.500279 0.003943
C42   C     C_R   0.563927 0.665666 0.143354 -0.059020
C43   C     C_R   0.595144 0.748416 0.071342 0.110175
C44   C     C_R   0.594264 0.748391 0.927016 -0.156961
C45   C     C_R   0.124356 0.386938 0.524037 0.027711
C46   C     C_R   0.563441 0.666345 0.855543 -0.116811
C47   C     C_R   0.531221 0.581805 0.924981 0.147949
C48   C     C_R   0.531370 0.581532 0.074419 0.124765
C49   C     C_R   0.470539 0.421601 0.074105 -0.000041
C50   C     C_R   0.470788 0.421133 0.926227 -0.000022
C51   C     C_R   0.178807 0.585132 0.409249 0.400530
C52   C     C_R   0.280487 0.477889 0.360675 -0.070195
C53   C     C_R   0.330494 0.482200 0.369876 -0.167211
C54   C     C_R   0.324985 0.517192 0.620563 0.111235
C55   C     C_3   0.343797 0.436306 0.847761 -0.287216
C56   C     C_R   0.096994 0.289556 0.585485 -0.120901
C57   C     C_3   0.658922 0.785962 0.242350 -0.295283
C58   C     C_3   0.950965 0.044714 0.587948 -0.314290
C59   C     C_R   0.128343 0.585720 0.403972 0.024143
C60   C     C_R   0.353820 0.501429 0.498923 0.003705
C61   C     C_R   0.645426 0.498002 0.497638 -0.001499
Cu1   Cu    Cu3+1 0.500000 0.499990 0.640660 0.914579
Cu2   Cu    Cu3+1 0.500000 0.500010 0.359340 0.926155
H1    H     H_    0.125273 0.762210 0.297513 0.166998
H2    H     H_    0.418833 0.761860 0.642045 0.132600
H3    H     H_    0.446360 0.357328 0.129418 0.114336
H4    H     H_    0.566153 0.672109 0.252951 0.186674
H5    H     H_    0.617922 0.812069 0.868745 0.120547
H6    H     H_    0.566637 0.673716 0.745732 0.187203
H7    H     H_    0.447214 0.355664 0.871181 0.106620
H8    H     H_    0.114085 0.215644 0.640308 0.165344
H9    H     H_    0.738796 0.476258 0.268734 0.122296
H10   H     H_    0.871071 0.180844 0.527852 0.176895
H11   H     H_    0.027874 0.214057 0.636598 0.146593
H12   H     H_    0.653824 0.517476 0.721593 0.130821
H13   H     H_    0.350884 0.469329 0.274857 0.132933
H14   H     H_    0.375266 0.599037 0.759927 0.271872
H15   H     H_    0.359606 0.464532 0.949699 0.132104
H16   H     H_    0.364839 0.360670 0.802411 0.138381
H17   H     H_    0.306131 0.401130 0.865938 0.161733
H18   H     H_    0.263427 0.462731 0.260477 0.136503
H19   H     H_    0.969847 0.791476 0.373457 0.109719
H20   H     H_    0.252673 0.524707 0.700844 0.140952
H21   H     H_    0.557819 0.893530 0.365644 0.144728
H22   H     H_    0.641744 0.904783 0.081750 0.261375
H23   H     H_    0.884406 0.793437 0.390920 0.161514
H24   H     H_    0.682239 0.862406 0.286680 0.170956
H25   H     H_    0.682182 0.718773 0.189481 0.160375
H26   H     H_    0.639228 0.740117 0.330262 0.143126
H27   H     H_    0.650761 0.477919 0.272777 0.133375
H28   H     H_    0.992513 0.133730 0.426266 0.260383
H29   H     H_    0.984879 0.007968 0.628430 0.136926
H30   H     H_    0.929894 0.967765 0.536765 0.158985
H31   H     H_    0.929984 0.079524 0.677735 0.158015
H32   H     H_    0.742176 0.514223 0.715004 0.123698
H33   H     H_    0.039523 0.765804 0.296904 0.111700
H34   H     H_    0.557606 0.119305 0.364837 0.139330
H35   H     H_    0.418535 0.220895 0.642146 0.124808
H36   H     H_    0.356227 0.099033 0.765696 0.119149
H37   H     H_    0.356302 0.869568 0.765542 0.131549
N1    N     N_R   0.200951 0.488590 0.470944 -0.398207
N2    N     N_R   0.797703 0.493329 0.487326 -0.395490
N3    N     N_R   0.500460 0.501210 0.147910 -0.241636
N4    N     N_R   0.500480 0.501290 0.852040 -0.236868
N5    N     N_2   0.344717 0.541881 0.754854 -0.520401
N6    N     N_2   0.625729 0.836501 0.143841 -0.533673
N7    N     N_2   0.962058 0.141682 0.486837 -0.536404
O1    O     O_R   0.500000 0.319640 0.618810 -0.497275
O2    O     O_R   0.569730 0.499970 0.618800 -0.514103
O3    O     O_R   0.569740 0.499990 0.381230 -0.526011
O4    O     O_2   0.197805 0.296596 0.587831 -0.503020
O5    O     O_2   0.792507 0.280336 0.540943 -0.494948
O6    O     O_2   0.205540 0.681089 0.355148 -0.494166
O7    O     O_2   0.801041 0.705916 0.431413 -0.505934
O8    O     O_R   0.500000 0.319660 0.381240 -0.495615
O9    O     O_R   0.430260 0.500010 0.618770 -0.512721
O10   O     O_R   0.430270 0.500030 0.381200 -0.500162
O11   O     O_R   0.500000 0.680340 0.618760 -0.526860
O12   O     O_R   0.500000 0.680360 0.381190 -0.513855

loop_
_geom_bond_atom_site_label_1
_geom_bond_atom_site_label_2
_ccdc_geom_bond_type
C10   C27   A    
C50   N4    A    
C8    C13   A    
C22   C29   A    
C35   C36   A    
C33   H2    S    
C7    C8    A    
C7    H10   S    
C54   C60   A    
C5    C9    A    
C12   C23   A    
C26   C27   A    
C51   O6    S    
C57   H26   S    
C55   N5    S    
C36   C37   A    
C58   H30   S    
C39   H21   S    
C18   C19   A    
C13   O5    S    
C30   C31   A    
Cu2   O10   S    
C19   N2    S    
Cu1   O1    S    
C42   H4    S    
C55   H16   S    
C31   C32   A    
C58   N7    S    
C11   O7    S    
C46   H6    S    
C17   C61   A    
C40   N1    A    
C20   C24   A    
C45   C56   A    
C8    C9    A    
C6    N7    S    
C31   H36   S    
C9    C10   A    
C1    C37   S    
Cu2   O8    S    
C28   C61   S    
C57   N6    S    
C26   H19   S    
C21   C22   A    
C18   H32   S    
C2    C6    A    
C38   H34   S    
C53   C60   A    
C44   C46   A    
C40   O4    S    
Cu1   N4    S    
C25   C29   A    
C40   C45   A    
C49   H3    S    
C2    C20   A    
H28   N7    S    
C38   C39   A    
Cu2   N3    S    
C16   O12   A    
C55   H15   S    
C21   C34   A    
C28   O3    A    
C48   N3    A    
C32   H37   S    
C12   H20   S    
C25   H1    S    
C27   H23   S    
C43   C44   A    
Cu1   O9    S    
C37   C38   A    
C16   O11   A    
Cu2   O12   S    
C47   C48   A    
C56   H8    S    
C4    C60   S    
Cu1   Cu2   S    
C17   C18   A    
C15   C61   A    
C34   C45   A    
C42   C48   A    
C34   C59   A    
C4    O10   A    
C44   H5    S    
C53   H13   S    
C24   C56   A    
C42   C43   A    
H22   N6    S    
C52   C53   A    
C46   C47   A    
C47   N4    A    
C54   N5    S    
C14   H9    S    
C14   C19   A    
C4    O9    A    
C3    C26   A    
C3    C5    A    
C49   N3    A    
C29   H33   S    
C6    C7    A    
C28   O2    A    
C51   N1    A    
C1    O8    A    
C30   H35   S    
C57   H25   S    
C30   C36   A    
C32   C33   A    
Cu2   O3    S    
H14   N5    S    
C50   H7    S    
C15   H27   S    
C55   H17   S    
C24   H11   S    
C23   C52   A    
C23   N1    S    
Cu1   O2    S    
C33   C35   A    
C11   N2    A    
C58   H31   S    
C52   H18   S    
C35   C41   A    
Cu1   O11   S    
C10   C11   A    
C1    O1    A    
C2    C5    A    
C57   H24   S    
C51   C59   A    
C20   C21   A    
C39   C41   A    
C49   C50   A    
C17   H12   S    
C14   C15   A    
C3    C22   A    
C25   C59   A    
C13   N2    A    
C58   H29   S    
C16   C41   S    
C43   N6    S    
C12   C54   A    
