data_mof_unit_35024.cif
_audit_creation_date              2013-03-05T16:06:20-0500
_audit_creation_method            fapswitch 2.2
_symmetry_space_group_name_H-M    P1
_symmetry_Int_Tables_number       1
_space_group_crystal_system       triclinic
_cell_length_a                    10.852494
_cell_length_b                    9.507896
_cell_length_c                    27.670435
_cell_angle_alpha                 90.021319
_cell_angle_beta                  87.977438
_cell_angle_gamma                 90.000191
_cell_volume                      2853.37785757

loop_
_atom_site_label
_atom_site_type_symbol
_atom_site_description
_atom_site_fract_x
_atom_site_fract_y
_atom_site_fract_z
_atom_type_partial_charge
O1    O     O_R   0.319640 0.618740 0.500000 -0.587619
O2    O     O_R   0.680360 0.381260 0.500000 -0.587665
O3    O     O_R   0.680360 0.618740 0.500000 -0.587618
O4    O     O_R   0.319640 0.381260 0.500000 -0.587664
C1    C     C_R   0.261994 0.500000 0.500047 0.795860
C2    C     C_R   0.738006 0.500000 0.499953 0.795853
O5    O     O_R   0.500020 0.618770 0.430260 -0.584019
O6    O     O_R   0.499980 0.381230 0.569740 -0.582858
O7    O     O_R   0.499980 0.618770 0.569740 -0.584044
O8    O     O_R   0.500020 0.381230 0.430260 -0.582875
C3    C     C_R   0.503163 0.500108 0.407241 0.805219
C4    C     C_R   0.496835 0.500166 0.592759 0.805245
Cu1   Cu    Cu3+1 0.500000 0.640660 0.500000 0.948878
Cu2   Cu    Cu3+1 0.500000 0.359340 0.500000 0.949563
C5    C     C_R   0.416412 0.542023 0.181267 0.574190
C6    C     C_R   0.582700 0.545109 0.818815 0.574101
O9    O     O_2   0.314731 0.557358 0.210340 -0.518166
O10   O     O_2   0.684230 0.562378 0.789798 -0.518415
N1    N     N_R   0.527330 0.512566 0.200896 -0.471959
N2    N     N_R   0.472276 0.513602 0.799119 -0.471842
C7    C     C_R   0.632022 0.495095 0.172473 0.555320
C8    C     C_R   0.367787 0.494127 0.827496 0.555315
C9    C     C_R   0.530736 0.633278 0.278845 -0.098901
C10   C     C_R   0.471901 0.379213 0.723165 -0.096395
C11   C     C_R   0.521022 0.630508 0.329147 -0.205051
C12   C     C_R   0.481636 0.375792 0.672661 -0.210591
C13   C     C_R   0.517938 0.375389 0.327377 -0.210263
C14   C     C_R   0.479276 0.630902 0.670814 -0.205072
C15   C     C_R   0.527585 0.378546 0.276873 -0.096442
C16   C     C_R   0.469486 0.633938 0.721110 -0.098389
C17   C     C_R   0.533130 0.507604 0.252525 0.351253
C18   C     C_R   0.466709 0.508404 0.747477 0.350730
C19   C     C_R   0.514188 0.541743 0.101209 -0.049079
C20   C     C_R   0.484801 0.542610 0.898847 -0.049201
C21   C     C_R   0.407839 0.557118 0.131142 -0.094776
C22   C     C_R   0.590947 0.560172 0.868957 -0.094487
C23   C     C_R   0.296602 0.594545 0.110833 -0.174191
C24   C     C_R   0.701593 0.599549 0.889339 -0.174266
C25   C     C_R   0.627539 0.509655 0.121935 -0.025104
C26   C     C_R   0.371955 0.508603 0.878051 -0.024459
C27   C     C_R   0.513276 0.501587 0.353951 -0.043155
C28   C     C_R   0.486695 0.501850 0.646049 -0.043225
H1    H     H_    0.512763 0.274553 0.345523 0.157301
H2    H     H_    0.482207 0.729810 0.651409 0.158444
H3    H     H_    0.527656 0.281051 0.256638 0.142925
H4    H     H_    0.466972 0.734083 0.739779 0.141395
H5    H     H_    0.216609 0.617443 0.134068 0.229940
H6    H     H_    0.781265 0.624149 0.866152 0.229690
C29   C     C_R   0.382884 0.550763 0.979249 0.085446
C30   C     C_R   0.615906 0.552538 0.020817 0.085290
C31   C     C_R   0.608198 0.577441 0.970417 -0.077096
C32   C     C_R   0.390258 0.575083 0.029707 -0.077646
C33   C     C_R   0.491886 0.557717 0.949572 0.029630
C34   C     C_R   0.506840 0.557201 0.050510 0.029811
C35   C     C_R   0.272803 0.507799 0.958046 -0.066962
C36   C     C_R   0.726547 0.511135 0.041917 -0.067993
C37   C     C_R   0.266946 0.488703 0.908197 -0.108526
C38   C     C_R   0.732748 0.491744 0.091736 -0.107531
O11   O     O_2   0.260423 0.462572 0.806890 -0.515127
O12   O     O_2   0.739859 0.465441 0.193021 -0.514737
C39   C     C_R   0.287660 0.610480 0.060939 0.377121
C40   C     C_R   0.710291 0.615098 0.939260 0.376450
H7    H     H_    0.486532 0.274867 0.654542 0.157377
H8    H     H_    0.518390 0.729508 0.348527 0.158429
H9    H     H_    0.471488 0.281808 0.743429 0.143293
H10   H     H_    0.533458 0.733322 0.260139 0.141133
H11   H     H_    0.179873 0.457800 0.893434 0.206367
H12   H     H_    0.820251 0.462237 0.106437 0.207567
H13   H     H_    0.191166 0.484251 0.979941 0.206915
H14   H     H_    0.808434 0.489197 0.019950 0.208205
C41   C     C_R   0.063794 0.372225 0.500002 -0.173278
C42   C     C_R   0.936206 0.627777 0.499998 -0.172984
C43   C     C_R   0.936206 0.372225 0.499998 -0.173282
C44   C     C_R   0.063794 0.627777 0.500002 -0.172984
H15   H     H_    0.111750 0.272303 0.499996 0.149644
H16   H     H_    0.888250 0.727699 0.500004 0.149643
H17   H     H_    0.888249 0.272302 0.500005 0.149643
H18   H     H_    0.111751 0.727699 0.499995 0.149640
C45   C     C_R   0.871835 0.500001 0.499984 -0.020600
C46   C     C_R   0.128165 0.500001 0.500016 -0.020597
C47   C     C_R   0.424146 0.074415 0.470746 -0.024390
C48   C     C_R   0.575850 0.925582 0.529256 -0.025295
C49   C     C_R   0.575855 0.074478 0.529254 -0.024274
C50   C     C_R   0.424149 0.925520 0.470745 -0.025185
H19   H     H_    0.363411 0.130557 0.447316 0.122788
H20   H     H_    0.636578 0.869439 0.552688 0.123213
H21   H     H_    0.636592 0.130668 0.552683 0.122825
H22   H     H_    0.363418 0.869328 0.447312 0.123250
N3    N     N_R   0.500000 0.852070 0.500000 -0.158113
N4    N     N_R   0.500000 0.147930 0.500000 -0.157919
S1    S     S_3+6 0.156174 0.703759 0.042455 0.008382
O13   O     O_2   0.048177 0.604951 0.044026 -0.273472
O14   O     O_2   0.129944 0.821457 0.077662 -0.282291
O15   O     O_3   0.177394 0.772884 0.986801 -0.497065
H23   H     H_    0.111072 0.843596 0.983916 0.397620
S2    S     S_3+6 0.840641 0.710255 0.957896 0.010502
O16   O     O_2   0.949951 0.613381 0.955631 -0.268919
O17   O     O_2   0.864711 0.829564 0.923168 -0.277812
O18   O     O_3   0.819430 0.777286 0.013860 -0.499174
H24   H     H_    0.890216 0.841273 0.018156 0.399636

loop_
_geom_bond_atom_site_label_1
_geom_bond_atom_site_label_2
_geom_bond_distance
_ccdc_geom_bond_type
C49   H21   1.081721 S    
C40   S2    1.771081 S    
C13   C15   1.398006 A    
C42   H16   1.083264 S    
O3    C2    1.290695 A    
N1    C17   1.432992 S    
O5    C3    1.295252 A    
C30   C34   1.417515 A    
C48   N3    1.366770 A    
O1    C1    1.290693 A    
C9    H10   1.082994 S    
C21   C23   1.395633 A    
C10   C12   1.398112 A    
C42   C45   1.401419 A    
C32   C39   1.425393 A    
S2    O18   1.682638 S    
C14   C28   1.406101 A    
O7    Cu1   1.940997 S    
Cu2   N4    2.010065 S    
C4    C28   1.474861 S    
S2    O17   1.503855 D    
C23   H5    1.083920 S    
C24   H6    1.083931 S    
O3    Cu1   1.968421 S    
C6    N2    1.367065 A    
Cu1   N3    2.010064 S    
C44   C46   1.401423 A    
Cu1   Cu2   2.674761 S    
O2    C2    1.290696 A    
C31   C40   1.425416 A    
C37   H11   1.083200 S    
C5    C21   1.400792 A    
C41   C46   1.401417 A    
C32   C34   1.418619 A    
C16   C18   1.398895 A    
C7    O12   1.348866 S    
C42   C44   1.384651 A    
O8    Cu2   1.940997 S    
C11   C27   1.406130 A    
S1    O13   1.501519 D    
C41   C43   1.384649 A    
C48   H20   1.081726 S    
C25   C38   1.401224 A    
C14   H2    1.082996 S    
C30   C36   1.409698 A    
C15   H3    1.082763 S    
C31   C33   1.418622 A    
C11   H8    1.083020 S    
C9    C17   1.398879 A    
C5    N1    1.366987 A    
C12   H7    1.082931 S    
C10   C18   1.400448 A    
S1    O14   1.503996 D    
C13   C27   1.407008 A    
O18   H24   0.990355 S    
C7    C25   1.407854 A    
O6    C4    1.297523 A    
C29   C32   1.420177 A    
C8    C26   1.407906 A    
S2    O16   1.501436 D    
C30   C31   1.420021 A    
C43   C45   1.401421 A    
C19   C25   1.408964 A    
C1    C46   1.452408 S    
C35   H13   1.079025 S    
C10   H9    1.082735 S    
C47   N4    1.366781 A    
C38   H12   1.083200 S    
N2    C8    1.368934 A    
C36   H14   1.079108 S    
C35   C37   1.394846 A    
C20   C26   1.408920 A    
O1    Cu1   1.968419 S    
C50   N3    1.366780 A    
C8    O11   1.348871 S    
C47   C50   1.415681 A    
C12   C28   1.406962 A    
N2    C18   1.433180 S    
C19   C34   1.415634 A    
C5    O9    1.350322 S    
C49   N4    1.366788 A    
O6    Cu2   1.940843 S    
C26   C37   1.401196 A    
N1    C7    1.368874 A    
C16   H4    1.082976 S    
C50   H22   1.081727 S    
O4    C1    1.290699 A    
C23   C39   1.395718 A    
C22   C24   1.395613 A    
C15   C17   1.400365 A    
C29   C35   1.409809 A    
C6    C22   1.400766 A    
S1    O15   1.682933 S    
C41   H15   1.083263 S    
C2    C45   1.452407 S    
C29   C33   1.417563 A    
C14   C16   1.392301 A    
C19   C21   1.404247 A    
C36   C38   1.394850 A    
C3    C27   1.474841 S    
C20   C22   1.404208 A    
C9    C11   1.392409 A    
O4    Cu2   1.968421 S    
O15   H23   0.990217 S    
O2    Cu2   1.968419 S    
O7    C4    1.295191 A    
O8    C3    1.297459 A    
C13   H1    1.082959 S    
O5    Cu1   1.940843 S    
C20   C33   1.415655 A    
C6    O10   1.350322 S    
C48   C49   1.415681 A    
C44   H18   1.083263 S    
C43   H17   1.083263 S    
C47   H19   1.081724 S    
C39   S1    1.770933 S    
C24   C40   1.395695 A    
