data_mof_unit_67727.cif
_audit_creation_date              2012-10-26T19:56:19-0400
_audit_creation_method            fapswitch 2.2
_symmetry_space_group_name_H-M    P1
_symmetry_Int_Tables_number       1
_space_group_crystal_system       triclinic
_cell_length_a                    10.870068
_cell_length_b                    10.61664
_cell_length_c                    9.394707
_cell_angle_alpha                 91.401518
_cell_angle_beta                  92.016136
_cell_angle_gamma                 91.632228
_cell_volume                      1082.72038107

loop_
_atom_site_label
_atom_site_type_symbol
_atom_type_description
_atom_site_fract_x
_atom_site_fract_y
_atom_site_fract_z
_atom_type_partial_charge
C1    C     C_R   0.499673 0.259480 0.498378 0.541222
C2    C     C_3   0.401875 0.041900 0.567588 -0.104627
C3    C     C_3   0.501073 0.877220 0.504092 0.033267
C4    C     C_3   0.500221 0.122856 0.495805 -0.018939
C5    C     C_3   0.506234 0.965893 0.635016 0.025850
C6    C     C_3   0.495193 0.034232 0.364812 0.013907
C7    C     C_3   0.447385 0.598727 0.051013 0.016725
C8    C     C_3   0.552584 0.401247 0.948997 -0.000467
C9    C     C_3   0.388854 0.500255 0.944989 0.002051
C10   C     C_3   0.611104 0.499694 0.055022 -0.013679
C11   C     C_3   0.558540 0.598507 0.954404 0.011964
C12   C     C_R   0.501105 0.740550 0.501619 0.589153
C13   C     C_3   0.441458 0.401464 0.045621 -0.018056
C14   C     C_R   0.262337 0.498050 0.497128 0.603464
C15   C     C_R   0.737645 0.502057 0.502857 0.517231
C16   C     C_R   0.144620 0.305877 0.039509 -0.123527
C17   C     C_R   0.855873 0.689673 0.963031 -0.156284
C18   C     C_R   0.126767 0.385240 0.156441 -0.080950
C19   C     C_R   0.874960 0.611532 0.845397 -0.106940
C20   C     C_R   0.112655 0.335992 0.292389 0.071507
C21   C     C_R   0.888492 0.662097 0.710091 -0.021875
C22   C     C_R   0.121433 0.203652 0.312087 0.056202
C23   C     C_R   0.871665 0.496824 0.508006 -0.036046
C24   C     C_R   0.880941 0.794511 0.692131 0.031826
C25   C     C_R   0.134997 0.123392 0.189845 0.037967
C26   C     C_R   0.863470 0.873488 0.814780 0.026952
C27   C     C_R   0.149462 0.176460 0.056074 -0.072624
C28   C     C_R   0.848199 0.819010 0.947592 -0.157679
C29   C     C_R   0.927644 0.414911 0.410774 0.013394
C30   C     C_R   0.071893 0.585287 0.588519 -0.027422
C31   C     C_2   0.118552 0.150192 0.457585 0.270355
C32   C     C_2   0.892737 0.844654 0.545875 0.255199
C33   C     C_2   0.126695 0.983717 0.191874 0.196627
C34   C     C_R   0.128316 0.503374 0.491602 0.016221
C35   C     C_2   0.869669 0.012875 0.815226 0.254163
C36   C     C_2   0.850024 0.317709 0.328311 0.270770
C37   C     C_2   0.145925 0.682180 0.675059 0.258458
C38   C     C_2   0.511577 0.928559 0.787638 0.269260
C39   C     C_2   0.494769 0.073029 0.212672 0.224289
C40   C     C_R   0.943532 0.579172 0.600271 -0.083634
C41   C     C_R   0.056506 0.420218 0.399830 0.009922
C42   C     C_3   0.604645 0.048584 0.565032 -0.167500
C43   C     C_3   0.396614 0.951532 0.434742 -0.086731
C44   C     C_3   0.599396 0.958191 0.432347 -0.144888
Cu1   Cu    Cu3+1 0.500030 0.499990 0.643150 0.991714
Cu2   Cu    Cu3+1 0.499970 0.500010 0.356850 0.938939
H1    H     H_    0.295534 0.504217 0.894267 0.109240
H2    H     H_    0.850642 0.650548 0.067871 0.128359
H3    H     H_    0.116496 0.485079 0.139585 0.112860
H4    H     H_    0.886014 0.511634 0.861080 0.145019
H5    H     H_    0.130092 0.050678 0.473442 0.192625
H6    H     H_    0.909016 0.781150 0.456818 0.133068
H7    H     H_    0.176005 0.928762 0.114633 0.159605
H8    H     H_    0.805231 0.065861 0.876959 0.081681
H9    H     H_    0.774708 0.269556 0.379524 0.125374
H10   H     H_    0.126019 0.700592 0.785866 0.120512
H11   H     H_    0.677636 0.920514 0.373528 0.156106
H12   H     H_    0.704244 0.495303 0.105940 0.141658
H13   H     H_    0.323100 0.078509 0.626256 0.167038
H14   H     H_    0.688511 0.092687 0.617869 0.157173
H15   H     H_    0.312458 0.907869 0.382146 0.166214
H16   H     H_    0.595475 0.944846 0.851956 0.068907
H17   H     H_    0.568140 0.134486 0.176581 0.120952
H18   H     H_    0.160139 0.116685 0.962389 0.171395
H19   H     H_    0.835730 0.877800 0.041680 0.142616
H20   H     H_    0.402785 0.681695 0.098819 0.147936
H21   H     H_    0.597213 0.318282 0.901226 0.120238
H22   H     H_    0.604986 0.682417 0.910182 0.133727
H23   H     H_    0.395204 0.317451 0.089865 0.139745
H24   H     H_    0.150524 0.344178 0.934296 0.133448
N1    N     N_3   0.500090 0.499970 0.858290 -0.234941
N2    N     N_3   0.499910 0.500030 0.141710 -0.248576
O1    O     O_R   0.500060 0.316850 0.620870 -0.504428
O2    O     O_2   0.881932 0.955905 0.520677 -0.468806
O3    O     O_2   0.058646 0.928406 0.271518 -0.530513
O4    O     O_2   0.952478 0.069729 0.757501 -0.421990
O5    O     O_2   0.865685 0.294507 0.202449 -0.536450
O6    O     O_2   0.226247 0.745775 0.621110 -0.475890
O7    O     O_2   0.422223 0.877777 0.839560 -0.454737
O8    O     O_2   0.413272 0.035064 0.128601 -0.534133
O9    O     O_R   0.499940 0.683150 0.379130 -0.512399
O10   O     O_R   0.500000 0.316860 0.379090 -0.517468
O11   O     O_R   0.500000 0.683140 0.620910 -0.457478
O12   O     O_R   0.319670 0.500010 0.620890 -0.476879
O13   O     O_R   0.680330 0.499990 0.379110 -0.519814
O14   O     O_R   0.319620 0.500010 0.379110 -0.510428
O15   O     O_R   0.680380 0.499990 0.620890 -0.499098
O16   O     O_2   0.108040 0.216964 0.563782 -0.498198

loop_
_geom_bond_atom_site_label_1
_geom_bond_atom_site_label_2
_ccdc_geom_bond_type
C5    C42   S    
C8    C13   S    
Cu1   N1    S    
C17   H2    S    
C14   O12   A    
C20   C41   S    
Cu1   Cu2   S    
C7    C11   S    
C29   C36   S    
C3    C43   S    
C13   H23   S    
C23   C29   A    
Cu1   O15   S    
C24   C26   A    
C36   O5    D    
C32   O2    D    
C11   N1    S    
C38   O7    D    
C23   C40   A    
Cu1   O1    S    
C9    C13   S    
C32   H6    S    
C3    C12   S    
Cu2   O10   S    
C37   H10   S    
C33   O3    D    
C10   H12   S    
C22   C25   A    
C44   H11   S    
Cu2   N2    S    
C15   O13   A    
Cu2   O13   S    
C29   C41   A    
C16   C27   A    
C15   C23   S    
C6    C44   S    
C5    C38   S    
C35   H8    S    
Cu1   O11   S    
C34   C41   A    
C42   C44   S    
C33   H7    S    
C3    C44   S    
C35   O4    D    
C22   C31   S    
C30   C34   A    
C16   H24   S    
C14   O14   A    
C4    C6    S    
C27   H18   S    
C42   H14   S    
C7    N2    S    
C2    H13   S    
C1    O10   A    
C30   C37   S    
C2    C4    S    
C24   C32   S    
Cu2   O9    S    
C2    C43   S    
C30   C40   A    
C16   C18   A    
C20   C22   A    
C9    H1    S    
C6    C43   S    
Cu1   O12   S    
C11   H22   S    
C43   H15   S    
C15   O15   A    
C7    C9    S    
C8    N1    S    
C31   O16   D    
C19   C21   A    
C17   C28   A    
C9    N1    S    
C31   H5    S    
C3    C5    S    
C14   C34   S    
C13   N2    S    
C25   C27   A    
C39   H17   S    
C37   O6    D    
C26   C28   A    
C1    C4    S    
C1    O1    A    
C39   O8    D    
C28   H19   S    
C36   H9    S    
C7    H20   S    
C19   H4    S    
C21   C40   S    
C4    C42   S    
C17   C19   A    
C12   O9    A    
C18   C20   A    
C10   C11   S    
C2    C5    S    
C26   C35   S    
C12   O11   A    
C8    H21   S    
C8    C10   S    
C21   C24   A    
C6    C39   S    
Cu2   O14   S    
C18   H3    S    
C25   C33   S    
C38   H16   S    
C10   N2    S    
