data_mof_unit_27702.cif
_audit_creation_date              2012-10-26T21:33:04-0400
_audit_creation_method            fapswitch 2.2
_symmetry_space_group_name_H-M    P1
_symmetry_Int_Tables_number       1
_space_group_crystal_system       triclinic
_cell_length_a                    28.240414
_cell_length_b                    18.479445
_cell_length_c                    16.989071
_cell_angle_alpha                 89.999968
_cell_angle_beta                  60.844423
_cell_angle_gamma                 90.0
_cell_volume                      7742.71203061

loop_
_atom_site_label
_atom_site_type_symbol
_atom_type_description
_atom_site_fract_x
_atom_site_fract_y
_atom_site_fract_z
_atom_type_partial_charge
C1    C     C_R   0.702354 0.269987 0.675812 0.903826
C2    C     C_R   0.978153 0.627932 0.412984 -0.218342
C3    C     C_R   0.071828 0.897518 0.936328 0.911405
C4    C     C_R   0.571837 0.602476 0.936322 0.911665
C5    C     C_R   0.428173 0.397518 0.063672 0.911405
C6    C     C_R   0.428114 0.602429 0.063715 0.910957
C7    C     C_R   0.571853 0.397538 0.936310 0.911614
C8    C     C_R   0.529954 0.998703 0.561488 0.019621
C9    C     C_R   0.441217 0.997936 0.528598 0.019223
C10   C     C_R   0.058783 0.497936 0.471402 0.019223
C11   C     C_R   0.970046 0.498703 0.438512 0.019621
C12   C     C_R   0.501381 0.063585 0.570348 0.048399
C13   C     C_R   0.968948 0.368082 0.439984 -0.225966
C14   C     C_R   0.470502 0.933685 0.518815 0.047335
C15   C     C_R   0.453765 0.061550 0.561566 0.049788
C16   C     C_R   0.510680 0.932810 0.545518 0.049340
C17   C     C_R   0.046235 0.561550 0.438434 0.049789
C18   C     C_R   0.989320 0.432810 0.454483 0.049340
C19   C     C_R   0.998619 0.563585 0.429652 0.048400
C20   C     C_R   0.029498 0.433685 0.481185 0.047335
C21   C     C_R   0.603895 0.933371 0.566796 0.067522
C22   C     C_R   0.367418 0.061004 0.520428 0.062072
C23   C     C_R   0.386390 0.935579 0.472340 0.077133
C24   C     C_R   0.082234 0.620243 0.414631 -0.220072
C25   C     C_R   0.602408 0.065339 0.571132 0.070907
C26   C     C_R   0.113610 0.435579 0.527660 0.077133
C27   C     C_R   0.897592 0.565339 0.428868 0.070908
C28   C     C_R   0.896105 0.433371 0.433204 0.067522
C29   C     C_R   0.132582 0.561004 0.479571 0.062072
C30   C     C_R   0.656957 0.934744 0.557351 -0.127637
C31   C     C_R   0.329392 0.062485 0.487913 -0.115397
C32   C     C_R   0.339783 0.935919 0.459744 -0.131412
C33   C     C_R   0.656390 0.064900 0.558675 -0.129321
C34   C     C_R   0.160217 0.435919 0.540256 -0.131412
C35   C     C_R   0.531052 0.868082 0.560017 -0.225965
C36   C     C_R   0.843610 0.564900 0.441325 -0.129320
C37   C     C_R   0.843043 0.434744 0.442649 -0.127637
C38   C     C_R   0.170608 0.562485 0.512087 -0.115397
C39   C     C_R   0.681253 0.999913 0.556024 -0.299284
C40   C     C_R   0.315983 0.000256 0.458886 -0.303909
C41   C     C_R   0.184017 0.500256 0.541114 -0.303909
C42   C     C_R   0.818747 0.499913 0.443976 -0.299285
C43   C     C_R   0.578610 0.999229 0.567130 0.075116
C44   C     C_R   0.398694 0.998330 0.506429 0.071830
C45   C     C_R   0.101306 0.498330 0.493571 0.071830
C46   C     C_R   0.417766 0.120242 0.585369 -0.220073
C47   C     C_R   0.921390 0.499229 0.432870 0.075116
C48   C     C_R   0.079413 0.375055 0.546803 -0.174940
C49   C     C_R   0.929014 0.628648 0.412042 -0.186661
C50   C     C_R   0.925334 0.368911 0.423813 -0.179638
C51   C     C_R   0.125512 0.618875 0.431969 -0.181160
C52   C     C_R   0.574666 0.868911 0.576187 -0.179638
C53   C     C_R   0.374488 0.118874 0.568031 -0.181160
C54   C     C_R   0.420587 0.875055 0.453197 -0.174940
C55   C     C_R   0.570986 0.128648 0.587958 -0.186660
C56   C     C_3   0.607527 0.319826 0.056516 -0.885823
C57   C     C_R   0.460737 0.873361 0.478191 -0.223946
C58   C     C_3   0.392230 0.679953 0.943634 -0.890618
C59   C     C_3   0.392763 0.319442 0.943357 -0.894536
C60   C     C_3   0.607408 0.680319 0.056576 -0.891668
C61   C     C_3   0.107238 0.819444 0.056643 -0.894532
C62   C     C_3   0.892592 0.180320 0.943424 -0.891669
C63   C     C_3   0.892472 0.819826 0.943484 -0.885823
C64   C     C_3   0.107769 0.179955 0.056367 -0.890620
C65   C     C_R   0.521847 0.127932 0.587016 -0.218341
C66   C     C_R   0.719923 0.263344 0.954742 0.119606
C67   C     C_R   0.279790 0.736225 0.045540 0.118851
C68   C     C_R   0.280378 0.262918 0.044969 0.120321
C69   C     C_R   0.297589 0.729901 0.324227 0.883241
C70   C     C_R   0.719806 0.736806 0.954862 0.120054
C71   C     C_R   0.219622 0.762918 0.955030 0.120320
C72   C     C_R   0.780195 0.236806 0.045138 0.120055
C73   C     C_R   0.780076 0.763344 0.045258 0.119605
C74   C     C_R   0.220210 0.236225 0.954460 0.118852
C75   C     C_R   0.732251 0.319983 0.997364 -0.165271
C76   C     C_R   0.267443 0.679623 0.002905 -0.167816
C77   C     C_R   0.268047 0.319509 0.002300 -0.166355
C78   C     C_R   0.732127 0.680171 0.997495 -0.164939
C79   C     C_R   0.231956 0.819510 0.997696 -0.166355
C80   C     C_R   0.297644 0.269991 0.324190 0.923050
C81   C     C_R   0.767873 0.180171 0.002504 -0.164939
C82   C     C_R   0.767748 0.819983 0.002637 -0.165270
C83   C     C_R   0.232554 0.179624 0.997099 -0.167817
C84   C     C_R   0.761714 0.306775 0.042629 -0.198847
C85   C     C_R   0.238025 0.692907 0.957583 -0.199032
C86   C     C_R   0.238633 0.306225 0.956980 -0.200403
C87   C     C_R   0.761590 0.693378 0.042758 -0.199016
C88   C     C_R   0.261369 0.806226 0.043016 -0.200402
C89   C     C_R   0.738410 0.193378 0.957241 -0.199017
C90   C     C_R   0.738285 0.806775 0.957372 -0.198846
C91   C     C_R   0.702348 0.730023 0.675817 0.905518
C92   C     C_R   0.261973 0.192908 0.042421 -0.199032
C93   C     C_R   0.636559 0.314066 0.954558 0.175405
C94   C     C_R   0.363226 0.685647 0.045598 0.178316
C95   C     C_R   0.363627 0.313813 0.045332 0.179303
C96   C     C_R   0.636476 0.686044 0.954613 0.177570
C97   C     C_R   0.136373 0.813814 0.954668 0.179303
C98   C     C_R   0.863524 0.186044 0.045387 0.177570
C99   C     C_R   0.863441 0.814066 0.045442 0.175406
C100  C     C_R   0.136774 0.185647 0.954402 0.178316
C101  C     C_R   0.613024 0.341716 0.902858 -0.084761
C102  C     C_R   0.202356 0.769991 0.675810 0.923050
C103  C     C_R   0.386850 0.658120 0.097226 -0.086609
C104  C     C_R   0.387038 0.341656 0.097118 -0.085704
C105  C     C_R   0.612985 0.658328 0.902880 -0.085017
C106  C     C_R   0.112962 0.841657 0.902881 -0.085705
C107  C     C_R   0.887015 0.158328 0.097120 -0.085018
C108  C     C_R   0.886976 0.841716 0.097142 -0.084762
C109  C     C_R   0.113150 0.158120 0.902774 -0.086608
C110  C     C_R   0.632968 0.322075 0.814294 -0.309808
C111  C     C_R   0.366908 0.677740 0.185787 -0.309477
C112  C     C_R   0.367009 0.322155 0.185747 -0.306211
C113  C     C_R   0.797652 0.230023 0.324183 0.905518
C114  C     C_R   0.632953 0.677936 0.814297 -0.309865
C115  C     C_R   0.132991 0.822155 0.814253 -0.306211
C116  C     C_R   0.867047 0.177936 0.185703 -0.309864
C117  C     C_R   0.867032 0.822075 0.185706 -0.309808
C118  C     C_R   0.133092 0.177740 0.814213 -0.309477
C119  C     C_R   0.679725 0.282377 0.771572 -0.052730
C120  C     C_R   0.320099 0.717314 0.228560 -0.046310
C121  C     C_R   0.320297 0.282360 0.228415 -0.058439
C122  C     C_R   0.679697 0.717665 0.771594 -0.053447
C123  C     C_R   0.179703 0.782360 0.771585 -0.058439
C124  C     C_R   0.797646 0.769987 0.324188 0.903825
C125  C     C_R   0.820303 0.217664 0.228407 -0.053447
C126  C     C_R   0.820275 0.782377 0.228428 -0.052730
C127  C     C_R   0.179901 0.217314 0.771440 -0.046310
C128  C     C_R   0.707551 0.260943 0.818129 -0.250162
C129  C     C_R   0.292155 0.738529 0.182129 -0.259502
C130  C     C_R   0.292567 0.260762 0.181762 -0.251050
C131  C     C_R   0.707485 0.739158 0.818191 -0.250075
C132  C     C_R   0.207433 0.760761 0.818238 -0.251050
C133  C     C_R   0.792515 0.239158 0.181809 -0.250075
C134  C     C_R   0.792449 0.760943 0.181871 -0.250162
C135  C     C_R   0.202411 0.229901 0.675773 0.883241
C136  C     C_R   0.207845 0.238528 0.817871 -0.259501
C137  C     C_R   0.686823 0.277801 0.909507 0.061602
C138  C     C_R   0.312891 0.721734 0.090744 0.063556
C139  C     C_R   0.313384 0.277496 0.090327 0.061992
C140  C     C_R   0.686730 0.722332 0.909587 0.061268
C141  C     C_R   0.186616 0.777496 0.909672 0.061991
C142  C     C_R   0.813270 0.222332 0.090413 0.061268
C143  C     C_R   0.813177 0.777801 0.090493 0.061601
C144  C     C_R   0.187108 0.221734 0.909257 0.063556
C145  C     C_R   0.691135 0.129394 0.535531 0.898512
C146  C     C_R   0.039263 0.373361 0.521809 -0.223946
C147  C     C_R   0.308327 0.870977 0.467385 0.899891
C148  C     C_R   0.303142 0.127963 0.483241 0.907234
C149  C     C_R   0.691480 0.870632 0.534641 0.902666
C150  C     C_R   0.196858 0.627963 0.516759 0.907235
C151  C     C_R   0.808520 0.370632 0.465358 0.902666
C152  C     C_R   0.808865 0.629394 0.464469 0.898513
C153  C     C_R   0.191673 0.370977 0.532615 0.899891
C154  C     C_R   0.071886 0.102429 0.936285 0.910957
C155  C     C_R   0.928147 0.897538 0.063690 0.911615
C156  C     C_R   0.928163 0.102476 0.063678 0.911663
H1    H     H_    0.722125 0.000060 0.546386 0.199287
H2    H     H_    0.346305 0.163402 0.594710 0.176074
H3    H     H_    0.418072 0.828990 0.416247 0.170547
H4    H     H_    0.582695 0.179502 0.604562 0.174865
H5    H     H_    0.014365 0.325295 0.538661 0.143609
H6    H     H_    0.998261 0.679351 0.403879 0.139736
H7    H     H_    0.987823 0.316519 0.437249 0.142251
H8    H     H_    0.078920 0.667018 0.379592 0.138814
H9    H     H_    0.512177 0.816519 0.562751 0.142250
H10   H     H_    0.421080 0.167018 0.620408 0.138814
H11   H     H_    0.485635 0.825295 0.461339 0.143609
H12   H     H_    0.284050 0.000966 0.440809 0.193949
H13   H     H_    0.501739 0.179351 0.596121 0.139736
H14   H     H_    0.729295 0.148809 0.925404 0.135973
H15   H     H_    0.270510 0.850765 0.074862 0.136404
H16   H     H_    0.271101 0.148376 0.074292 0.136219
H17   H     H_    0.729171 0.851343 0.925531 0.135929
H18   H     H_    0.228895 0.648375 0.925715 0.136220
H19   H     H_    0.770827 0.351343 0.074471 0.135929
H20   H     H_    0.770706 0.648808 0.074594 0.135973
H21   H     H_    0.229494 0.350763 0.925131 0.136404
H22   H     H_    0.719021 0.374649 0.995482 0.140577
H23   H     H_    0.215950 0.500966 0.559191 0.193950
H24   H     H_    0.280640 0.624938 0.004797 0.140462
H25   H     H_    0.281222 0.374202 0.004215 0.140483
H26   H     H_    0.718900 0.625503 0.995607 0.140592
H27   H     H_    0.218783 0.874204 0.995777 0.140483
H28   H     H_    0.781101 0.125503 0.004390 0.140593
H29   H     H_    0.780978 0.874649 0.004521 0.140577
H30   H     H_    0.219356 0.124939 0.995210 0.140463
H31   H     H_    0.613574 0.341421 0.776685 0.185550
H32   H     H_    0.386375 0.658520 0.223333 0.186289
H33   H     H_    0.386310 0.341660 0.223431 0.187389
H34   H     H_    0.777875 0.500059 0.453614 0.199287
H35   H     H_    0.613591 0.658538 0.776662 0.185731
H36   H     H_    0.113690 0.841660 0.776569 0.187389
H37   H     H_    0.886409 0.158538 0.223338 0.185731
H38   H     H_    0.886426 0.841420 0.223315 0.185549
H39   H     H_    0.113625 0.158521 0.776667 0.186289
H40   H     H_    0.746207 0.233314 0.782880 0.165571
H41   H     H_    0.253437 0.766006 0.217454 0.162215
H42   H     H_    0.253929 0.233084 0.216964 0.165742
H43   H     H_    0.746135 0.766807 0.782960 0.166161
H44   H     H_    0.246071 0.733083 0.783036 0.165742
H45   H     H_    0.081928 0.328990 0.583753 0.170547
H46   H     H_    0.753865 0.266807 0.217039 0.166161
H47   H     H_    0.753793 0.733314 0.217120 0.165571
H48   H     H_    0.246563 0.266005 0.782546 0.162214
H49   H     H_    0.563324 0.310955 0.084355 0.240179
H50   H     H_    0.621142 0.277552 0.087471 0.239159
H51   H     H_    0.614874 0.373706 0.077404 0.247329
H52   H     H_    0.378541 0.722191 0.912746 0.238858
H53   H     H_    0.436425 0.688936 0.915750 0.238984
H54   H     H_    0.384942 0.626052 0.922714 0.247476
H55   H     H_    0.379254 0.277036 0.912400 0.237324
H56   H     H_    0.917305 0.679502 0.395438 0.174865
H57   H     H_    0.385392 0.373241 0.922313 0.247669
H58   H     H_    0.436968 0.310691 0.915671 0.239202
H59   H     H_    0.614768 0.626467 0.077511 0.247918
H60   H     H_    0.620983 0.722639 0.087536 0.238386
H61   H     H_    0.563203 0.689142 0.084363 0.238967
H62   H     H_    0.063033 0.810693 0.084330 0.239203
H63   H     H_    0.120747 0.777038 0.087600 0.237322
H64   H     H_    0.114610 0.873244 0.077685 0.247669
H65   H     H_    0.879017 0.222640 0.912464 0.238387
H66   H     H_    0.936797 0.189142 0.915637 0.238966
H67   H     H_    0.915787 0.318141 0.403575 0.177241
H68   H     H_    0.885232 0.126468 0.922489 0.247918
H69   H     H_    0.878857 0.777552 0.912529 0.239158
H70   H     H_    0.885125 0.873706 0.922597 0.247330
H71   H     H_    0.936676 0.810956 0.915644 0.240179
H72   H     H_    0.115056 0.126054 0.077288 0.247477
H73   H     H_    0.121458 0.222193 0.087254 0.238858
H74   H     H_    0.063574 0.188938 0.084249 0.238984
H75   H     H_    0.153695 0.663402 0.405290 0.176074
H76   H     H_    0.584213 0.818141 0.596425 0.177241
O1    O     O_R   0.746490 0.236330 0.638080 -0.635254
O2    O     O_R   0.325830 0.813840 0.483730 -0.638873
O3    O     O_R   0.325830 0.186160 0.483730 -0.640094
O4    O     O_R   0.674170 0.813840 0.516270 -0.640570
O5    O     O_R   0.174170 0.686160 0.516270 -0.640094
O6    O     O_R   0.825830 0.313840 0.483730 -0.640570
O7    O     O_R   0.825830 0.686160 0.483730 -0.637416
O8    O     O_R   0.174170 0.313840 0.516270 -0.638873
O9    O     O_R   0.739960 0.127620 0.525000 -0.625901
O10   O     O_R   0.260040 0.872380 0.475000 -0.622021
O11   O     O_R   0.260040 0.127620 0.475000 -0.629594
O12   O     O_R   0.253510 0.763670 0.361920 -0.651459
O13   O     O_R   0.739960 0.872380 0.525000 -0.627278
O14   O     O_R   0.239960 0.627620 0.525000 -0.629595
O15   O     O_R   0.760040 0.372380 0.475000 -0.627279
O16   O     O_R   0.760040 0.627620 0.475000 -0.625902
O17   O     O_R   0.239960 0.372380 0.525000 -0.622021
O18   O     O_R   0.680700 0.294870 0.629350 -0.635741
O19   O     O_R   0.319300 0.705130 0.370650 -0.636558
O20   O     O_R   0.319300 0.294870 0.370650 -0.623247
O21   O     O_R   0.680700 0.705130 0.629350 -0.635366
O22   O     O_R   0.180700 0.794870 0.629350 -0.623247
O23   O     O_R   0.253510 0.236330 0.361920 -0.633066
O24   O     O_R   0.819300 0.205130 0.370650 -0.635366
O25   O     O_R   0.819300 0.794870 0.370650 -0.635741
O26   O     O_R   0.180700 0.205130 0.629350 -0.636558
O27   O     O_R   0.062020 0.072840 0.007170 -0.614817
O28   O     O_R   0.937980 0.927160 0.992830 -0.614554
O29   O     O_R   0.937980 0.072840 0.992830 -0.614623
O30   O     O_R   0.062020 0.927160 0.007170 -0.614933
O31   O     O_R   0.562020 0.572840 0.007170 -0.614623
O32   O     O_R   0.437980 0.427160 0.992830 -0.614933
O33   O     O_R   0.437980 0.572840 0.992830 -0.614818
O34   O     O_R   0.746490 0.763670 0.638080 -0.634485
O35   O     O_R   0.562020 0.427160 0.007170 -0.614554
O36   O     O_R   0.947860 0.073950 0.109290 -0.624626
O37   O     O_R   0.052140 0.926050 0.890710 -0.623827
O38   O     O_R   0.052140 0.073950 0.890710 -0.624638
O39   O     O_R   0.947860 0.926050 0.109290 -0.624740
O40   O     O_R   0.447860 0.573950 0.109290 -0.624637
O41   O     O_R   0.552140 0.426050 0.890710 -0.624740
O42   O     O_R   0.552140 0.573950 0.890710 -0.624627
O43   O     O_R   0.447860 0.426050 0.109290 -0.623828
O44   O     O_R   0.246490 0.736330 0.638080 -0.633066
O45   O     O_R   0.753510 0.263670 0.361920 -0.634485
O46   O     O_R   0.753510 0.736330 0.361920 -0.635254
O47   O     O_R   0.246490 0.263670 0.638080 -0.651460
O48   O     O_R   0.674170 0.186160 0.516270 -0.637416
Zn1   Zn    Zn3+2 0.792340 0.208750 0.507670 0.938439
Zn2   Zn    Zn3+2 0.494040 0.500000 0.919480 0.923829
Zn3   Zn    Zn3+2 0.005960 1.000000 0.080520 0.923829
Zn4   Zn    Zn3+2 0.994040 1.000000 0.919480 0.926602
Zn5   Zn    Zn3+2 0.207660 0.791250 0.492330 0.939531
Zn6   Zn    Zn3+2 0.207660 0.208750 0.492330 0.940535
Zn7   Zn    Zn3+2 0.792340 0.791250 0.507670 0.941099
Zn8   Zn    Zn3+2 0.292340 0.708750 0.507670 0.940535
Zn9   Zn    Zn3+2 0.707660 0.291250 0.492330 0.941099
Zn10  Zn    Zn3+2 0.707660 0.708750 0.492330 0.938438
Zn11  Zn    Zn3+2 0.292340 0.291250 0.507670 0.939530
Zn12  Zn    Zn3+2 0.505960 0.500000 0.080520 0.926602

loop_
_geom_bond_atom_site_label_1
_geom_bond_atom_site_label_2
_ccdc_geom_bond_type
C28   C47   A    
C70   C140  S    
C36   C42   A    
O42   Zn2   S    
C74   C83   A    
C72   C142  S    
C87   H20   S    
O18   Zn9   S    
O8    Zn6   S    
C13   C18   A    
C99   C143  A    
C60   H59   S    
C16   C35   A    
C73   C143  S    
C64   H73   S    
C62   H65   S    
C37   C42   A    
C67   C138  S    
C131  C140  A    
C112  H33   S    
O34   Zn7   S    
C56   H49   S    
C1    O1    A    
C91   C122  S    
C148  O11   A    
C77   H25   S    
C63   H70   S    
C117  C126  A    
C119  C128  A    
C24   C51   A    
C100  C109  A    
C8    C16   A    
C24   H8    S    
C55   C65   A    
C109  C118  A    
C13   H7    S    
C66   C89   A    
C80   C121  S    
C56   C93   S    
C146  H5    S    
C149  O4    A    
C115  C123  A    
C82   H29   S    
C61   H63   S    
C127  C136  A    
C100  C144  A    
C93   C101  A    
C124  O46   A    
C30   C149  S    
C63   H71   S    
C101  C110  A    
C29   C45   A    
O10   Zn5   S    
O29   Zn4   S    
C42   H34   S    
O30   Zn3   S    
C53   H2    S    
C118  H39   S    
C72   C84   A    
C55   H4    S    
C124  O25   A    
C20   C146  A    
C102  C123  S    
C21   C30   A    
C34   C153  S    
C68   C77   A    
C14   C57   A    
O7    Zn7   S    
C135  O26   A    
C2    C19   A    
C25   C55   A    
C59   H57   S    
C69   O12   A    
C95   C139  A    
O48   Zn9   S    
C106  C115  A    
O20   Zn11  S    
C9    C15   A    
C108  C155  S    
C92   H16   S    
C46   C53   A    
C68   C92   A    
C69   O19   A    
O11   Zn6   S    
C126  C134  A    
O38   Zn4   S    
C154  O38   A    
C76   C85   A    
C129  H41   S    
C78   C87   A    
O1    Zn1   S    
C11   C18   A    
C123  C132  A    
O13   Zn7   S    
O14   Zn8   S    
C121  C130  A    
C2    H6    S    
C71   C79   A    
C134  H47   S    
C63   H69   S    
C32   C147  S    
C99   C108  A    
C56   H51   S    
O23   Zn6   S    
C133  C142  A    
O24   Zn1   S    
O41   Zn2   S    
O35   Zn12  S    
O3    Zn11  S    
O43   Zn12  S    
O2    Zn8   S    
C75   C84   A    
O45   Zn9   S    
O17   Zn11  S    
C132  H44   S    
C63   C99   S    
C26   C45   A    
C54   H3    S    
C29   C38   A    
C5    O43   A    
C62   H68   S    
C84   H19   S    
C71   C141  S    
C134  C143  A    
C113  O24   A    
C98   C142  A    
C59   H55   S    
O36   Zn3   S    
C51   H75   S    
C120  C129  A    
C38   C41   A    
C10   C20   A    
C104  C112  A    
C36   C152  S    
C91   O21   A    
C78   H26   S    
O39   Zn3   S    
C156  O36   A    
C58   H52   S    
C8    C12   A    
C150  O5    A    
C10   C45   A    
C85   H18   S    
C7    O35   A    
C116  C125  A    
C118  C127  A    
C122  C131  A    
C124  C126  S    
C29   C51   A    
C58   H53   S    
C27   C47   A    
C132  C141  A    
C150  O14   A    
C151  O6    A    
C114  H35   S    
C108  C117  A    
C41   H23   S    
C110  C119  A    
C96   C140  A    
C3    O37   A    
C148  O3    A    
C60   H60   S    
C112  C121  A    
C64   H74   S    
C152  O7    A    
C28   C37   A    
C49   H56   S    
C79   H27   S    
C30   C39   A    
C62   H66   S    
C107  C116  A    
C13   C50   A    
C147  O2    A    
C56   H50   S    
C80   O20   A    
C15   C46   A    
C27   C49   A    
C25   C33   A    
C54   C57   A    
C96   C105  A    
O32   Zn2   S    
C11   C47   A    
O21   Zn10  S    
C8    C43   A    
C136  H48   S    
O5    Zn5   S    
C11   C19   A    
C67   C88   A    
C135  O47   A    
C127  C135  S    
C151  O15   A    
C31   C40   A    
C103  C111  A    
C1    C119  S    
C73   C87   A    
O28   Zn4   S    
C83   H30   S    
C72   C81   A    
C26   C48   A    
C81   C89   A    
C25   C43   A    
C34   C41   A    
C130  C139  A    
C79   C88   A    
O33   Zn2   S    
C3    C106  S    
O46   Zn10  S    
C50   H67   S    
C61   H62   S    
C86   H21   S    
C23   C44   A    
C65   H13   S    
C102  O22   A    
C9    C14   A    
C12   C15   A    
C3    O30   A    
O15   Zn9   S    
C111  H32   S    
C6    C103  S    
C97   C141  A    
C115  H36   S    
C60   C96   S    
C94   C103  A    
C94   C138  A    
O19   Zn8   S    
C113  O45   A    
C73   C82   A    
O44   Zn8   S    
O22   Zn5   S    
C133  H46   S    
C74   C144  S    
C149  O13   A    
C46   H10   S    
C153  O8    A    
C61   C97   S    
C76   H24   S    
C155  O39   A    
C57   H11   S    
C27   C36   A    
C12   C65   A    
C69   C120  S    
C82   C90   A    
C4    O42   A    
C23   C32   A    
C136  C144  A    
O6    Zn1   S    
C71   C85   A    
C66   C75   A    
C152  O16   A    
C98   C107  A    
C156  O29   A    
C64   C100  S    
C35   C52   A    
C68   C139  S    
O4    Zn10  S    
C154  O27   A    
C80   O23   A    
C70   C78   A    
O31   Zn12  S    
C61   H64   S    
C59   H58   S    
C83   C92   A    
C90   H17   S    
C33   C39   A    
C89   H14   S    
C113  C125  S    
C10   C17   A    
O25   Zn7   S    
C75   H22   S    
C117  H38   S    
C35   H9    S    
C21   C43   A    
C28   C50   A    
C26   C34   A    
C22   C44   A    
C129  C138  A    
C48   C146  A    
C5    O32   A    
O37   Zn4   S    
C91   O34   A    
C107  C156  S    
C5    C104  S    
O12   Zn5   S    
C62   C98   S    
C39   H1    S    
C70   C90   A    
C59   C95   S    
C37   C151  S    
C22   C53   A    
C58   H54   S    
C110  H31   S    
C17   C24   A    
C22   C31   A    
C6    O40   A    
C105  C114  A    
C1    O18   A    
C52   H76   S    
C147  O10   A    
C153  O17   A    
C48   H45   S    
C111  C120  A    
C131  H43   S    
C128  C137  A    
C109  C154  S    
C2    C49   A    
C6    O33   A    
C145  O9    A    
C74   C86   A    
C33   C145  S    
C116  H37   S    
C77   C86   A    
O47   Zn11  S    
C7    C101  S    
C14   C16   A    
C145  O48   A    
C31   C148  S    
C64   H72   S    
C95   C104  A    
C23   C54   A    
C125  C133  A    
C9    C44   A    
C128  H40   S    
O9    Zn1   S    
C7    O41   A    
C4    C105  S    
C81   H28   S    
O16   Zn10  S    
O26   Zn6   S    
O27   Zn3   S    
C58   C94   S    
C60   H61   S    
O40   Zn12  S    
C155  O28   A    
C66   C137  S    
C4    O31   A    
C17   C19   A    
C18   C20   A    
C32   C40   A    
C40   H12   S    
C93   C137  A    
C114  C122  A    
C88   H15   S    
C67   C76   A    
C102  O44   A    
C130  H42   S    
C38   C150  S    
C21   C52   A    
C97   C106  A    
