data_mof_unit_8103.cif
_audit_creation_date              2013-03-05T16:18:53-0500
_audit_creation_method            fapswitch 2.2
_symmetry_space_group_name_H-M    P1
_symmetry_Int_Tables_number       1
_space_group_crystal_system       triclinic
_cell_length_a                    9.740452
_cell_length_b                    10.634139
_cell_length_c                    16.671794
_cell_angle_alpha                 89.820677
_cell_angle_beta                  85.34377
_cell_angle_gamma                 88.494517
_cell_volume                      1720.59219034

loop_
_atom_site_label
_atom_site_type_symbol
_atom_site_description
_atom_site_fract_x
_atom_site_fract_y
_atom_site_fract_z
_atom_type_partial_charge
O1    O     O_R   0.383960 0.685090 0.500020 -0.595517
O2    O     O_R   0.616040 0.685320 0.499960 -0.639653
C1    C     C_R   0.499092 0.742086 0.495803 0.856713
O3    O     O_R   0.370240 0.499890 0.615830 -0.585768
O4    O     O_R   0.602330 0.500120 0.615770 -0.621928
C2    C     C_R   0.481390 0.492823 0.653208 0.897923
Zn1   Zn    Zn3+2 0.345040 0.499850 0.500040 0.949042
Zn2   Zn    Zn3+2 0.654960 0.500150 0.499960 0.950796
O5    O     O_R   0.383960 0.314680 0.500040 -0.648607
O6    O     O_R   0.616040 0.314910 0.499980 -0.568647
O7    O     O_R   0.397670 0.499880 0.384230 -0.634070
O8    O     O_R   0.629760 0.500110 0.384170 -0.632478
C3    C     C_R   0.501234 0.257633 0.496301 0.844138
C4    C     C_R   0.519024 0.497181 0.346492 0.840386
C5    C     C_R   0.472166 0.449260 0.736274 -0.066200
C6    C     C_R   0.586123 0.384959 0.764691 -0.177577
C7    C     C_R   0.576369 0.330984 0.840441 -0.146428
C8    C     C_R   0.454001 0.344857 0.890205 0.195134
C9    C     C_R   0.337760 0.403388 0.860716 -0.164963
C10   C     C_R   0.346572 0.455125 0.783718 -0.180488
C11   C     C_R   0.419725 0.431969 0.139368 -0.146183
C12   C     C_R   0.412143 0.472416 0.218500 -0.219456
C13   C     C_R   0.658539 0.434485 0.221530 -0.205824
C14   C     C_R   0.666024 0.393652 0.142217 -0.177913
C15   C     C_R   0.546436 0.389670 0.101264 0.204460
C16   C     C_2   0.452775 0.320819 0.976563 -0.235562
C17   C     C_2   0.559796 0.356887 0.015893 -0.226916
C18   C     C_R   0.531037 0.472373 0.260393 -0.032209
H1    H     H_    0.682718 0.374860 0.728110 0.191316
H2    H     H_    0.312843 0.502304 0.247091 0.144547
H3    H     H_    0.751724 0.433198 0.252877 0.145743
H4    H     H_    0.656864 0.379730 0.983028 0.153149
H5    H     H_    0.242582 0.414716 0.898691 0.132990
H6    H     H_    0.326713 0.437009 0.108103 0.124176
H7    H     H_    0.256403 0.501155 0.761828 0.201453
H8    H     H_    0.355238 0.298756 0.009037 0.146706
H9    H     H_    0.666126 0.282692 0.861250 0.140511
H10   H     H_    0.765083 0.364662 0.112835 0.127165
C19   C     C_3   0.365306 0.931529 0.458347 -0.389031
H11   H     H_    0.271396 0.900467 0.494421 0.227857
H12   H     H_    0.359619 0.896942 0.395767 0.153518
C20   C     C_3   0.366533 0.075292 0.458626 -0.377300
H13   H     H_    0.360618 0.111508 0.396219 0.165884
H14   H     H_    0.272985 0.110862 0.495320 0.205477
H15   H     H_    0.415621 0.893050 0.619958 0.214320
H16   H     H_    0.412299 0.106953 0.618922 0.173940
C21   C     C_3   0.504749 0.926653 0.580409 -0.380467
C22   C     C_3   0.623945 0.924587 0.439533 -0.413789
C23   C     C_3   0.497598 0.878347 0.493474 0.162068
H17   H     H_    0.721956 0.887884 0.461834 0.193815
H18   H     H_    0.619994 0.890155 0.376783 0.159627
C24   C     C_3   0.500100 0.120956 0.493876 0.144280
C25   C     C_3   0.503873 0.070573 0.580785 -0.388840
C26   C     C_3   0.625139 0.068422 0.440031 -0.372868
H19   H     H_    0.622934 0.105285 0.377549 0.155494
H20   H     H_    0.722059 0.097636 0.463494 0.262832
H21   H     H_    0.600318 0.889755 0.605649 0.182291
H22   H     H_    0.596581 0.102833 0.608286 0.234960
C27   C     C_3   0.909305 0.625986 0.524416 -0.373562
H23   H     H_    0.856039 0.655126 0.583210 0.204911
H24   H     H_    0.877525 0.698009 0.480583 0.150923
C28   C     C_3   0.071760 0.627510 0.526339 0.270923
H25   H     H_    0.110290 0.699818 0.482104 0.081915
H26   H     H_    0.880698 0.440254 0.622659 0.108712
H27   H     H_    0.117272 0.413867 0.616462 0.180450
C29   C     C_3   0.917710 0.408706 0.560762 0.297443
C30   C     C_3   0.930916 0.473892 0.420400 -0.265222
N1    N     N_3   0.861190 0.500250 0.501720 -0.103548
H28   H     H_    0.897184 0.383271 0.397012 0.204562
H29   H     H_    0.897353 0.545751 0.376897 0.148502
N2    N     N_3   0.138550 0.503270 0.501080 -0.109227
C31   C     C_3   0.080062 0.405033 0.555737 -0.269485
C32   C     C_3   0.092841 0.474797 0.420136 -0.340039
H30   H     H_    0.133641 0.545897 0.375951 0.150859
H31   H     H_    0.137473 0.382334 0.398642 0.192002
H32   H     H_    0.122644 0.311655 0.535084 0.193299
N3    N     N_R   0.109230 0.666831 0.606200 0.226058
O9    O     O_R   0.053284 0.615791 0.671561 -0.459907
O10   O     O_R   0.177294 0.769240 0.612979 -0.421524
N4    N     N_R   0.869481 0.280962 0.551062 0.213533
O11   O     O_R   0.806449 0.225648 0.612654 -0.455016
O12   O     O_R   0.919391 0.212133 0.490622 -0.480592

loop_
_geom_bond_atom_site_label_1
_geom_bond_atom_site_label_2
_geom_bond_distance
_ccdc_geom_bond_type
C29   N1    1.507821 S    
C32   H30   1.112211 S    
C28   N3    1.473481 S    
C9    C10   1.392155 A    
C8    C16   1.460624 S    
C31   H32   1.110831 S    
C1    C23   1.449133 S    
C19   H12   1.113429 S    
N3    O9    1.301682 A    
C22   C26   1.529960 S    
C16   C17   1.340630 D    
Zn1   N2    2.009346 S    
O4    C2    1.291678 A    
O7    C4    1.292861 A    
C5    C6    1.402697 A    
C8    C9    1.400900 A    
H15   C21   1.112665 S    
O5    C3    1.276327 A    
C2    C5    1.455489 S    
C10   H7    1.082824 S    
C22   H18   1.113412 S    
C29   C31   1.576257 S    
C6    C7    1.382836 A    
C14   H10   1.083776 S    
C13   C14   1.388728 A    
C30   C32   1.577148 S    
C21   C25   1.530290 S    
C22   H17   1.113148 S    
C27   H23   1.112150 S    
C12   C18   1.400084 A    
C11   C12   1.384568 A    
C32   H31   1.112949 S    
C20   H14   1.113744 S    
O3    Zn1   1.965638 S    
C24   C26   1.546354 S    
C19   C20   1.529187 S    
N3    O10   1.299679 A    
C5    C10   1.401898 A    
C26   H20   1.103118 S    
C27   H24   1.112301 S    
C30   N1    1.490230 S    
C14   C15   1.398828 A    
O3    C2    1.292704 A    
C9    H5    1.083570 S    
C19   H11   1.110337 S    
N2    C32   1.489367 S    
C11   H6    1.081348 S    
C6    H1    1.081966 S    
C30   H28   1.108359 S    
H26   C29   1.114813 S    
Zn1   O7    1.957024 S    
C28   H25   1.114760 S    
C27   N1    1.488469 S    
C21   H21   1.113978 S    
C3    C24   1.454486 S    
Zn2   O8    1.965640 S    
C7    C8    1.400615 A    
C7    H9    1.083039 S    
C13   C18   1.403285 A    
C16   H8    1.085438 S    
C22   C23   1.553850 S    
C19   C23   1.550938 S    
O8    C4    1.292620 A    
Zn2   N1    2.011395 S    
C15   C17   1.461116 S    
C20   H13   1.113651 S    
C24   C25   1.546146 S    
Zn1   O5    1.995478 S    
C11   C15   1.405176 A    
C26   H19   1.113499 S    
C27   C28   1.585818 S    
C12   H2    1.083373 S    
C17   H4    1.086402 S    
O1    Zn1   2.015767 S    
O2    Zn2   1.995481 S    
N4    O11   1.300081 A    
O6    C3    1.293222 A    
O4    Zn2   1.957024 S    
C25   H22   1.108068 S    
C21   C23   1.546699 S    
H27   C31   1.107735 S    
C29   N4    1.462688 S    
C30   H29   1.112977 S    
C4    C18   1.455064 S    
O2    C1    1.281890 A    
N2    C31   1.478940 S    
H16   C25   1.113942 S    
N4    O12   1.301465 A    
C28   N2    1.503309 S    
Zn2   O6    2.015766 S    
C20   C24   1.559782 S    
O1    C1    1.285527 A    
C13   H3    1.083277 S    
