data_mof_unit_56204.cif
_audit_creation_date              2012-12-10T19:20:43-0500
_audit_creation_method            fapswitch 2.2
_symmetry_space_group_name_H-M    P1
_symmetry_Int_Tables_number       1
_space_group_crystal_system       triclinic
_cell_length_a                    26.017191
_cell_length_b                    34.458085
_cell_length_c                    21.652226
_cell_angle_alpha                 89.973018
_cell_angle_beta                  127.129458
_cell_angle_gamma                 90.044296
_cell_volume                      15476.0953886

loop_
_atom_site_label
_atom_site_type_symbol
_atom_type_description
_atom_site_fract_x
_atom_site_fract_y
_atom_site_fract_z
_atom_type_partial_charge
C1    C     C_R   0.999746 0.020947 0.998567 0.130293
C2    C     C_R   0.999641 0.978175 0.998645 0.110447
C3    C     C_R   0.499272 0.520981 0.999012 0.128958
C4    C     C_R   0.499016 0.478206 0.998702 0.108687
C5    C     C_R   0.775404 0.120343 0.907570 -0.336129
C6    C     C_R   0.200679 0.876802 0.076313 -0.357051
C7    C     C_R   0.228959 0.124082 0.111585 -0.333170
C8    C     C_R   0.794953 0.874195 0.910823 -0.361784
C9    C     C_R   0.269047 0.625448 0.883954 -0.328898
C10   C     C_R   0.698506 0.377649 0.072956 -0.354154
C11   C     C_R   0.730508 0.625350 0.115335 -0.328888
C12   C     C_R   0.295622 0.375004 0.914568 -0.360279
C13   C     C_R   0.784938 0.153232 0.950883 -0.287018
C14   C     C_R   0.203365 0.844682 0.039166 -0.266922
C15   C     C_R   0.224489 0.152827 0.063113 -0.288499
C16   C     C_R   0.791785 0.843959 0.951277 -0.267166
C17   C     C_R   0.272748 0.653526 0.932902 -0.285306
C18   C     C_R   0.701327 0.345367 0.036216 -0.265907
C19   C     C_R   0.726855 0.653652 0.066743 -0.284319
C20   C     C_R   0.291766 0.344284 0.953552 -0.274721
C21   C     C_R   0.754336 0.188181 0.913831 -0.004327
C22   C     C_R   0.241901 0.812720 0.082138 -0.009129
C23   C     C_R   0.247578 0.190248 0.091591 -0.033538
C24   C     C_R   0.755418 0.810680 0.912154 -0.005902
C25   C     C_R   0.250907 0.691273 0.905929 -0.038878
C26   C     C_R   0.740617 0.313726 0.079664 -0.012612
C27   C     C_R   0.749071 0.691297 0.094270 -0.038824
C28   C     C_R   0.256058 0.311033 0.913235 0.001577
C29   C     C_R   0.713454 0.190114 0.832294 0.391462
C30   C     C_R   0.278357 0.813051 0.163354 0.314759
C31   C     C_R   0.278047 0.198445 0.170262 0.412977
C32   C     C_R   0.721093 0.807928 0.831390 0.306328
C33   C     C_R   0.221924 0.700412 0.827898 0.404063
C34   C     C_R   0.777486 0.314503 0.160921 0.320254
C35   C     C_R   0.778350 0.700111 0.172493 0.404352
C36   C     C_R   0.223389 0.308653 0.832677 0.307830
C37   C     C_R   0.704957 0.157095 0.788434 0.321071
C38   C     C_R   0.278017 0.846270 0.201096 0.387289
C39   C     C_R   0.282530 0.169531 0.219482 0.368732
C40   C     C_R   0.721719 0.839346 0.790062 0.384076
C41   C     C_R   0.218586 0.672235 0.778337 0.373558
C42   C     C_R   0.776826 0.347797 0.198187 0.389432
C43   C     C_R   0.781489 0.671727 0.221683 0.373786
C44   C     C_R   0.225120 0.340459 0.792749 0.376829
C45   C     C_R   0.735901 0.121975 0.826018 0.409820
C46   C     C_R   0.236711 0.877599 0.157824 0.431005
C47   C     C_R   0.255576 0.132515 0.189288 0.380646
C48   C     C_R   0.761477 0.871711 0.829858 0.449990
C49   C     C_R   0.244546 0.634884 0.807335 0.375540
C50   C     C_R   0.735089 0.378913 0.154539 0.424473
C51   C     C_R   0.755245 0.634455 0.192158 0.375756
C52   C     C_R   0.263751 0.373014 0.833891 0.450623
C53   C     C_R   0.202473 0.721385 0.961419 -0.290118
C54   C     C_R   0.797585 0.278567 0.039196 -0.232181
C55   C     C_R   0.797780 0.721578 0.039230 -0.291075
C56   C     C_R   0.200988 0.277271 0.957695 -0.246563
C57   C     C_R   0.702838 0.221467 0.962141 -0.267830
C58   C     C_R   0.298373 0.777802 0.040930 -0.238965
C59   C     C_R   0.297285 0.221194 0.038303 -0.279392
C60   C     C_R   0.700936 0.777264 0.957650 -0.243402
C61   C     C_R   0.196909 0.750712 0.001498 -0.075200
C62   C     C_R   0.803429 0.249001 0.999459 -0.064822
C63   C     C_R   0.802808 0.750488 0.997993 -0.073372
C64   C     C_R   0.196269 0.248610 0.999844 -0.053134
C65   C     C_R   0.696526 0.251220 0.000704 -0.085029
C66   C     C_R   0.303218 0.748987 0.999196 -0.051916
C67   C     C_R   0.302624 0.250321 0.997638 -0.083620
C68   C     C_R   0.696658 0.748902 0.000603 -0.051421
C69   C     C_R   0.245441 0.779468 0.041599 0.110984
C70   C     C_R   0.754768 0.220262 0.959542 0.110360
C71   C     C_R   0.753532 0.778695 0.956347 0.113941
C72   C     C_R   0.245363 0.220155 0.040919 0.111191
C73   C     C_R   0.744510 0.280337 0.039675 0.106408
C74   C     C_R   0.253856 0.720681 0.957793 0.106895
C75   C     C_R   0.253508 0.278641 0.956240 0.113459
C76   C     C_R   0.746315 0.720837 0.042692 0.107939
C77   C     C_R   0.842046 0.249423 0.584842 0.361046
C78   C     C_R   0.180681 0.722295 0.418954 0.349961
C79   C     C_R   0.162450 0.252243 0.417147 0.353646
C80   C     C_R   0.819394 0.722404 0.581039 0.349121
C81   C     C_R   0.337947 0.749051 0.583368 0.357184
C82   C     C_R   0.688301 0.218656 0.418636 0.375671
C83   C     C_R   0.662828 0.750333 0.417098 0.355541
C84   C     C_R   0.314964 0.220251 0.581158 0.352352
C85   C     C_R   0.140167 0.249599 0.999948 0.824862
C86   C     C_R   0.859750 0.750263 0.999759 0.774240
C87   C     C_R   0.859849 0.249592 0.000055 0.822545
C88   C     C_R   0.140156 0.750356 0.000071 0.776435
C89   C     C_R   0.640278 0.749688 0.000162 0.823810
C90   C     C_R   0.359736 0.250249 0.999740 0.774266
C91   C     C_R   0.359692 0.749698 0.999791 0.824835
C92   C     C_R   0.640017 0.250526 0.999794 0.776382
C93   C     C_R   0.881830 0.250591 0.666185 0.298717
C94   C     C_R   0.138838 0.722716 0.337650 0.304778
C95   C     C_R   0.121237 0.252666 0.335720 0.298851
C96   C     C_R   0.861099 0.722659 0.662360 0.304823
C97   C     C_R   0.379079 0.749505 0.664711 0.297681
C98   C     C_R   0.642813 0.220775 0.337902 0.337166
C99   C     C_R   0.621452 0.750610 0.335728 0.298584
C100  C     C_R   0.356231 0.220163 0.662528 0.304314
C101  C     C_R   0.853734 0.250258 0.705286 -0.266820
C102  C     C_R   0.145982 0.751577 0.296357 -0.297380
C103  C     C_R   0.147746 0.251224 0.294895 -0.281172
C104  C     C_R   0.854672 0.751823 0.703730 -0.300238
C105  C     C_R   0.352516 0.750966 0.705385 -0.278911
C106  C     C_R   0.646973 0.251027 0.296373 -0.322426
C107  C     C_R   0.647756 0.751199 0.294700 -0.279139
C108  C     C_R   0.353857 0.251235 0.703871 -0.298085
C109  C     C_R   0.786377 0.252053 0.663032 0.290836
C110  C     C_R   0.192001 0.781589 0.338377 0.311093
C111  C     C_R   0.214967 0.252914 0.335563 0.341132
C112  C     C_R   0.810096 0.782432 0.661871 0.318034
C113  C     C_R   0.285663 0.755304 0.664821 0.345199
C114  C     C_R   0.692368 0.281332 0.338438 0.319222
C115  C     C_R   0.714666 0.755033 0.334978 0.345044
C116  C     C_R   0.312831 0.283264 0.662233 0.320287
C117  C     C_R   0.747429 0.251156 0.582607 -0.237719
C118  C     C_R   0.232183 0.781004 0.418765 -0.208568
C119  C     C_R   0.255358 0.252732 0.415976 -0.213297
C120  C     C_R   0.769935 0.781987 0.581488 -0.207779
C121  C     C_R   0.245290 0.755147 0.584418 -0.218093
C122  C     C_R   0.733963 0.280089 0.418849 -0.213777
C123  C     C_R   0.755287 0.754977 0.415378 -0.218240
C124  C     C_R   0.272618 0.282890 0.581839 -0.207533
C125  C     C_R   0.774805 0.249549 0.543501 -0.035530
C126  C     C_R   0.227145 0.751615 0.459020 -0.066141
C127  C     C_R   0.229549 0.252214 0.456782 -0.064190
C128  C     C_R   0.773875 0.752182 0.541097 -0.067419
C129  C     C_R   0.270937 0.751831 0.543618 -0.062869
C130  C     C_R   0.732225 0.249090 0.458884 -0.080863
C131  C     C_R   0.729858 0.752395 0.456504 -0.062282
C132  C     C_R   0.273271 0.251733 0.541354 -0.064468
C133  C     C_R   0.054900 0.041539 0.020033 -0.193778
C134  C     C_R   0.969803 0.957694 0.025361 -0.195988
C135  C     C_R   0.944590 0.041485 0.976992 -0.192902
C136  C     C_R   0.029201 0.957521 0.971839 -0.201432
C137  C     C_R   0.553968 0.541482 0.018656 -0.192584
C138  C     C_R   0.471242 0.457619 0.027905 -0.197117
C139  C     C_R   0.444889 0.541617 0.979849 -0.191771
C140  C     C_R   0.526683 0.457659 0.969383 -0.203321
C141  C     C_R   0.054776 0.081966 0.019965 -0.223249
C142  C     C_R   0.969596 0.917299 0.025276 -0.229516
C143  C     C_R   0.944668 0.081891 0.977148 -0.213171
C144  C     C_R   0.029476 0.917116 0.972542 -0.236057
C145  C     C_R   0.554058 0.581904 0.018691 -0.222557
C146  C     C_R   0.471291 0.417210 0.027902 -0.228852
C147  C     C_R   0.445355 0.582028 0.980621 -0.222992
C148  C     C_R   0.527201 0.417249 0.970115 -0.235050
C149  C     C_R   0.999858 0.102346 0.999059 0.027850
C150  C     C_R   0.999847 0.897053 0.999440 0.019196
C151  C     C_R   0.499836 0.602372 0.999839 0.027429
C152  C     C_R   0.499724 0.397069 0.999602 0.016310
C153  C     C_R   0.105053 0.250116 0.210138 0.943861
C154  C     C_R   0.895324 0.750505 0.789352 0.880100
C155  C     C_R   0.895130 0.250005 0.789916 0.949385
C156  C     C_R   0.104830 0.750446 0.210687 0.880670
C157  C     C_R   0.604997 0.750084 0.210068 0.949394
C158  C     C_R   0.395090 0.250321 0.789408 0.888180
C159  C     C_R   0.395028 0.750061 0.789953 0.951805
C160  C     C_R   0.604783 0.250487 0.210675 0.876790
C161  C     C_R   0.999986 0.144822 0.999782 0.769536
C162  C     C_R   0.999988 0.854971 0.999913 0.782578
C163  C     C_R   0.499973 0.644831 0.999976 0.767557
C164  C     C_R   0.499971 0.354976 0.999943 0.785485
C165  C     C_R   0.999984 0.355274 0.999985 0.915385
C166  C     C_R   0.000002 0.645149 0.000019 0.914205
C167  C     C_R   0.499969 0.855269 0.999959 0.917322
C168  C     C_R   0.500007 0.145144 0.000008 0.915362
C169  C     C_R   0.999159 0.459290 0.943138 0.345165
C170  C     C_R   0.949793 0.542452 0.993942 0.406929
C171  C     C_R   0.000441 0.459241 0.056675 0.344621
C172  C     C_R   0.049988 0.542454 0.006064 0.406839
C173  C     C_R   0.498921 0.959259 0.942841 0.345420
C174  C     C_R   0.449985 0.042402 0.994112 0.406240
C175  C     C_R   0.501009 0.959233 0.056976 0.345482
C176  C     C_R   0.549933 0.042461 0.005675 0.407322
C177  C     C_R   0.004095 0.418820 0.946652 0.263169
C178  C     C_R   0.950535 0.582948 0.995146 0.306583
C179  C     C_R   0.995593 0.418759 0.053200 0.262159
C180  C     C_R   0.049352 0.582950 0.004916 0.306677
C181  C     C_R   0.503595 0.918774 0.946141 0.262872
C182  C     C_R   0.450599 0.082903 0.995126 0.308658
C183  C     C_R   0.496198 0.918752 0.053598 0.262111
C184  C     C_R   0.549269 0.082959 0.004581 0.305073
C185  C     C_R   0.999894 0.398092 0.999946 -0.368482
C186  C     C_R   0.999961 0.603049 0.000024 -0.392116
C187  C     C_R   0.499910 0.898077 0.999888 -0.368590
C188  C     C_R   0.499973 0.103035 0.999943 -0.393165
C189  C     C_R   0.999790 0.479510 0.999907 -0.180128
C190  C     C_R   0.999852 0.522064 0.999964 -0.175710
C191  C     C_R   0.499970 0.979488 0.999913 -0.180332
C192  C     C_R   0.499976 0.022042 0.999923 -0.176072
H1    H     H_    0.695522 0.252709 0.550195 0.198930
H2    H     H_    0.267268 0.804013 0.450412 0.215356
H3    H     H_    0.307134 0.253940 0.446963 0.204786
H4    H     H_    0.735805 0.805429 0.549974 0.214889
H5    H     H_    0.193773 0.758566 0.553446 0.202410
H6    H     H_    0.767443 0.303796 0.450639 0.216633
H7    H     H_    0.806847 0.757951 0.446089 0.202471
H8    H     H_    0.241165 0.307422 0.550405 0.212501
H9    H     H_    0.098297 0.026418 0.037637 0.121391
H10   H     H_    0.947373 0.972879 0.047212 0.133204
H11   H     H_    0.901312 0.026267 0.959518 0.116359
H12   H     H_    0.051526 0.972576 0.949687 0.133590
H13   H     H_    0.596839 0.526282 0.034638 0.122423
H14   H     H_    0.450249 0.472737 0.051608 0.134178
H15   H     H_    0.401822 0.526537 0.963609 0.122576
H16   H     H_    0.547408 0.472812 0.945349 0.134609
H17   H     H_    0.097273 0.097374 0.035454 0.142097
H18   H     H_    0.946657 0.901822 0.046259 0.134164
H19   H     H_    0.901962 0.097214 0.961055 0.144131
H20   H     H_    0.052098 0.901477 0.951384 0.134554
H21   H     H_    0.596172 0.597225 0.032656 0.140999
H22   H     H_    0.449856 0.401644 0.050692 0.135260
H23   H     H_    0.403415 0.597439 0.966889 0.141389
H24   H     H_    0.548407 0.401702 0.947079 0.135893
H25   H     H_    0.796979 0.093275 0.937742 0.164990
H26   H     H_    0.171526 0.901227 0.041149 0.156818
H27   H     H_    0.211818 0.095209 0.088471 0.165942
H28   H     H_    0.822997 0.899598 0.942869 0.158181
H29   H     H_    0.285535 0.596356 0.905992 0.165714
H30   H     H_    0.668800 0.401827 0.037370 0.157278
H31   H     H_    0.713811 0.596337 0.092848 0.165450
H32   H     H_    0.322813 0.400422 0.947596 0.159268
H33   H     H_    0.813992 0.151036 0.013388 0.175565
H34   H     H_    0.175705 0.844814 0.976660 0.168484
H35   H     H_    0.203368 0.145874 0.003398 0.179608
H36   H     H_    0.817973 0.846378 0.013388 0.169616
H37   H     H_    0.292690 0.645864 0.991972 0.179347
H38   H     H_    0.673259 0.345155 0.973664 0.170218
H39   H     H_    0.706727 0.646229 0.007516 0.179395
H40   H     H_    0.316736 0.346370 0.015485 0.170452
H41   H     H_    0.165479 0.699259 0.930475 0.172346
H42   H     H_    0.833832 0.301132 0.068812 0.164549
H43   H     H_    0.835091 0.699709 0.070882 0.171686
H44   H     H_    0.164329 0.299507 0.926972 0.164517
H45   H     H_    0.666843 0.198685 0.933385 0.168228
H46   H     H_    0.335095 0.800050 0.071567 0.164889
H47   H     H_    0.334588 0.199330 0.069955 0.172511
H48   H     H_    0.663769 0.799162 0.925982 0.164702
O1    O     O_3   0.000000 0.250000 0.000000 -0.501897
O2    O     O_3   0.000000 0.750000 0.000000 -0.498843
O3    O     O_3   0.500000 0.750000 0.000000 -0.503153
O4    O     O_3   0.500000 0.250000 0.000000 -0.497725
O5    O     O_R   0.093070 0.272740 0.954520 -0.672551
O6    O     O_R   0.906930 0.727260 0.045480 -0.655697
O7    O     O_R   0.906930 0.272740 0.045480 -0.669945
O8    O     O_R   0.093070 0.727260 0.954520 -0.655874
O9    O     O_R   0.593070 0.772740 0.954520 -0.674072
O10   O     O_R   0.406930 0.227260 0.045480 -0.654841
O11   O     O_R   0.406930 0.772740 0.045480 -0.673807
O12   O     O_R   0.593070 0.227260 0.954520 -0.653407
O13   O     O_R   0.117100 0.227270 0.173460 -0.603324
O14   O     O_R   0.882900 0.772730 0.826540 -0.608603
O15   O     O_R   0.882900 0.227270 0.826540 -0.620904
O16   O     O_R   0.117100 0.772730 0.173460 -0.607418
O17   O     O_R   0.617100 0.727270 0.173460 -0.604499
O18   O     O_R   0.382900 0.272730 0.826540 -0.610820
O19   O     O_R   0.382900 0.727270 0.826540 -0.605024
O20   O     O_R   0.617100 0.272730 0.173460 -0.603852
O21   O     O_R   0.053120 0.163270 0.045480 -0.654732
O22   O     O_R   0.946880 0.836730 0.954520 -0.635064
O23   O     O_R   0.946880 0.163270 0.954520 -0.652242
O24   O     O_R   0.053120 0.836730 0.045480 -0.628743
O25   O     O_R   0.553120 0.663270 0.045480 -0.655776
O26   O     O_R   0.446880 0.336730 0.954520 -0.634123
O27   O     O_R   0.446880 0.663270 0.954520 -0.656491
O28   O     O_R   0.553120 0.336730 0.045480 -0.627864
O29   O     O_R   0.007620 0.336730 0.954520 -0.607728
O30   O     O_R   0.992380 0.663270 0.045480 -0.614113
O31   O     O_R   0.992380 0.336730 0.045480 -0.608116
O32   O     O_R   0.007620 0.663270 0.954520 -0.614350
O33   O     O_R   0.507620 0.836730 0.954520 -0.607901
O34   O     O_R   0.492380 0.163270 0.045480 -0.610115
O35   O     O_R   0.492380 0.836730 0.045480 -0.607661
O36   O     O_R   0.507620 0.163270 0.954520 -0.618862
O37   O     O_R   0.056370 0.272740 0.173460 -0.639068
O38   O     O_R   0.943630 0.727260 0.826540 -0.611292
O39   O     O_R   0.943630 0.272740 0.826540 -0.636987
O40   O     O_R   0.056370 0.727260 0.173460 -0.611009
O41   O     O_R   0.556370 0.772740 0.173460 -0.641457
O42   O     O_R   0.443630 0.227260 0.826540 -0.617284
O43   O     O_R   0.443630 0.772740 0.826540 -0.642746
O44   O     O_R   0.556370 0.227260 0.173460 -0.628850
O45   O     O_R   0.138550 0.227260 0.045470 -0.617237
O46   O     O_R   0.861450 0.772740 0.954530 -0.650773
O47   O     O_R   0.861450 0.227260 0.954530 -0.617341
O48   O     O_R   0.138550 0.772740 0.045470 -0.650770
O49   O     O_R   0.638550 0.727260 0.045470 -0.617181
O50   O     O_R   0.361450 0.272740 0.954530 -0.652699
O51   O     O_R   0.361450 0.727260 0.954530 -0.617722
O52   O     O_R   0.638550 0.272740 0.045470 -0.651308
Zn1   Zn    Zn3+2 0.989110 0.282490 0.064980 0.980300
Zn2   Zn    Zn3+2 0.010890 0.717510 0.935020 0.968104
Zn3   Zn    Zn3+2 0.010890 0.282490 0.935020 0.980982
Zn4   Zn    Zn3+2 0.989110 0.717510 0.064980 0.968883
Zn5   Zn    Zn3+2 0.489110 0.782490 0.064980 0.979866
Zn6   Zn    Zn3+2 0.510890 0.217510 0.935020 0.965404
Zn7   Zn    Zn3+2 0.510890 0.782490 0.935020 0.979370
Zn8   Zn    Zn3+2 0.489110 0.217510 0.064980 0.968641
Zn9   Zn    Zn3+2 0.075880 0.217510 0.064980 1.007901
Zn10  Zn    Zn3+2 0.924120 0.782490 0.935020 0.976646
Zn11  Zn    Zn3+2 0.924120 0.217510 0.935020 0.993289
Zn12  Zn    Zn3+2 0.075880 0.782490 0.064980 0.980381
Zn13  Zn    Zn3+2 0.575880 0.717510 0.064980 1.007336
Zn14  Zn    Zn3+2 0.424120 0.282490 0.935020 0.977965
Zn15  Zn    Zn3+2 0.424120 0.717510 0.935020 1.007011
Zn16  Zn    Zn3+2 0.575880 0.282490 0.064980 0.981815
O53   O     O_3   0.999452 0.479262 0.887891 -0.543933
C193  C     C_3   0.935930 0.481016 0.818814 0.133144
H49   H     H_    0.903909 0.496745 0.828229 0.092580
H50   H     H_    0.916223 0.451420 0.795989 0.165034
C194  C     C_3   0.936139 0.503056 0.758131 -0.791953
H51   H     H_    0.967237 0.487881 0.746639 0.259851
H52   H     H_    0.886334 0.504795 0.703407 0.195286
H53   H     H_    0.954782 0.532941 0.778902 0.263064
O54   O     O_3   0.902391 0.523468 0.993165 -0.520409
C195  C     C_3   0.856057 0.507127 0.919342 0.117301
H54   H     H_    0.872034 0.478015 0.915246 0.121701
H55   H     H_    0.846382 0.525551 0.871042 0.084632
C196  C     C_3   0.793033 0.502055 0.908559 -0.817815
H56   H     H_    0.775277 0.530687 0.911947 0.258100
H57   H     H_    0.756232 0.488902 0.851054 0.198835
H58   H     H_    0.800453 0.482724 0.954395 0.253682
O55   O     O_3   0.000166 0.479161 0.111953 -0.543972
C197  C     C_3   0.063705 0.480991 0.180992 0.133324
H59   H     H_    0.095522 0.497056 0.171613 0.092921
H60   H     H_    0.083693 0.451421 0.203559 0.163604
C198  C     C_3   0.063403 0.502629 0.241940 -0.793547
H61   H     H_    0.032489 0.487110 0.253376 0.258960
H62   H     H_    0.113221 0.504438 0.296630 0.194847
H63   H     H_    0.044493 0.532488 0.221456 0.263609
O56   O     O_3   0.097365 0.523472 0.006864 -0.520265
C199  C     C_3   0.143621 0.507102 0.080673 0.117354
H64   H     H_    0.127501 0.478020 0.084771 0.121205
H65   H     H_    0.153402 0.525547 0.128981 0.084395
C200  C     C_3   0.206609 0.501928 0.091432 -0.818935
H66   H     H_    0.224511 0.530527 0.088046 0.258296
H67   H     H_    0.243348 0.488756 0.148930 0.198336
H68   H     H_    0.199075 0.482574 0.045585 0.253468
O57   O     O_3   0.499060 0.979227 0.887475 -0.543467
C201  C     C_3   0.435398 0.981334 0.818741 0.131419
H69   H     H_    0.403761 0.997035 0.828801 0.092166
H70   H     H_    0.415346 0.951848 0.795465 0.165248
C202  C     C_3   0.435414 0.003664 0.758179 -0.786604
H71   H     H_    0.466129 0.988543 0.746033 0.261482
H72   H     H_    0.385503 0.005671 0.703712 0.194535
H73   H     H_    0.454399 0.033449 0.779438 0.262457
O58   O     O_3   0.402826 0.023393 0.993790 -0.520210
C203  C     C_3   0.356296 0.006979 0.920110 0.118070
H74   H     H_    0.372257 0.977873 0.915962 0.121541
H75   H     H_    0.346316 0.025366 0.871620 0.084465
C204  C     C_3   0.293497 0.001870 0.909847 -0.818230
H76   H     H_    0.275757 0.030498 0.913282 0.258390
H77   H     H_    0.256550 0.988653 0.852466 0.198067
H78   H     H_    0.301214 0.982580 0.955897 0.253671
O59   O     O_3   0.501152 0.979167 0.112546 -0.544009
C205  C     C_3   0.564871 0.981024 0.181255 0.131487
H79   H     H_    0.596345 0.997217 0.171488 0.092972
H80   H     H_    0.585057 0.951467 0.203626 0.164148
C206  C     C_3   0.564997 0.002504 0.242654 -0.789618
H81   H     H_    0.534433 0.986851 0.254479 0.259254
H82   H     H_    0.614963 0.004340 0.297078 0.194334
H83   H     H_    0.545910 0.032350 0.222383 0.264721
O60   O     O_3   0.597106 0.023513 0.006013 -0.518824
C207  C     C_3   0.643610 0.007091 0.079683 0.118082
H84   H     H_    0.627598 0.977983 0.083839 0.121291
H85   H     H_    0.653632 0.025474 0.128180 0.083284
C208  C     C_3   0.706387 0.001981 0.089919 -0.816693
H86   H     H_    0.724174 0.030606 0.086448 0.258695
H87   H     H_    0.743322 0.988774 0.147305 0.197184
H88   H     H_    0.698619 0.982683 0.043874 0.254305
O61   O     O_3   0.948004 0.247628 0.707554 -0.602074
C209  C     C_3   0.973606 0.284153 0.709395 0.121870
H89   H     H_    0.962964 0.306403 0.737508 0.161918
H90   H     H_    0.954319 0.294421 0.650366 0.178396
C210  C     C_3   0.046247 0.280382 0.755908 -0.759095
H91   H     H_    0.058099 0.261461 0.724590 0.275371
H92   H     H_    0.068153 0.309406 0.764665 0.192078
H93   H     H_    0.066649 0.267345 0.813251 0.273002
O62   O     O_3   0.095043 0.692681 0.299017 -0.575332
C211  C     C_3   0.039924 0.700422 0.295390 0.160515
H94   H     H_    0.018144 0.728981 0.267352 0.120097
H95   H     H_    0.051911 0.700245 0.354166 0.163519
C212  C     C_3   0.989949 0.668913 0.247482 -0.783908
H96   H     H_    0.010960 0.639945 0.272745 0.256450
H97   H     H_    0.947542 0.673327 0.247144 0.159303
H98   H     H_    0.973937 0.669803 0.186925 0.285396
O63   O     O_3   0.055202 0.250229 0.296111 -0.599879
C213  C     C_3   0.030871 0.287127 0.294695 0.113338
H99   H     H_    0.040617 0.308816 0.264791 0.161233
H100  H     H_    0.051917 0.297871 0.353980 0.179708
C214  C     C_3   0.958459 0.283927 0.250947 -0.737979
H101  H     H_    0.947720 0.263946 0.282067 0.274289
H102  H     H_    0.938040 0.312905 0.246576 0.207063
H103  H     H_    0.935662 0.272544 0.191746 0.267575
O64   O     O_3   0.904333 0.692389 0.700913 -0.575401
C215  C     C_3   0.959638 0.699771 0.704694 0.160118
H104  H     H_    0.981686 0.728337 0.732511 0.120215
H105  H     H_    0.947754 0.699349 0.645973 0.163323
C216  C     C_3   0.009317 0.668211 0.752958 -0.782733
H106  H     H_    0.988119 0.639243 0.727861 0.256222
H107  H     H_    0.051863 0.672426 0.753467 0.160363
H108  H     H_    0.025168 0.669289 0.813436 0.285834
O65   O     O_3   0.444735 0.744467 0.704468 -0.601923
C217  C     C_3   0.472845 0.780138 0.707225 0.115598
H109  H     H_    0.461896 0.803461 0.733307 0.157301
H110  H     H_    0.455854 0.789514 0.648531 0.180595
C218  C     C_3   0.545473 0.775024 0.756907 -0.746069
H111  H     H_    0.558108 0.755032 0.727738 0.276422
H112  H     H_    0.569012 0.803510 0.766209 0.198650
H113  H     H_    0.563462 0.762641 0.813976 0.268917
O66   O     O_3   0.597060 0.191600 0.300227 -0.587269
C219  C     C_3   0.539753 0.203043 0.289437 0.200995
H114  H     H_    0.498539 0.189264 0.235195 0.171827
H115  H     H_    0.530716 0.234974 0.281477 0.099828
C220  C     C_3   0.539095 0.188790 0.355699 -0.854289
H116  H     H_    0.571942 0.206624 0.408323 0.270182
H117  H     H_    0.489818 0.191536 0.339206 0.176448
H118  H     H_    0.553869 0.157853 0.368647 0.280080
O67   O     O_3   0.555686 0.746391 0.296306 -0.601511
C221  C     C_3   0.528914 0.782500 0.294016 0.112959
H119  H     H_    0.539961 0.805374 0.267223 0.157736
H120  H     H_    0.546888 0.792173 0.352912 0.181872
C222  C     C_3   0.456244 0.778129 0.245595 -0.738469
H121  H     H_    0.443819 0.757672 0.274378 0.275358
H122  H     H_    0.433899 0.806719 0.238889 0.207322
H123  H     H_    0.436867 0.766689 0.187421 0.266877
O68   O     O_3   0.393556 0.187641 0.701166 -0.582898
C223  C     C_3   0.449722 0.188990 0.705005 0.148281
H124  H     H_    0.477191 0.216327 0.732855 0.127337
H125  H     H_    0.437770 0.186616 0.646420 0.172595
C224  C     C_3   0.492867 0.154920 0.753319 -0.761358
H126  H     H_    0.465964 0.127244 0.728429 0.253674
H127  H     H_    0.535650 0.154211 0.753596 0.188264
H128  H     H_    0.509271 0.157724 0.813854 0.284633
Cl1   Cl    Cl    0.749340 0.259227 0.708564 -0.607663
Cl2   Cl    Cl    0.200317 0.822102 0.295070 -0.583421
Cl3   Cl    Cl    0.250251 0.259444 0.288126 -0.534422
Cl4   Cl    Cl    0.804308 0.823658 0.705581 -0.583318
Cl5   Cl    Cl    0.251377 0.765012 0.712538 -0.540463
Cl6   Cl    Cl    0.697407 0.323167 0.295176 -0.581614
Cl7   Cl    Cl    0.748793 0.764205 0.286918 -0.540458
Cl8   Cl    Cl    0.311671 0.325916 0.706477 -0.579332
O69   O     O_3   0.008612 0.399653 0.893951 -0.566810
C225  C     C_3   0.073845 0.399495 0.922412 0.205776
H129  H     H_    0.105620 0.386963 0.981919 0.115464
H130  H     H_    0.090538 0.429397 0.923341 0.173994
C226  C     C_3   0.080504 0.374639 0.869572 -0.858540
H131  H     H_    0.050368 0.386689 0.809902 0.248753
H132  H     H_    0.131624 0.374079 0.891398 0.198405
H133  H     H_    0.064602 0.344523 0.868117 0.277317
O70   O     O_3   0.904755 0.602691 0.996349 -0.539354
C227  C     C_3   0.853968 0.614613 0.920352 0.139002
H134  H     H_    0.827429 0.589154 0.882683 0.131572
H135  H     H_    0.871786 0.632412 0.893873 0.103734
C228  C     C_3   0.806746 0.639172 0.922927 -0.823949
H136  H     H_    0.766349 0.648548 0.863470 0.196051
H137  H     H_    0.787027 0.622128 0.947878 0.258799
H138  H     H_    0.831551 0.665287 0.959093 0.259997
O71   O     O_3   0.991302 0.399533 0.106076 -0.567417
C229  C     C_3   0.926184 0.399406 0.078073 0.207615
H139  H     H_    0.894304 0.386482 0.018931 0.116690
H140  H     H_    0.909375 0.429354 0.076451 0.173654
C230  C     C_3   0.919956 0.375057 0.131871 -0.862533
H141  H     H_    0.950388 0.387453 0.191255 0.247466
H142  H     H_    0.868961 0.374616 0.110536 0.195806
H143  H     H_    0.935747 0.344862 0.133856 0.276757
O72   O     O_3   0.095223 0.602702 0.003828 -0.539601
C231  C     C_3   0.146011 0.614573 0.079878 0.138461
H144  H     H_    0.172681 0.589090 0.117343 0.131944
H145  H     H_    0.128188 0.632156 0.106558 0.103914
C232  C     C_3   0.193075 0.639404 0.077367 -0.823050
H146  H     H_    0.233459 0.648786 0.136853 0.195418
H147  H     H_    0.212841 0.622573 0.052281 0.258373
H148  H     H_    0.168096 0.665517 0.041327 0.259964
O73   O     O_3   0.507038 0.899563 0.892611 -0.567102
C233  C     C_3   0.571954 0.899095 0.919867 0.207772
H149  H     H_    0.604154 0.886424 0.979212 0.116044
H150  H     H_    0.588847 0.928919 0.920702 0.173728
C234  C     C_3   0.577374 0.874204 0.866006 -0.856176
H151  H     H_    0.561267 0.844138 0.864533 0.276822
H152  H     H_    0.546814 0.886417 0.806476 0.248628
H153  H     H_    0.628238 0.873422 0.886904 0.196144
O74   O     O_3   0.404667 0.102635 0.996047 -0.537598
C235  C     C_3   0.353976 0.114474 0.919930 0.138053
H154  H     H_    0.327319 0.088973 0.882491 0.131472
H155  H     H_    0.371895 0.132040 0.893299 0.105384
C236  C     C_3   0.306846 0.139308 0.922210 -0.821643
H156  H     H_    0.331751 0.165494 0.958054 0.260020
H157  H     H_    0.266484 0.148569 0.862641 0.195609
H158  H     H_    0.287059 0.122521 0.947361 0.258714
O75   O     O_3   0.492630 0.899527 0.107054 -0.567038
C237  C     C_3   0.427723 0.899214 0.079853 0.209295
H159  H     H_    0.395466 0.886432 0.020614 0.116545
H160  H     H_    0.410963 0.929095 0.078789 0.173093
C238  C     C_3   0.422203 0.874563 0.133933 -0.861652
H161  H     H_    0.452899 0.886857 0.193394 0.247322
H162  H     H_    0.371358 0.873934 0.113135 0.194676
H163  H     H_    0.438080 0.844435 0.135532 0.277239
O76   O     O_3   0.594998 0.102746 0.003270 -0.539879
C239  C     C_3   0.646015 0.114487 0.079309 0.138483
H164  H     H_    0.672809 0.088946 0.116472 0.131881
H165  H     H_    0.628421 0.131923 0.106418 0.102709
C240  C     C_3   0.692846 0.139455 0.076599 -0.823427
H166  H     H_    0.667801 0.165709 0.041153 0.258448
H167  H     H_    0.733552 0.148600 0.136105 0.193955
H168  H     H_    0.712169 0.122835 0.050760 0.262209
O77   O     O_3   0.721464 0.089070 0.781281 -0.579860
C241  C     C_3   0.778568 0.070573 0.802769 0.082778
H169  H     H_    0.798655 0.052561 0.855233 0.147427
H170  H     H_    0.815470 0.091868 0.813370 0.132302
C242  C     C_3   0.763026 0.043769 0.737776 -0.816709
H171  H     H_    0.742114 0.060603 0.683740 0.245438
H172  H     H_    0.807888 0.029427 0.754186 0.206588
H173  H     H_    0.728025 0.021203 0.727204 0.269706
O78   O     O_3   0.237563 0.909370 0.198166 -0.595024
C243  C     C_3   0.175665 0.925846 0.160766 0.155710
H174  H     H_    0.137787 0.903116 0.138535 0.180793
H175  H     H_    0.164258 0.945043 0.112718 0.128935
C244  C     C_3   0.175016 0.950736 0.218250 -0.785231
H176  H     H_    0.211720 0.974098 0.241113 0.248064
H177  H     H_    0.126740 0.964195 0.189029 0.205341
H178  H     H_    0.185749 0.932567 0.267148 0.279786
O79   O     O_3   0.259900 0.104621 0.238498 -0.616641
C245  C     C_3   0.198952 0.088084 0.206713 0.135972
H179  H     H_    0.187710 0.065412 0.163723 0.137431
H180  H     H_    0.160016 0.110409 0.179278 0.160842
C246  C     C_3   0.200631 0.068699 0.271007 -0.824556
H181  H     H_    0.210495 0.090654 0.314486 0.257441
H182  H     H_    0.153412 0.054722 0.246342 0.209169
H183  H     H_    0.238930 0.046200 0.299943 0.257811
O80   O     O_3   0.762129 0.901192 0.786382 -0.583965
C247  C     C_3   0.824291 0.917432 0.824104 0.157886
H184  H     H_    0.862965 0.895040 0.854759 0.181153
H185  H     H_    0.832560 0.940120 0.865733 0.128140
C248  C     C_3   0.828782 0.936531 0.764216 -0.773784
H186  H     H_    0.789671 0.958216 0.730376 0.248591
H187  H     H_    0.876124 0.951303 0.793659 0.200387
H188  H     H_    0.824075 0.914286 0.723990 0.289165
O81   O     O_3   0.241951 0.607719 0.758234 -0.622202
C249  C     C_3   0.303524 0.591725 0.791621 0.137105
H189  H     H_    0.313986 0.568536 0.833428 0.139659
H190  H     H_    0.342193 0.614242 0.821010 0.163456
C250  C     C_3   0.304184 0.573422 0.728222 -0.831033
H191  H     H_    0.294753 0.595893 0.685731 0.256104
H192  H     H_    0.352053 0.560125 0.754041 0.211034
H193  H     H_    0.266592 0.550535 0.697862 0.257626
O82   O     O_3   0.736001 0.410899 0.194495 -0.600070
C251  C     C_3   0.674093 0.427325 0.157230 0.155062
H194  H     H_    0.636428 0.404554 0.135974 0.181556
H195  H     H_    0.662220 0.446159 0.108533 0.129784
C252  C     C_3   0.673822 0.452724 0.214437 -0.786970
H196  H     H_    0.710247 0.476189 0.236230 0.247619
H197  H     H_    0.625481 0.466066 0.185347 0.206937
H198  H     H_    0.685161 0.434958 0.264068 0.279588
O83   O     O_3   0.757882 0.607039 0.240968 -0.622947
C253  C     C_3   0.696421 0.590761 0.207374 0.134714
H199  H     H_    0.686214 0.567688 0.165500 0.139626
H200  H     H_    0.657582 0.613145 0.178041 0.163778
C254  C     C_3   0.695800 0.572157 0.270609 -0.832602
H201  H     H_    0.704782 0.594516 0.313037 0.256485
H202  H     H_    0.648103 0.558520 0.244613 0.211977
H203  H     H_    0.733726 0.549494 0.301106 0.257820
O84   O     O_3   0.264329 0.403348 0.791844 -0.584377
C255  C     C_3   0.326661 0.419426 0.830215 0.159666
H204  H     H_    0.364487 0.396497 0.855804 0.183503
H205  H     H_    0.336917 0.439954 0.875993 0.126867
C256  C     C_3   0.329746 0.442201 0.772365 -0.770111
H206  H     H_    0.293447 0.465888 0.746495 0.244715
H207  H     H_    0.378482 0.455128 0.802194 0.203712
H208  H     H_    0.320001 0.422662 0.725596 0.286491
O85   O     O_3   0.685548 0.225285 0.796422 -0.544032
C257  C     C_3   0.618968 0.224602 0.761933 0.150696
H209  H     H_    0.608079 0.208870 0.797748 0.100029
H210  H     H_    0.591739 0.210893 0.703771 0.189577
C258  C     C_3   0.595257 0.266090 0.752053 -0.806023
H211  H     H_    0.604669 0.282770 0.715904 0.279794
H212  H     H_    0.542636 0.266198 0.723241 0.185039
H213  H     H_    0.620623 0.280267 0.809612 0.252846
O86   O     O_3   0.318698 0.782271 0.206107 -0.621604
C259  C     C_3   0.288605 0.758267 0.228570 0.188627
H214  H     H_    0.241229 0.747499 0.177223 0.142190
H215  H     H_    0.281601 0.773968 0.267867 0.214994
C260  C     C_3   0.331255 0.723249 0.271818 -0.898615
H216  H     H_    0.379064 0.732881 0.323781 0.260721
H217  H     H_    0.308392 0.704293 0.290493 0.210095
H218  H     H_    0.337984 0.706392 0.233460 0.261405
O87   O     O_3   0.300139 0.235658 0.197423 -0.530998
C261  C     C_3   0.367128 0.237532 0.234450 0.140669
H219  H     H_    0.383801 0.216823 0.210239 0.077271
H220  H     H_    0.393702 0.231544 0.297150 0.171665
C262  C     C_3   0.384320 0.278291 0.225577 -0.802473
H221  H     H_    0.370421 0.299762 0.251336 0.274589
H222  H     H_    0.437053 0.280367 0.255619 0.191473
H223  H     H_    0.358556 0.285139 0.163255 0.248091
O88   O     O_3   0.682782 0.775856 0.792286 -0.623852
C263  C     C_3   0.714960 0.750916 0.774139 0.183583
H224  H     H_    0.761884 0.741125 0.827550 0.138851
H225  H     H_    0.723347 0.765303 0.734885 0.205845
C264  C     C_3   0.673484 0.715187 0.733142 -0.899373
H226  H     H_    0.625921 0.723875 0.679596 0.261621
H227  H     H_    0.697738 0.695526 0.717414 0.208355
H228  H     H_    0.665936 0.699453 0.771872 0.262170
O89   O     O_3   0.201460 0.737961 0.801963 -0.525115
C265  C     C_3   0.134691 0.740488 0.765504 0.117387
H229  H     H_    0.122310 0.729230 0.803185 0.108935
H230  H     H_    0.106756 0.724172 0.710062 0.144492
C266  C     C_3   0.114206 0.782788 0.747936 -0.770675
H231  H     H_    0.124638 0.794952 0.709049 0.281909
H232  H     H_    0.061670 0.785127 0.718999 0.181422
H233  H     H_    0.140772 0.799781 0.802614 0.247518
O90   O     O_3   0.818628 0.284136 0.204369 -0.618676
C267  C     C_3   0.788631 0.259571 0.226182 0.190164
H234  H     H_    0.745066 0.245679 0.174353 0.136347
H235  H     H_    0.774823 0.275672 0.258736 0.210541
C268  C     C_3   0.835460 0.227673 0.278532 -0.884286
H236  H     H_    0.879625 0.240619 0.330995 0.259703
H237  H     H_    0.812585 0.208276 0.296578 0.207129
H238  H     H_    0.848983 0.210293 0.247139 0.258488
O91   O     O_3   0.799171 0.737562 0.198994 -0.524436
C269  C     C_3   0.866055 0.739876 0.236035 0.115503
H239  H     H_    0.877948 0.730635 0.196825 0.112126
H240  H     H_    0.893535 0.721714 0.289148 0.140315
C270  C     C_3   0.887938 0.781700 0.259448 -0.765073
H241  H     H_    0.878000 0.791786 0.300013 0.282508
H242  H     H_    0.940529 0.783867 0.288579 0.180047
H243  H     H_    0.861889 0.800591 0.207299 0.248531
O92   O     O_3   0.185270 0.276685 0.792346 -0.626769
C271  C     C_3   0.217813 0.252190 0.774058 0.180824
H244  H     H_    0.264178 0.241840 0.827495 0.141365
H245  H     H_    0.227291 0.267138 0.736263 0.205271
C272  C     C_3   0.175977 0.216874 0.730821 -0.895999
H246  H     H_    0.128729 0.226130 0.677471 0.260808
H247  H     H_    0.200319 0.197677 0.714534 0.208673
H248  H     H_    0.167740 0.200418 0.768264 0.261899
O93   O     O_3   0.661360 0.158548 0.708586 -0.601232
C273  C     C_3   0.694716 0.159625 0.676009 0.165683
H249  H     H_    0.708635 0.129834 0.671911 0.161045
H250  H     H_    0.738957 0.177965 0.710094 0.174106
C274  C     C_3   0.650100 0.176295 0.594658 -0.789313
H251  H     H_    0.632901 0.205464 0.596429 0.281043
H252  H     H_    0.676418 0.179085 0.569521 0.254608
H253  H     H_    0.607891 0.156911 0.557273 0.246781
O94   O     O_3   0.316364 0.847129 0.281044 -0.542463
C275  C     C_3   0.374476 0.866391 0.308566 0.158649
H254  H     H_    0.365904 0.898108 0.297170 0.167566
H255  H     H_    0.396522 0.855026 0.281255 0.108112
C276  C     C_3   0.422498 0.860167 0.395476 -0.799862
H256  H     H_    0.432653 0.828696 0.408341 0.260879
H257  H     H_    0.468229 0.875496 0.417798 0.196245
H258  H     H_    0.402751 0.871728 0.425125 0.267602
O95   O     O_3   0.306924 0.179290 0.294631 -0.533690
C277  C     C_3   0.367115 0.161000 0.347579 0.124914
H259  H     H_    0.398351 0.162508 0.328409 0.080430
H260  H     H_    0.360326 0.130110 0.355751 0.199789
C278  C     C_3   0.402052 0.181128 0.425775 -0.792227
H261  H     H_    0.372931 0.179125 0.447603 0.284381
H262  H     H_    0.449482 0.167052 0.468140 0.204322
H263  H     H_    0.410014 0.212194 0.420214 0.258649
O96   O     O_3   0.686598 0.837161 0.710505 -0.538952
C279  C     C_3   0.624400 0.852128 0.676436 0.143198
H264  H     H_    0.626783 0.883908 0.687258 0.153160
H265  H     H_    0.600750 0.837402 0.699057 0.125813
C280  C     C_3   0.582748 0.845352 0.589490 -0.780711
H266  H     H_    0.533554 0.856807 0.562332 0.196601
H267  H     H_    0.603836 0.860451 0.564198 0.267445
H268  H     H_    0.579436 0.813784 0.577130 0.260137
O97   O     O_3   0.196870 0.683335 0.704704 -0.534732
C281  C     C_3   0.138955 0.663800 0.647824 0.130712
H269  H     H_    0.106849 0.659666 0.665392 0.085046
H270  H     H_    0.149776 0.635063 0.634974 0.199511
C282  C     C_3   0.102435 0.687495 0.573424 -0.811903
H271  H     H_    0.133313 0.692592 0.554737 0.298765
H272  H     H_    0.058466 0.671609 0.526854 0.195303
H273  H     H_    0.088138 0.715949 0.582800 0.256091
O98   O     O_3   0.815493 0.348817 0.278164 -0.544798
C283  C     C_3   0.872349 0.369665 0.305520 0.171902
H274  H     H_    0.863221 0.401347 0.303182 0.175915
H275  H     H_    0.890936 0.363545 0.271635 0.095953
C284  C     C_3   0.924664 0.358278 0.389199 -0.814006
H276  H     H_    0.935081 0.326747 0.392790 0.261241
H277  H     H_    0.969429 0.374819 0.411656 0.197491
H278  H     H_    0.908800 0.364809 0.425562 0.267229
O99   O     O_3   0.803221 0.682604 0.295438 -0.535171
C285  C     C_3   0.860489 0.662545 0.352277 0.133232
H279  H     H_    0.892448 0.657674 0.334715 0.086415
H280  H     H_    0.848696 0.634133 0.365130 0.200233
C286  C     C_3   0.897802 0.686220 0.426708 -0.815119
H281  H     H_    0.867142 0.691940 0.445489 0.298394
H282  H     H_    0.941293 0.669986 0.473209 0.195527
H283  H     H_    0.912947 0.714366 0.417333 0.255835
O100  O     O_3   0.192803 0.338532 0.713594 -0.541212
C287  C     C_3   0.128754 0.350994 0.676149 0.134746
H284  H     H_    0.127552 0.382078 0.689398 0.147841
H285  H     H_    0.103880 0.333089 0.693616 0.138632
C288  C     C_3   0.091810 0.346684 0.589086 -0.774297
H286  H     H_    0.041249 0.356360 0.559064 0.195017
H287  H     H_    0.114563 0.364668 0.569008 0.268697
H288  H     H_    0.091711 0.315817 0.574206 0.260708
O101  O     O_3   0.869018 0.251728 0.546037 -0.612093
C289  C     C_3   0.884752 0.214212 0.536194 0.148472
H289  H     H_    0.841409 0.200706 0.483672 0.117126
H290  H     H_    0.903701 0.194919 0.587171 0.146356
C290  C     C_3   0.936406 0.217627 0.524046 -0.820408
H291  H     H_    0.980787 0.230688 0.576078 0.258734
H292  H     H_    0.948160 0.188431 0.514055 0.198408
H293  H     H_    0.918929 0.236227 0.472966 0.258526
O102  O     O_3   0.172685 0.694736 0.459054 -0.618416
C291  C     C_3   0.210979 0.662063 0.473106 0.135487
H294  H     H_    0.263021 0.669515 0.513783 0.113535
H295  H     H_    0.199847 0.650300 0.418282 0.158077
C292  C     C_3   0.197427 0.630503 0.510655 -0.829155
H296  H     H_    0.145509 0.622605 0.472120 0.259339
H297  H     H_    0.226586 0.604340 0.521106 0.202377
H298  H     H_    0.210331 0.640933 0.566944 0.270323
O103  O     O_3   0.137042 0.255192 0.457642 -0.609345
C293  C     C_3   0.123348 0.217808 0.470786 0.144823
H299  H     H_    0.168705 0.203543 0.518859 0.114577
H300  H     H_    0.098494 0.199132 0.418052 0.150814
C294  C     C_3   0.079341 0.221679 0.494725 -0.830304
H301  H     H_    0.032917 0.235170 0.447140 0.256256
H302  H     H_    0.069552 0.192598 0.507668 0.201507
H303  H     H_    0.102679 0.240134 0.547255 0.259840
O104  O     O_3   0.826756 0.694586 0.540829 -0.617940
C295  C     C_3   0.787625 0.662297 0.526501 0.135570
H304  H     H_    0.735770 0.670232 0.486296 0.113327
H305  H     H_    0.798784 0.650460 0.581299 0.158273
C296  C     C_3   0.799934 0.630604 0.488027 -0.828521
H306  H     H_    0.851605 0.622168 0.526123 0.259227
H307  H     H_    0.770038 0.604748 0.477227 0.202347
H308  H     H_    0.787097 0.641176 0.431834 0.270316
O105  O     O_3   0.363787 0.749099 0.543185 -0.607814
C297  C     C_3   0.372167 0.710536 0.529016 0.142939
H309  H     H_    0.324999 0.698204 0.480384 0.114365
H310  H     H_    0.394185 0.691680 0.581187 0.150088
C298  C     C_3   0.416711 0.710540 0.505526 -0.821651
H311  H     H_    0.464762 0.722170 0.553513 0.258573
H312  H     H_    0.422592 0.680488 0.492189 0.198982
H313  H     H_    0.396035 0.728907 0.453328 0.261195
O106  O     O_3   0.686467 0.188153 0.458831 -0.611046
C299  C     C_3   0.721108 0.156547 0.459228 0.138967
H314  H     H_    0.773299 0.163582 0.494525 0.104174
H315  H     H_    0.703170 0.148406 0.399457 0.162089
C300  C     C_3   0.713183 0.121553 0.495653 -0.846114
H316  H     H_    0.661249 0.114555 0.463694 0.264261
H317  H     H_    0.738110 0.096086 0.493357 0.206214
H318  H     H_    0.734636 0.127685 0.557172 0.241617
O107  O     O_3   0.637317 0.751494 0.457623 -0.608588
C301  C     C_3   0.628268 0.713343 0.472974 0.143784
H319  H     H_    0.675436 0.700488 0.520339 0.114439
H320  H     H_    0.604037 0.694423 0.420629 0.151307
C302  C     C_3   0.586045 0.714730 0.499738 -0.826982
H321  H     H_    0.537902 0.726745 0.453005 0.257494
H322  H     H_    0.579870 0.685036 0.514314 0.200519
H323  H     H_    0.608856 0.733418 0.551907 0.261945
O108  O     O_3   0.319210 0.190869 0.540865 -0.614720
C303  C     C_3   0.275437 0.161073 0.524463 0.132846
H324  H     H_    0.225067 0.170955 0.480386 0.115928
H325  H     H_    0.281453 0.151320 0.577598 0.152994
C304  C     C_3   0.287530 0.126526 0.491140 -0.817261
H326  H     H_    0.337415 0.115603 0.534028 0.259452
H327  H     H_    0.252919 0.102902 0.476954 0.199487
H328  H     H_    0.281167 0.135254 0.437501 0.269188

loop_
_geom_bond_atom_site_label_1
_geom_bond_atom_site_label_2
_ccdc_geom_bond_type
C85   O5    A    
C273  H249  S    
C115  Cl7   S    
C228  H136  S    
C34   C42   A    
C113  Cl5   S    
C167  O33   A    
C275  C276  S    
C282  H271  S    
C181  C187  A    
C99   O67   S    
O87   C261  S    
C248  H188  S    
C90   O10   A    
C301  C302  S    
C91   O51   A    
O59   C205  S    
C170  C178  A    
O83   C253  S    
C39   C47   A    
C178  O70   S    
C87   O47   A    
C262  H222  S    
C88   O48   A    
C13   H33   S    
C249  H189  S    
C293  H300  S    
C101  C155  S    
O49   Zn13  S    
C292  H296  S    
C230  H143  S    
C30   C38   A    
C205  C206  S    
C40   C48   A    
C25   C74   S    
C252  H196  S    
C38   O94   S    
C6    H26   S    
C269  H239  S    
C210  H93   S    
C153  O13   A    
C289  C290  S    
C266  H232  S    
C301  H319  S    
C205  H79   S    
C5    H25   S    
C226  H132  S    
C279  C280  S    
C143  C149  A    
C225  H130  S    
C218  H112  S    
C134  H10   S    
C259  H214  S    
C60   H48   S    
C78   O102  S    
C165  O31   A    
C282  H272  S    
C22   C69   S    
C5    C13   A    
C212  H96   S    
O1    Zn11  S    
C208  H88   S    
C97   C105  A    
C50   O82   S    
O2    Zn12  S    
O13   Zn9   S    
C8    C16   A    
C225  H129  S    
C166  C186  S    
C219  H115  S    
C82   C98   A    
C110  C118  A    
C99   C107  A    
C41   C49   A    
C204  H77   S    
C200  H66   S    
C303  H325  S    
C133  H9    S    
C276  H258  S    
C239  H165  S    
O50   Zn14  S    
O61   C209  S    
C191  C192  S    
C84   C100  A    
C217  H110  S    
C110  Cl2   S    
C18   H38   S    
C93   C101  A    
C112  C120  A    
C97   O65   S    
C263  H224  S    
C256  H208  S    
C135  H11   S    
C281  C282  S    
C265  C266  S    
C27   C35   A    
O56   C199  S    
C21   C29   A    
C173  C191  A    
C15   H35   S    
C296  H308  S    
C287  C288  S    
C23   C31   A    
O86   C259  S    
O24   Zn12  S    
O14   Zn10  S    
C83   C131  A    
C257  H209  S    
C230  H142  S    
C164  O28   A    
C184  O76   S    
C81   C129  A    
C253  C254  S    
C240  H168  S    
C258  H213  S    
C12   C20   A    
C259  C260  S    
C214  H102  S    
C13   C21   A    
C35   O91   S    
C260  H216  S    
O3    Zn13  S    
C280  H268  S    
C299  H315  S    
C272  H246  S    
C146  H22   S    
C89   O9    A    
O97   C281  S    
O20   Zn16  S    
C166  O30   A    
C32   C40   A    
C96   C104  A    
O93   C273  S    
C228  H138  S    
C277  H260  S    
C36   C44   A    
C37   C45   A    
O26   Zn14  S    
C141  H17   S    
C64   C85   S    
C282  H273  S    
C77   C125  A    
C52   O84   S    
C175  C183  A    
C214  H101  S    
C176  C184  A    
C79   C127  A    
C253  H199  S    
C16   H36   S    
C289  H290  S    
O22   Zn10  S    
C195  C196  S    
C26   C34   A    
C96   O64   S    
C160  O44   A    
C23   C72   S    
C245  H179  S    
C220  H116  S    
C288  H288  S    
C201  C202  S    
O33   Zn7   S    
C87   O7    A    
C243  H174  S    
C268  H236  S    
C98   C106  A    
C25   C33   A    
C77   O101  S    
C294  H301  S    
C232  H146  S    
C304  H327  S    
C17   C25   A    
O91   C269  S    
C222  H122  S    
C199  C200  S    
C108  C116  A    
O78   C243  S    
C78   C94   A    
O39   Zn3   S    
C222  H123  S    
O63   C213  S    
C80   O104  S    
C119  H3    S    
O15   Zn11  S    
O69   C225  S    
C223  H125  S    
O16   Zn12  S    
C117  H1    S    
C10   H30   S    
O30   Zn4   S    
C178  C186  A    
C161  O21   A    
C158  O42   A    
C200  H68   S    
C94   C102  A    
C234  H151  S    
C286  H281  S    
C206  H81   S    
O45   Zn9   S    
C51   O83   S    
C247  H184  S    
C291  H295  S    
O3    Zn15  S    
C238  H162  S    
C218  H111  S    
O96   C279  S    
C28   C75   S    
C209  C210  S    
C57   H45   S    
O35   Zn5   S    
C270  H242  S    
C83   O107  S    
O98   C283  S    
C47   O79   S    
C182  O74   S    
C147  C151  A    
C169  C189  A    
C233  H150  S    
C43   C51   A    
C250  H193  S    
C243  C244  S    
C266  H231  S    
C288  H286  S    
O4    Zn6   S    
O71   C229  S    
C62   C70   A    
O81   C249  S    
C267  C268  S    
O106  C299  S    
C105  C113  A    
C10   C18   A    
C147  H23   S    
C258  H212  S    
C251  H194  S    
C295  H305  S    
O94   C275  S    
C288  H287  S    
C88   O8    A    
C265  H230  S    
O38   Zn2   S    
C300  H316  S    
C124  C132  A    
C235  C236  S    
C111  C119  A    
C302  H321  S    
C299  H314  S    
C209  H89   S    
C272  H248  S    
C155  O39   A    
C59   C67   A    
C287  H284  S    
C53   C61   A    
C157  O17   A    
C242  H171  S    
C290  H292  S    
C247  C248  S    
C55   C63   A    
C56   C64   A    
C227  H134  S    
C162  O24   A    
C35   C43   A    
C114  Cl6   S    
C168  O34   A    
C286  H283  S    
C135  C143  A    
C56   C75   A    
C278  H261  S    
O107  C301  S    
C183  O75   S    
C283  H275  S    
C14   H34   S    
C284  H277  S    
C171  C179  A    
O55   C197  S    
O72   C231  S    
C148  H24   S    
C169  C177  A    
C220  H117  S    
C95   C103  A    
C31   O87   S    
C199  H65   S    
C285  H280  S    
C92   O12   A    
C268  H238  S    
C237  H160  S    
C100  C108  A    
C34   O90   S    
O29   Zn3   S    
C28   C36   A    
C9    C49   A    
C251  C252  S    
C100  O68   S    
C104  C112  A    
C231  H144  S    
C275  H255  S    
C80   C128  A    
C195  H54   S    
C254  H202  S    
C164  O26   A    
C84   C132  A    
C67   C90   S    
C45   O77   S    
C242  H172  S    
C271  C272  S    
C205  H80   S    
O74   C235  S    
O43   Zn7   S    
C6    C14   A    
C300  H317  S    
C161  O23   A    
O2    Zn10  S    
C196  H58   S    
C57   C65   A    
C92   O52   A    
C227  C228  S    
C246  H181  S    
C171  O55   S    
C182  C188  A    
C122  H6    S    
C264  H228  S    
C267  H235  S    
C236  H157  S    
C207  C208  S    
C49   O81   S    
C197  H59   S    
C180  C186  A    
C42   C50   A    
C41   O97   S    
C89   O49   A    
C180  O72   S    
C196  H56   S    
C235  H154  S    
C221  H119  S    
C279  H265  S    
C122  C130  A    
C67   C75   A    
C54   H42   S    
C3    C4    S    
C263  C264  S    
C128  C131  S    
C102  C156  S    
C95   O63   S    
C266  H233  S    
C159  O19   A    
O4    Zn8   S    
C9    C17   A    
C189  C190  S    
O27   Zn15  S    
C255  H204  S    
C121  C129  A    
C273  H250  S    
C22   C30   A    
C249  C250  S    
C277  H259  S    
C148  C152  A    
C252  H197  S    
C231  C232  S    
O36   Zn6   S    
C2    C134  A    
C218  H113  S    
C248  H187  S    
O10   Zn8   S    
C302  H323  S    
C274  H253  S    
C264  H226  S    
O92   C271  S    
C249  H190  S    
C293  C294  S    
C169  O53   S    
C138  C146  A    
C32   O88   S    
C7    C15   A    
O40   Zn4   S    
C245  H180  S    
C297  H309  S    
C269  H240  S    
C210  H92   S    
O105  C297  S    
C177  O69   S    
C168  O36   A    
C181  O73   S    
C113  C121  A    
C221  C222  S    
O3    Zn7   S    
C254  H201  S    
C297  C298  S    
C265  H229  S    
C56   H44   S    
C259  H215  S    
C276  H257  S    
C212  H97   S    
C1    C135  A    
O17   Zn13  S    
C44   O100  S    
C239  C240  S    
C174  C192  A    
C274  H252  S    
C303  C304  S    
C119  C127  A    
C281  H270  S    
O66   C219  S    
C168  C188  S    
C207  H85   S    
C86   O46   A    
C53   C74   A    
C18   C26   A    
C136  H12   S    
C216  H108  S    
C204  H76   S    
C138  H14   S    
C109  C117  A    
C91   O11   A    
C206  H82   S    
C11   C19   A    
O67   C221  S    
C165  O29   A    
C246  H183  S    
C253  H200  S    
C12   H32   S    
C137  C145  A    
C156  O40   A    
O1    Zn1   S    
O77   C241  S    
C263  H225  S    
C256  H207  S    
C162  O22   A    
C101  C109  A    
C26   C73   S    
C177  C185  A    
C103  C111  A    
C284  H276  S    
C195  H55   S    
O12   Zn6   S    
C207  H84   S    
O31   Zn1   S    
C257  H210  S    
C278  H262  S    
C303  H324  S    
C224  H127  S    
C170  C190  A    
C159  O43   A    
C3    C137  A    
C57   C70   A    
C202  H72   S    
O108  C303  S    
O76   C239  S    
C257  C258  S    
C42   O98   S    
C59   C72   A    
C172  C180  A    
C3    C139  A    
C173  C181  A    
C222  H121  S    
C83   C99   A    
O80   C247  S    
C228  H137  S    
C277  C278  S    
C174  C182  A    
C225  C226  S    
O70   C227  S    
C121  H5    S    
C140  H16   S    
C111  Cl3   S    
C280  H267  S    
C206  H83   S    
C176  O60   S    
C216  H106  S    
C37   O93   S    
C203  H74   S    
O58   C203  S    
C150  C162  S    
C29   O85   S    
C215  H104  S    
C260  H217  S    
C115  C123  A    
O68   C223  S    
O41   Zn5   S    
C17   H37   S    
C229  H139  S    
C243  H175  S    
C54   C62   A    
C60   C71   A    
C79   O103  S    
C5    C45   A    
O44   Zn8   S    
C84   O108  S    
C7    C47   A    
C80   C96   A    
C8    C48   A    
C79   C95   A    
O82   C251  S    
C250  H192  S    
O34   Zn8   S    
C134  C142  A    
C54   C73   A    
C268  H237  S    
C211  C212  S    
O3    Zn5   S    
C254  H203  S    
O4    Zn16  S    
C68   C89   S    
C304  H326  S    
O8    Zn2   S    
C112  Cl4   S    
O11   Zn5   S    
C48   O80   S    
C215  H105  S    
C203  H75   S    
C223  C224  S    
C275  H254  S    
C296  H307  S    
C145  H21   S    
C211  H94   S    
C63   C86   S    
O51   Zn15  S    
C219  H114  S    
C247  H185  S    
C102  C110  A    
C232  H147  S    
C11   H31   S    
C27   C76   S    
C10   C50   A    
C53   H41   S    
C144  H20   S    
C204  H78   S    
C270  H241  S    
C154  O14   A    
C123  H7    S    
O7    Zn1   S    
C193  H49   S    
O19   Zn15  S    
C292  H298  S    
C116  C124  A    
C123  C131  A    
C201  H69   S    
C166  O32   A    
O46   Zn10  S    
O104  C295  S    
C55   H43   S    
O1    Zn3   S    
C213  H100  S    
C120  C128  A    
C58   C69   A    
O2    Zn4   S    
C213  H99   S    
C179  C185  A    
C258  H211  S    
C20   C28   A    
C62   C87   S    
C124  H8    S    
C229  H140  S    
C133  C141  A    
C273  C274  S    
C33   C41   A    
C142  C150  A    
C136  C144  A    
C158  O18   A    
C246  H182  S    
C251  H195  S    
C261  C262  S    
C14   C22   A    
C194  H51   S    
C105  C159  S    
C93   O61   S    
C90   O50   A    
C106  C160  S    
C77   C93   A    
C261  H220  S    
O101  C289  S    
C118  H2    S    
C271  H245  S    
C272  H247  S    
C194  H52   S    
C4    C138  A    
C9    H29   S    
C60   C68   A    
C290  H291  S    
C241  H170  S    
C29   C37   A    
C217  H109  S    
O103  C293  S    
C227  H135  S    
O60   C207  S    
C104  C154  S    
O64   C215  S    
C214  H103  S    
C302  H322  S    
C193  C194  S    
C66   C74   A    
C274  H251  S    
C65   C92   S    
C120  H4    S    
C289  H289  S    
C20   H40   S    
C173  O57   S    
C198  H61   S    
C16   C24   A    
O84   C255  S    
C298  H313  S    
C229  C230  S    
C98   O66   S    
C244  H178  S    
C224  H128  S    
C140  C148  A    
C213  C214  S    
C24   C32   A    
C262  H221  S    
C230  H141  S    
O1    Zn9   S    
C141  C149  A    
C137  H13   S    
O53   C193  S    
C219  C220  S    
C237  C238  S    
C139  C147  A    
C240  H166  S    
C107  C157  S    
C174  O58   S    
C85   O45   A    
O54   C195  S    
C106  C114  A    
C202  H73   S    
C260  H218  S    
C1    C2    S    
C183  C187  A    
C175  C191  A    
C153  O37   A    
C231  H145  S    
C176  C192  A    
C108  C158  S    
C203  C204  S    
C160  O20   A    
C65   C73   A    
C171  C189  A    
C299  C300  S    
C238  H161  S    
C94   O62   S    
C109  Cl1   S    
C127  C132  S    
O18   Zn14  S    
C294  H302  S    
C271  H244  S    
C201  H70   S    
C155  O15   A    
C125  C130  S    
C58   C66   A    
C232  H148  S    
C39   O95   S    
C196  H57   S    
C217  C218  S    
C250  H191  S    
C144  C150  A    
C291  H294  S    
C175  O59   S    
C220  H118  S    
C264  H227  S    
C19   C27   A    
C236  H156  S    
O52   Zn16  S    
C239  H164  S    
C270  H243  S    
C7    H27   S    
C226  H133  S    
C15   C23   A    
C285  H279  S    
C116  Cl8   S    
O47   Zn11  S    
C163  O25   A    
C221  H120  S    
C284  H278  S    
O48   Zn12  S    
C215  C216  S    
C267  H234  S    
C294  H303  S    
C197  C198  S    
C301  H320  S    
O100  C287  S    
C172  O56   S    
C216  H107  S    
C200  H67   S    
O2    Zn2   S    
C287  H285  S    
C255  H205  S    
C262  H223  S    
C1    C133  A    
C38   C46   A    
C154  O38   A    
O25   Zn13  S    
C244  H176  S    
C293  H299  S    
O73   C233  S    
C292  H297  S    
C240  H167  S    
C167  O35   A    
C261  H219  S    
C194  H53   S    
C143  H19   S    
C295  H304  S    
C233  C234  S    
C286  H282  S    
C296  H306  S    
O21   Zn9   S    
C234  H153  S    
C2    C136  A    
C103  C153  S    
C184  C188  A    
C46   O78   S    
O23   Zn11  S    
C59   H47   S    
C172  C190  A    
C179  O71   S    
O88   C263  S    
C241  H169  S    
C8    H28   S    
C61   C88   S    
O4    Zn14  S    
C4    C140  A    
C199  H64   S    
C285  C286  S    
C290  H293  S    
C167  C187  S    
C248  H186  S    
C291  C292  S    
C298  H311  S    
C198  H62   S    
O37   Zn1   S    
C68   C76   A    
C297  H310  S    
C36   O92   S    
C269  C270  S    
C107  C115  A    
C210  H91   S    
C145  C151  A    
C163  O27   A    
C146  C152  A    
C55   C76   A    
C245  C246  S    
O9    Zn7   S    
C82   O106  S    
C226  H131  S    
C151  C163  S    
C283  H274  S    
C198  H63   S    
C82   C130  A    
C142  H18   S    
C193  H50   S    
C139  H15   S    
C30   O86   S    
O42   Zn6   S    
C157  O41   A    
C208  H86   S    
O28   Zn16  S    
C61   C69   A    
O99   C285  S    
C237  H159  S    
C304  H328  S    
C211  H95   S    
C6    C46   A    
C165  C185  S    
C300  H318  S    
C126  C129  S    
O102  C291  S    
C63   C71   A    
C252  H198  S    
C152  C164  S    
C295  C296  S    
C33   O89   S    
C197  H60   S    
O89   C265  S    
C66   C91   S    
C298  H312  S    
C242  H173  S    
C81   O105  S    
C276  H256  S    
C12   C52   A    
C233  H149  S    
O90   C267  S    
C21   C70   S    
C238  H163  S    
O75   C237  S    
C212  H98   S    
C202  H71   S    
C244  H177  S    
C58   H46   S    
O95   C277  S    
C43   O99   S    
C170  O54   S    
C44   C52   A    
C256  H206  S    
O62   C211  S    
C81   C97   A    
C235  H155  S    
O5    Zn3   S    
O6    Zn4   S    
C278  H263  S    
C234  H152  S    
C209  H90   S    
C31   C39   A    
C40   O96   S    
O65   C217  S    
C64   C72   A    
O85   C257  S    
C236  H158  S    
C281  H269  S    
C11   C51   A    
C114  C122  A    
C149  C161  S    
C283  C284  S    
C86   O6    A    
C224  H126  S    
C241  C242  S    
O32   Zn2   S    
O57   C201  S    
C279  H264  S    
C223  H124  S    
C118  C126  A    
C208  H87   S    
C280  H266  S    
O79   C245  S    
C117  C125  A    
C19   H39   S    
C255  C256  S    
C156  O16   A    
C24   C71   S    
C78   C126  A    
