data_mof_unit_23552.cif
_audit_creation_date              2012-12-10T21:28:59-0500
_audit_creation_method            fapswitch 2.2
_symmetry_space_group_name_H-M    P1
_symmetry_Int_Tables_number       1
_space_group_crystal_system       triclinic
_cell_length_a                    10.908095
_cell_length_b                    16.177787
_cell_length_c                    16.874783
_cell_angle_alpha                 89.89516
_cell_angle_beta                  90.556036
_cell_angle_gamma                 92.702877
_cell_volume                      2974.41760132

loop_
_atom_site_label
_atom_site_type_symbol
_atom_type_description
_atom_site_fract_x
_atom_site_fract_y
_atom_site_fract_z
_atom_type_partial_charge
C1    C     C_R   0.504108 0.490194 0.652381 0.965274
C2    C     C_R   0.527574 0.476639 0.902278 0.174105
C3    C     C_R   0.615868 0.435797 0.857022 0.120833
C4    C     C_R   0.739874 0.500625 0.492763 0.901420
C5    C     C_R   0.612262 0.442973 0.773469 0.083751
C6    C     C_R   0.569417 0.426502 0.140733 0.097389
C7    C     C_R   0.525292 0.429641 0.218781 0.054891
C8    C     C_R   0.602185 0.502130 0.101653 0.257111
C9    C     C_R   0.527474 0.506528 0.260309 -0.077263
C10   C     C_R   0.572953 0.578292 0.222541 -0.350688
C11   C     C_R   0.607772 0.576823 0.143454 0.073823
C12   C     C_R   0.933552 0.437224 0.445463 -0.017653
C13   C     C_R   0.436938 0.762219 0.461925 0.191259
C14   C     C_R   0.434190 0.850599 0.468200 0.047696
C15   C     C_R   0.526634 0.893903 0.512530 0.216309
C16   C     C_R   0.504037 0.508679 0.346429 0.876941
C17   C     C_R   0.608305 0.848437 0.557277 -0.034369
C18   C     C_R   0.594094 0.760269 0.561408 0.199318
C19   C     C_R   0.577110 0.159803 0.540751 0.091575
C20   C     C_R   0.579847 0.245972 0.526873 -0.033622
C21   C     C_R   0.474632 0.110588 0.513034 0.269628
C22   C     C_R   0.384512 0.236891 0.465043 -0.025929
C23   C     C_R   0.872658 0.503407 0.480651 -0.143933
C24   C     C_R   0.378271 0.150671 0.475529 -0.334664
C25   C     C_R   0.259624 0.500186 0.501598 0.875800
C26   C     C_R   0.872687 0.373679 0.399005 0.201809
C27   C     C_R   0.935697 0.301749 0.383123 0.072474
C28   C     C_R   0.062684 0.309573 0.377401 -0.244236
C29   C     C_R   0.121352 0.386427 0.393187 0.175181
C30   C     C_R   0.062933 0.441829 0.444575 -0.012814
C31   C     C_3   0.714717 0.410534 0.722131 -0.403247
C32   C     C_3   0.805344 0.480492 0.698671 -0.902861
C33   C     C_3   0.338413 0.560848 0.916449 -0.388081
C34   C     C_R   0.941394 0.573804 0.507617 0.092047
C35   C     C_3   0.386519 0.647286 0.940810 -0.850923
C36   C     C_3   0.677465 0.125293 0.591680 -0.411921
C37   C     C_3   0.795091 0.117620 0.544749 -0.843262
C38   C     C_3   0.659432 0.716716 0.627844 -0.359456
C39   C     C_3   0.585601 0.718342 0.704368 -0.854335
C40   C     C_3   0.780162 0.396129 0.336197 -0.381997
C41   C     C_3   0.817716 0.476804 0.292970 -0.877275
C42   C     C_3   0.332012 0.898996 0.429387 -0.366172
C43   C     C_3   0.224152 0.905644 0.485773 -0.886963
C44   C     C_3   0.356672 0.721559 0.397262 -0.327109
C45   C     C_R   0.063823 0.566262 0.528930 0.113804
C46   C     C_3   0.410383 0.738089 0.314732 -0.903569
C47   C     C_3   0.224570 0.414572 0.339048 -0.345474
C48   C     C_3   0.184196 0.415801 0.251945 -0.922108
C49   C     C_3   0.119234 0.625412 0.592042 -0.378533
C50   C     C_3   0.056310 0.612658 0.672139 -0.935070
C51   C     C_3   0.589835 0.342901 0.101897 -0.404363
C52   C     C_3   0.724599 0.321485 0.106825 -0.893550
C53   C     C_3   0.709360 0.382045 0.896965 -0.385730
C54   C     C_3   0.671763 0.290004 0.889014 -0.903581
C55   C     C_R   0.127365 0.502117 0.492602 -0.194250
C56   C     C_R   0.515144 0.485326 0.737895 -0.138488
C57   C     C_R   0.425566 0.521951 0.783091 -0.010946
C58   C     C_R   0.431997 0.518583 0.865864 0.113019
H1    H     H_    0.585705 0.635391 0.254831 0.183778
H2    H     H_    0.877207 0.455761 0.660353 0.257118
H3    H     H_    0.767658 0.362342 0.751097 0.215000
H4    H     H_    0.678002 0.378800 0.668466 0.220349
H5    H     H_    0.472963 0.643881 0.975575 0.283185
H6    H     H_    0.404091 0.686390 0.887581 0.251319
H7    H     H_    0.317455 0.676760 0.977990 0.241525
H8    H     H_    0.249192 0.565970 0.885297 0.190366
H9    H     H_    0.316356 0.523751 0.970356 0.214249
H10   H     H_    0.577929 0.693686 0.108766 0.184539
H11   H     H_    0.724305 0.677053 0.135631 0.183829
H12   H     H_    0.655742 0.284262 0.550029 0.143385
H13   H     H_    0.244904 0.526753 0.757618 0.181075
H14   H     H_    0.321572 0.621078 0.762697 0.197090
H15   H     H_    0.777605 0.077893 0.491842 0.271941
H16   H     H_    0.831220 0.179754 0.525686 0.252133
H17   H     H_    0.865514 0.089216 0.582639 0.248204
H18   H     H_    0.696598 0.166950 0.643126 0.185245
H19   H     H_    0.649069 0.064244 0.617195 0.242697
H20   H     H_    0.695291 0.883917 0.660185 0.192705
H21   H     H_    0.789258 0.872756 0.581029 0.179855
H22   H     H_    0.587121 0.781699 0.729422 0.237209
H23   H     H_    0.307124 0.266816 0.439658 0.130120
H24   H     H_    0.488545 0.697794 0.693213 0.278879
H25   H     H_    0.625754 0.676539 0.748913 0.253241
H26   H     H_    0.676560 0.652788 0.612713 0.257585
H27   H     H_    0.751974 0.745546 0.639493 0.161781
H28   H     H_    0.785152 0.531031 0.325432 0.253595
H29   H     H_    0.918542 0.484029 0.286959 0.260850
H30   H     H_    0.778589 0.476338 0.232262 0.263041
H31   H     H_    0.770660 0.347364 0.290492 0.207995
H32   H     H_    0.689519 0.398109 0.361568 0.251122
H33   H     H_    0.182081 0.843195 0.498386 0.243338
H34   H     H_    0.296962 0.115178 0.455905 0.156872
H35   H     H_    0.254281 0.934730 0.542628 0.276475
H36   H     H_    0.153456 0.943923 0.458104 0.243256
H37   H     H_    0.365662 0.961289 0.409785 0.215654
H38   H     H_    0.295536 0.871939 0.373813 0.202556
H39   H     H_    0.512096 0.741170 0.317865 0.261885
H40   H     H_    0.378507 0.687954 0.273481 0.252982
H41   H     H_    0.381531 0.796950 0.288738 0.238095
H42   H     H_    0.343696 0.655520 0.403333 0.264598
H43   H     H_    0.260898 0.741390 0.400303 0.170288
H44   H     H_    0.895975 0.219769 0.295186 0.178082
H45   H     H_    0.111032 0.261672 0.347713 0.137126
H46   H     H_    0.901297 0.178240 0.386680 0.185554
H47   H     H_    0.156267 0.352662 0.230873 0.258617
H48   H     H_    0.107146 0.457165 0.243502 0.262871
H49   H     H_    0.261248 0.440120 0.214879 0.256267
H50   H     H_    0.258532 0.478457 0.352965 0.195008
H51   H     H_    0.299055 0.371344 0.346073 0.240905
H52   H     H_    0.061976 0.547280 0.691150 0.265113
H53   H     H_    0.103004 0.653173 0.717313 0.250608
H54   H     H_    0.958608 0.627897 0.670367 0.263561
H55   H     H_    0.216829 0.617034 0.605209 0.253909
H56   H     H_    0.942148 0.691900 0.467379 0.171439
H57   H     H_    0.112555 0.690597 0.572316 0.190183
H58   H     H_    0.552924 0.313547 0.261215 0.193785
H59   H     H_    0.408885 0.327423 0.224144 0.174927
H60   H     H_    0.786305 0.375464 0.091124 0.260355
H61   H     H_    0.747573 0.300721 0.167408 0.252201
H62   H     H_    0.741318 0.269810 0.065756 0.254691
H63   H     H_    0.534830 0.291194 0.128869 0.192079
H64   H     H_    0.558304 0.340676 0.039855 0.229328
H65   H     H_    0.582737 0.276214 0.918604 0.258845
H66   H     H_    0.661419 0.270924 0.826163 0.254447
H67   H     H_    0.893761 0.681185 0.561554 0.178318
H68   H     H_    0.742631 0.252358 0.917269 0.250091
H69   H     H_    0.802603 0.395455 0.873140 0.199768
H70   H     H_    0.721039 0.395747 0.960282 0.238785
H71   H     H_    0.758492 0.529154 0.665420 0.255795
H72   H     H_    0.849594 0.508289 0.752522 0.262194
N1    N     N_2   0.525104 0.470823 0.985240 -0.202019
N2    N     N_3   0.704838 0.893608 0.599359 -0.453696
N3    N     N_3   0.871082 0.228544 0.354175 -0.481966
N4    N     N_3   0.481883 0.354493 0.256969 -0.447236
N5    N     N_2   0.615037 0.506227 0.018633 -0.171236
N6    N     N_R   0.515300 0.716920 0.509720 -0.141699
N7    N     N_2   0.547957 0.982143 0.505737 -0.151259
N8    N     N_2   0.459422 0.023220 0.526738 -0.183630
N9    N     N_R   0.484690 0.283070 0.490290 -0.107682
N10   N     N_3   0.889859 0.654044 0.505787 -0.436096
N11   N     N_3   0.647925 0.651949 0.104623 -0.454611
N12   N     N_3   0.326020 0.560013 0.743297 -0.463174
O1    O     O_R   0.494530 0.422540 0.612660 -0.630290
O2    O     O_R   0.504350 0.561840 0.618900 -0.613799
O3    O     O_R   0.678320 0.430330 0.496880 -0.651165
O4    O     O_R   0.688140 0.569640 0.503120 -0.615679
O5    O     O_R   0.495650 0.438160 0.381100 -0.624495
O6    O     O_R   0.505470 0.577460 0.387340 -0.624951
O7    O     O_R   0.311860 0.430360 0.496880 -0.615372
O8    O     O_R   0.321680 0.569670 0.503120 -0.663653
Zn1   Zn    Zn3+2 0.493440 0.406980 0.495830 0.925089
Zn2   Zn    Zn3+2 0.506560 0.593020 0.504170 0.921743

loop_
_geom_bond_atom_site_label_1
_geom_bond_atom_site_label_2
_ccdc_geom_bond_type
C49   H55   S    
C46   H41   S    
C33   C58   S    
C3    C53   S    
C31   H3    S    
C5    C56   A    
C19   C20   A    
C54   H65   S    
C37   H16   S    
C32   H72   S    
C53   C54   S    
H14   N12   S    
C41   H28   S    
C54   H68   S    
C12   C23   A    
C26   C27   A    
C57   N12   S    
C29   C47   S    
C16   O5    A    
C42   H38   S    
C20   N9    A    
C36   C37   S    
C19   C21   A    
C9    C16   S    
N1    N5    D    
C36   H19   S    
O7    Zn1   S    
C38   C39   S    
C48   H49   S    
H58   N4    S    
C35   H7    S    
H11   N11   S    
C50   H52   S    
C43   H36   S    
C56   C57   A    
C25   O7    A    
C34   N10   S    
H20   N2    S    
C37   H15   S    
C53   H69   S    
C43   H35   S    
C48   H48   S    
C48   H47   S    
C18   N6    A    
C35   H6    S    
H56   N10   S    
C40   H31   S    
C36   H18   S    
C9    C10   A    
C14   C42   S    
C38   H26   S    
O1    Zn1   S    
C46   H40   S    
C13   C14   A    
C17   N2    S    
C31   H4    S    
C20   H12   S    
C21   N8    S    
C8    N5    S    
H59   N4    S    
C24   H34   S    
C32   H71   S    
N6    Zn2   S    
C44   C46   S    
C33   H8    S    
C2    N1    S    
H67   N10   S    
C41   H29   S    
H46   N3    S    
C38   H27   S    
C42   H37   S    
C27   N3    S    
C22   H23   S    
C25   C55   S    
C7    N4    S    
C4    C23   S    
C6    C8    A    
C19   C36   S    
C47   H51   S    
C22   N9    A    
C43   H33   S    
C51   C52   S    
C12   C26   A    
C25   O8    A    
O5    Zn1   S    
C29   C30   A    
C1    O1    A    
C53   H70   S    
H21   N2    S    
C47   C48   S    
C45   C49   S    
C23   C34   A    
C4    O4    A    
C50   H54   S    
C17   C18   A    
H10   N11   S    
C34   C45   A    
C11   N11   S    
O3    Zn1   S    
H13   N12   S    
O4    Zn2   S    
C52   H62   S    
C40   C41   S    
C49   H57   S    
C46   H39   S    
C49   C50   S    
C6    C51   S    
C13   N6    A    
O8    Zn2   S    
C42   C43   S    
C32   H2    S    
C33   H9    S    
N7    N8    D    
C15   C17   A    
C41   H30   S    
C54   H66   S    
C28   C29   A    
C12   C30   A    
C1    C56   S    
C31   C32   S    
O6    Zn2   S    
C39   H24   S    
C3    C5    A    
C44   H43   S    
C2    C58   A    
C6    C7    A    
C30   C55   A    
C16   O6    A    
C40   H32   S    
C39   H22   S    
C2    C3    A    
C18   C38   S    
H44   N3    S    
C39   H25   S    
O2    Zn2   S    
C1    O2    A    
C44   H42   S    
C28   H45   S    
C26   C40   S    
C57   C58   A    
C8    C11   A    
C51   H63   S    
C4    O3    A    
N9    Zn1   S    
C50   H53   S    
C33   C35   S    
C10   H1    S    
C22   C24   A    
C37   H17   S    
C10   C11   A    
C52   H61   S    
C7    C9    A    
C45   C55   A    
C47   H50   S    
C21   C24   A    
C27   C28   A    
C51   H64   S    
C14   C15   A    
C35   H5    S    
C15   N7    S    
C13   C44   S    
C5    C31   S    
C52   H60   S    
