data_mof_unit_62407.cif
_audit_creation_date              2012-12-10T17:57:10-0500
_audit_creation_method            fapswitch 2.2
_symmetry_space_group_name_H-M    P1
_symmetry_Int_Tables_number       1
_space_group_crystal_system       triclinic
_cell_length_a                    18.614424
_cell_length_b                    18.662455
_cell_length_c                    18.722945
_cell_angle_alpha                 109.458117
_cell_angle_beta                  109.481749
_cell_angle_gamma                 109.146053
_cell_volume                      5027.02952736

loop_
_atom_site_label
_atom_site_type_symbol
_atom_type_description
_atom_site_fract_x
_atom_site_fract_y
_atom_site_fract_z
_atom_type_partial_charge
C1    C     C_R   0.379449 0.379548 0.500097 0.915399
C2    C     C_R   0.312302 0.313150 0.499874 -0.087457
C3    C     C_R   0.312888 0.577717 0.324483 -0.168288
C4    C     C_R   0.620216 0.499242 0.620629 0.875126
C5    C     C_R   0.249694 0.577289 0.259109 -0.242511
C6    C     C_R   0.184631 0.498315 0.182855 -0.044159
C7    C     C_R   0.182955 0.419038 0.170326 0.218684
C8    C     C_R   0.247456 0.420295 0.235894 -0.258421
C9    C     C_R   0.311888 0.499357 0.312445 -0.041920
C10   C     C_R   0.755890 0.757940 0.580249 -0.295794
C11   C     C_R   0.821086 0.824820 0.583340 0.243824
C12   C     C_3   0.808606 0.502401 0.811379 0.123993
C13   C     C_R   0.813451 0.817051 0.503260 -0.152182
C14   C     C_R   0.742429 0.746480 0.423193 -0.336153
C15   C     C_R   0.679652 0.678973 0.420836 0.481464
C16   C     C_R   0.620039 0.620147 0.499740 0.943545
C17   C     C_R   0.686317 0.686397 0.499922 -0.174348
C18   C     C_R   0.997707 0.379739 0.877260 0.866499
C19   C     C_R   0.876592 0.502779 0.879359 0.852161
C20   C     C_R   0.996937 0.620157 0.117256 0.870249
C21   C     C_R   0.118131 0.499610 0.117758 0.892755
C22   C     C_R   0.000534 0.879603 0.380562 0.884411
C23   C     C_3   0.843887 0.590813 0.812263 -0.392082
C24   C     C_R   0.119889 0.119904 0.500035 0.933209
C25   C     C_R   0.999053 0.119874 0.619303 0.871705
C26   C     C_R   0.879824 0.881315 0.501409 0.881803
C27   C     C_R   0.077652 0.324896 0.815448 -0.213076
C28   C     C_R   0.378917 0.499948 0.379111 0.899613
C29   C     C_R   0.078090 0.259964 0.752898 -0.156789
C30   C     C_R   0.998632 0.185999 0.684847 -0.015279
C31   C     C_R   0.918825 0.175550 0.679251 -0.206072
C32   C     C_R   0.918592 0.239104 0.743457 -0.180390
C33   C     C_R   0.997986 0.313712 0.811063 -0.013388
C34   C     C_3   0.728286 0.486901 0.825356 -0.434507
C35   C     C_R   0.010213 0.763800 0.184589 -0.189961
C36   C     C_R   0.010131 0.826865 0.249147 -0.248127
C37   C     C_R   0.999828 0.812668 0.314618 -0.036811
C38   C     C_R   0.988311 0.734856 0.315824 0.220168
C39   C     C_R   0.987458 0.671352 0.250037 -0.260082
C40   C     C_3   0.709667 0.427013 0.649016 -0.341361
C41   C     C_R   0.998181 0.686094 0.184909 -0.040730
C42   C     C_3   0.779544 0.427702 0.721968 -0.420175
C43   C     C_3   0.771684 0.589223 0.740599 -0.529203
C44   C     C_3   0.655363 0.483430 0.751783 0.354771
C45   C     C_R   0.270779 0.337063 0.546203 -0.310619
C46   C     C_3   0.687535 0.499005 0.688727 0.113698
C47   C     C_3   0.115968 0.331314 0.557714 0.085941
C48   C     C_3   0.055394 0.335177 0.595111 -0.799827
C49   C     C_3   0.135218 0.324343 0.020275 -0.771068
C50   C     C_3   0.901678 0.907413 0.746583 -0.797774
C51   C     C_3   0.633021 0.557849 0.294965 0.113900
C52   C     C_3   0.551922 0.472620 0.219327 -0.799093
C53   C     C_3   0.886630 0.688065 0.364828 -0.809467
C54   C     C_3   0.519971 0.403010 0.736598 0.068088
C55   C     C_3   0.448192 0.310250 0.698228 -0.781782
C56   C     C_R   0.204711 0.272981 0.544753 0.466117
C57   C     C_R   0.185407 0.186366 0.500753 -0.086054
C58   C     C_R   0.226911 0.162256 0.455233 -0.289787
C59   C     C_R   0.289812 0.225587 0.453873 -0.183953
H1    H     H_    0.734637 0.438760 0.605314 0.166632
H2    H     H_    0.649916 0.361330 0.608934 0.208527
H3    H     H_    0.247350 0.359834 0.227193 0.145402
H4    H     H_    0.757925 0.760580 0.639556 0.172182
H5    H     H_    0.736391 0.743434 0.362513 0.165848
H6    H     H_    0.139150 0.382784 0.867900 0.148713
H7    H     H_    0.139747 0.267959 0.756404 0.163847
H8    H     H_    0.857410 0.117855 0.626294 0.141691
H9    H     H_    0.856856 0.230877 0.739858 0.142320
H10   H     H_    0.018277 0.774923 0.133840 0.149483
H11   H     H_    0.752351 0.363611 0.719541 0.180608
H12   H     H_    0.748446 0.540478 0.889626 0.115371
H13   H     H_    0.018998 0.887085 0.248730 0.149147
H14   H     H_    0.978393 0.610757 0.249636 0.147188
H15   H     H_    0.836678 0.436481 0.711596 0.165699
H16   H     H_    0.794395 0.602478 0.696028 0.180415
H17   H     H_    0.900639 0.603149 0.800805 0.199672
H18   H     H_    0.643795 0.538262 0.782041 0.054548
H19   H     H_    0.702434 0.424722 0.826686 0.212811
H20   H     H_    0.074769 0.291436 0.485140 0.141129
H21   H     H_    0.161006 0.399158 0.576775 0.139290
H22   H     H_    0.094071 0.373991 0.667517 0.261084
H23   H     H_    0.758577 0.642300 0.770961 0.183900
H24   H     H_    0.019236 0.366435 0.570656 0.198487
H25   H     H_    0.007290 0.268128 0.574671 0.265531
H26   H     H_    0.101289 0.285065 0.100718 0.220078
H27   H     H_    0.194359 0.316656 0.035397 0.233694
H28   H     H_    0.145697 0.379877 0.007548 0.232481
H29   H     H_    0.078386 0.263965 0.960263 0.245311
H30   H     H_    0.908799 0.959182 0.664216 0.220961
H31   H     H_    0.963332 0.967753 0.801204 0.241039
H32   H     H_    0.905749 0.850780 0.750853 0.243175
H33   H     H_    0.845905 0.911104 0.753748 0.235467
H34   H     H_    0.866881 0.645555 0.877052 0.165219
H35   H     H_    0.676218 0.541572 0.336561 0.133497
H36   H     H_    0.667834 0.591398 0.267773 0.133466
H37   H     H_    0.507918 0.486188 0.175536 0.255567
H38   H     H_    0.571395 0.430777 0.181407 0.192052
H39   H     H_    0.516061 0.437144 0.244509 0.262303
H40   H     H_    0.001328 0.682264 0.397526 0.221901
H41   H     H_    0.843014 0.621636 0.306471 0.225831
H42   H     H_    0.862772 0.732742 0.353829 0.236572
H43   H     H_    0.883771 0.684816 0.422037 0.242859
H44   H     H_    0.489226 0.440030 0.716274 0.157326
H45   H     H_    0.289632 0.404975 0.583446 0.161616
H46   H     H_    0.553821 0.433822 0.809113 0.131939
H47   H     H_    0.476786 0.273549 0.721923 0.245640
H48   H     H_    0.398623 0.311658 0.718277 0.213544
H49   H     H_    0.415563 0.276199 0.625951 0.269520
H50   H     H_    0.210165 0.094544 0.420580 0.149775
H51   H     H_    0.321726 0.206259 0.418222 0.170800
H52   H     H_    0.363171 0.639051 0.383648 0.155698
H53   H     H_    0.250531 0.638141 0.268422 0.153093
N1    N     N_2   0.117601 0.338710 0.091955 -0.301052
N2    N     N_2   0.892280 0.900800 0.664349 -0.280006
N3    N     N_2   0.975852 0.719707 0.381552 -0.291894
O1    O     O_R   0.408680 0.356690 0.448540 -0.630290
O2    O     O_R   0.052580 0.908350 0.460820 -0.602959
O3    O     O_R   0.039640 0.091520 0.447910 -0.625637
O4    O     O_R   0.408060 0.460070 0.551440 -0.635250
O5    O     O_R   0.143620 0.091540 0.551930 -0.622293
O6    O     O_R   0.947420 0.091470 0.539000 -0.626345
O7    O     O_R   0.051410 0.091490 0.643030 -0.625710
O8    O     O_R   0.856380 0.908290 0.447890 -0.625174
O9    O     O_R   0.960370 0.908300 0.551910 -0.601618
O10   O     O_R   0.592410 0.448290 0.540650 -0.633044
O11   O     O_R   0.591790 0.551670 0.643550 -0.648650
O12   O     O_R   0.049540 0.460010 0.906120 -0.625089
O13   O     O_R   0.591940 0.539930 0.448560 -0.602791
O14   O     O_R   0.591320 0.643310 0.551460 -0.632093
O15   O     O_R   0.408210 0.448330 0.356450 -0.618995
O16   O     O_R   0.407590 0.551710 0.459350 -0.629998
O17   O     O_R   0.946090 0.356640 0.906180 -0.613797
O18   O     O_3   0.163762 0.294193 0.591721 -0.630115
O19   O     O_3   0.606928 0.610229 0.342207 -0.600345
O20   O     O_3   0.578555 0.400357 0.704810 -0.619629
O21   O     O_R   0.853500 0.448290 0.905220 -0.632755
O22   O     O_R   0.956960 0.551660 0.905160 -0.632452
O23   O     O_R   0.945110 0.539900 0.088450 -0.627988
O24   O     O_R   0.048570 0.643270 0.088390 -0.627685
O25   O     O_R   0.037700 0.448250 0.089410 -0.602256
O26   O     O_R   0.141150 0.551620 0.089350 -0.627416
O27   O     O_R   0.948590 0.908340 0.356800 -0.634398
Zn1   Zn    Zn3+2 0.500420 0.430970 0.431290 0.944133
Zn2   Zn    Zn3+2 0.499580 0.569030 0.568710 0.931653
Zn3   Zn    Zn3+2 0.928250 0.430930 0.997320 0.950525
Zn4   Zn    Zn3+2 0.066410 0.568980 0.997240 0.940639
Zn5   Zn    Zn3+2 0.930570 0.999900 0.430450 0.947221
Zn6   Zn    Zn3+2 0.069430 0.999920 0.569370 0.975168

loop_
_geom_bond_atom_site_label_1
_geom_bond_atom_site_label_2
_ccdc_geom_bond_type
C22   O2    A    
C49   N1    S    
O24   Zn4   S    
C40   H1    S    
C27   C29   A    
C58   H50   S    
C11   C13   A    
C49   H28   S    
C18   O17   A    
C10   H4    S    
C47   H20   S    
C23   H17   S    
C56   O18   S    
C7    C8    A    
C39   C41   A    
O14   Zn2   S    
C4    C46   S    
C27   C33   A    
C40   C46   S    
O9    Zn6   S    
C12   C23   S    
C29   C30   A    
C4    O10   A    
O2    Zn6   S    
C27   H6    S    
O17   Zn3   S    
C20   O24   A    
C36   C37   A    
H40   N3    S    
C30   C31   A    
C51   O19   S    
C16   C17   S    
C10   C17   A    
C52   H38   S    
C42   H11   S    
C59   H51   S    
C23   C43   S    
C56   C57   A    
C1    C2    S    
C1    O4    A    
C20   O23   A    
C11   N2    S    
C12   C42   S    
H30   N2    S    
C50   H31   S    
C16   O14   A    
C35   C36   A    
C45   C56   A    
C3    H52   S    
C8    C9    A    
C52   H39   S    
O6    Zn5   S    
C1    O1    A    
O7    Zn6   S    
C25   O7    A    
O21   Zn3   S    
C32   H9    S    
C44   O20   S    
C40   C42   S    
C2    C45   A    
C13   C14   A    
C47   O18   S    
O4    Zn2   S    
C49   H29   S    
C26   O9    A    
C47   H21   S    
C49   H27   S    
C18   C33   S    
C44   C46   S    
C20   C41   S    
C53   H41   S    
C43   H16   S    
C38   C39   A    
C24   O5    A    
C42   H15   S    
C55   H47   S    
C51   C52   S    
C47   C48   S    
C54   H44   S    
C34   C44   S    
C53   H42   S    
C15   O19   S    
C2    C59   A    
C24   C57   S    
C51   H35   S    
C19   O21   A    
C22   C37   S    
C40   H2    S    
C48   H25   S    
C55   H48   S    
C50   N2    S    
C31   H8    S    
C37   C38   A    
C3    C9    A    
C45   H45   S    
C18   O12   A    
O1    Zn1   S    
O22   Zn4   S    
C31   C32   A    
C53   H43   S    
C19   O22   A    
C14   H5    S    
C22   O27   A    
O15   Zn1   S    
C16   O13   A    
O26   Zn4   S    
C50   H33   S    
O8    Zn5   S    
O5    Zn6   S    
C13   C26   S    
C26   O8    A    
O13   Zn1   S    
C12   C34   S    
C25   C30   S    
C15   C17   A    
C54   C55   S    
O3    Zn5   S    
C54   H46   S    
O27   Zn5   S    
C3    C5    A    
O25   Zn3   S    
C53   N3    S    
C6    C7    A    
C5    H53   S    
C44   H18   S    
C24   O3    A    
C48   H24   S    
C4    O11   A    
C55   H49   S    
C28   O16   A    
C32   C33   A    
C7    N1    S    
H26   N1    S    
C48   H22   S    
C58   C59   A    
C21   O26   A    
C34   H19   S    
C38   N3    S    
C6    C21   S    
C57   C58   A    
C5    C6    A    
O10   Zn1   S    
C54   O20   S    
C12   C19   S    
O11   Zn2   S    
C52   H37   S    
C28   O15   A    
C39   H14   S    
C35   C41   A    
C43   C46   S    
C10   C11   A    
O12   Zn4   S    
C29   H7    S    
C23   H34   S    
C50   H32   S    
C35   H10   S    
C8    H3    S    
C43   H23   S    
C14   C15   A    
O23   Zn3   S    
C21   O25   A    
C25   O6    A    
C34   H12   S    
O16   Zn2   S    
C36   H13   S    
C9    C28   S    
C51   H36   S    
