data_mof_unit_54357.cif
_audit_creation_date              2012-12-11T15:37:32-0500
_audit_creation_method            fapswitch 2.2
_symmetry_space_group_name_H-M    P1
_symmetry_Int_Tables_number       1
_space_group_crystal_system       triclinic
_cell_length_a                    17.373721
_cell_length_b                    24.317048
_cell_length_c                    14.849037
_cell_angle_alpha                 90.044433
_cell_angle_beta                  125.932996
_cell_angle_gamma                 89.756857
_cell_volume                      5079.52718088

loop_
_atom_site_label
_atom_site_type_symbol
_atom_type_description
_atom_site_fract_x
_atom_site_fract_y
_atom_site_fract_z
_atom_type_partial_charge
C1    C     C_R   0.808510 0.624635 0.906306 0.526403
C2    C     C_3   0.612033 0.500826 0.521699 -0.338034
C3    C     C_3   0.076132 0.998825 0.399807 0.390416
C4    C     C_3   0.930760 0.000693 0.347972 -0.334548
C5    C     C_3   0.112025 0.000837 0.521702 -0.338060
C6    C     C_R   0.650062 0.323187 0.904203 0.473489
C7    C     C_R   0.226464 0.766925 0.103462 0.419270
C8    C     C_R   0.174022 0.217546 0.080535 0.492056
C9    C     C_R   0.651571 0.683949 0.890282 0.395199
C10   C     C_R   0.150068 0.823188 0.904221 0.473467
C11   C     C_R   0.726447 0.266933 0.103452 0.419277
C12   C     C_R   0.674033 0.717549 0.080549 0.492061
C13   C     C_R   0.146261 0.345702 0.090345 0.540046
C14   C     C_R   0.151563 0.183947 0.890268 0.395215
C15   C     C_R   0.124403 0.768438 0.900143 0.314548
C16   C     C_R   0.750675 0.321907 0.101764 0.305379
C17   C     C_R   0.725579 0.671183 0.083981 0.354557
C18   C     C_R   0.125069 0.237653 0.893273 0.319982
C19   C     C_R   0.624398 0.268437 0.900132 0.314556
C20   C     C_R   0.250692 0.821900 0.101781 0.305350
C21   C     C_R   0.225567 0.171179 0.083966 0.354559
C22   C     C_R   0.625078 0.737654 0.893286 0.319956
C23   C     C_R   0.157861 0.740090 0.000938 -0.182191
C24   C     C_R   0.145442 0.653722 0.090855 0.636949
C25   C     C_R   0.731392 0.342418 0.003254 -0.094299
C26   C     C_R   0.725804 0.660680 0.990674 -0.177865
C27   C     C_R   0.136558 0.255597 0.990973 -0.124777
C28   C     C_R   0.657852 0.240093 0.000930 -0.182184
C29   C     C_R   0.231402 0.842416 0.003270 -0.094280
C30   C     C_R   0.225796 0.160678 0.990661 -0.177880
C31   C     C_R   0.636566 0.755599 0.990983 -0.124769
C32   C     C_R   0.127033 0.450618 0.649809 0.402689
C33   C     C_R   0.097823 0.549778 0.541249 0.432284
C34   C     C_R   0.096451 0.449370 0.539733 0.431224
C35   C     C_R   0.808020 0.376993 0.909457 0.483322
C36   C     C_R   0.128414 0.547822 0.651292 0.402668
C37   C     C_R   0.627031 0.950617 0.649807 0.402685
C38   C     C_R   0.597827 0.049777 0.541251 0.432272
C39   C     C_R   0.596449 0.949370 0.539731 0.431236
C40   C     C_R   0.628417 0.047820 0.651294 0.402671
C41   C     C_R   0.085533 0.499736 0.483782 -0.280485
C42   C     C_R   0.116255 0.499249 0.690560 -0.231363
C43   C     C_R   0.585534 0.999736 0.483783 -0.280485
C44   C     C_R   0.616255 0.999247 0.690560 -0.231362
C45   C     C_R   0.904860 0.375420 0.094818 0.427057
C46   C     C_R   0.308510 0.124635 0.906302 0.526353
C47   C     C_R   0.052468 0.652841 0.908199 0.405194
C48   C     C_R   0.047066 0.346359 0.907561 0.524002
C49   C     C_R   0.901000 0.624646 0.091249 0.350058
C50   C     C_R   0.404866 0.875419 0.094823 0.427068
C51   C     C_R   0.552466 0.152841 0.908197 0.405210
C52   C     C_R   0.547067 0.846359 0.907564 0.523990
C53   C     C_R   0.400996 0.124646 0.091245 0.350061
C54   C     C_R   0.058085 0.545095 0.309582 0.504275
C55   C     C_R   0.015872 0.453558 0.746579 0.478458
C56   C     C_R   0.016120 0.546060 0.746798 0.464381
C57   C     C_R   0.646266 0.845704 0.090348 0.540121
C58   C     C_R   0.058256 0.454802 0.309615 0.522534
C59   C     C_R   0.558085 0.045095 0.309582 0.504273
C60   C     C_R   0.515871 0.953557 0.746579 0.478454
C61   C     C_R   0.516121 0.046060 0.746798 0.464383
C62   C     C_R   0.558257 0.954802 0.309615 0.522545
C63   C     C_R   0.751931 0.455251 0.689518 0.600880
C64   C     C_R   0.269178 0.545851 0.252192 0.536206
C65   C     C_R   0.270392 0.455059 0.252895 0.539309
C66   C     C_R   0.752319 0.545114 0.689423 0.596062
C67   C     C_R   0.251918 0.955254 0.689520 0.600991
C68   C     C_R   0.645437 0.153723 0.090853 0.636808
C69   C     C_R   0.769175 0.045854 0.252178 0.536318
C70   C     C_R   0.770391 0.955062 0.252880 0.539131
C71   C     C_R   0.252320 0.045117 0.689426 0.595967
C72   C     C_R   0.806817 0.634582 0.997188 -0.105889
C73   C     C_R   0.113781 0.313879 0.997403 -0.056203
C74   C     C_R   0.124616 0.683163 0.999461 -0.081698
C75   C     C_R   0.809625 0.367154 0.003174 -0.093991
C76   C     C_R   0.306813 0.134582 0.997181 -0.105868
C77   C     C_R   0.613785 0.813880 0.997408 -0.056226
C78   C     C_R   0.624610 0.183165 0.999458 -0.081667
C79   C     C_R   0.308021 0.876992 0.909461 0.483368
C80   C     C_R   0.309631 0.867152 0.003182 -0.094017
C81   C     C_R   0.060292 0.499947 0.368441 -0.081773
C82   C     C_R   0.053951 0.499627 0.729061 -0.155608
C83   C     C_R   0.560293 0.999947 0.368441 -0.081774
C84   C     C_R   0.553951 0.999626 0.729061 -0.155608
C85   C     C_R   0.708093 0.500336 0.623481 -0.181682
C86   C     C_R   0.327054 0.500645 0.276222 -0.098065
C87   C     C_R   0.208082 0.000341 0.623487 -0.181674
C88   C     C_R   0.827051 0.000648 0.276201 -0.098072
C89   C     C_3   0.539040 0.456418 0.498002 0.269638
C90   C     C_3   0.430764 0.500696 0.347983 -0.334560
C91   C     C_3   0.503512 0.545066 0.370420 0.283912
C92   C     C_3   0.502943 0.454509 0.375255 0.291471
C93   C     C_3   0.539785 0.547126 0.493295 0.286400
C94   C     C_3   0.039007 0.956463 0.498084 0.269503
C95   C     C_3   0.003533 0.045029 0.370329 0.283736
C96   C     C_3   0.002921 0.954474 0.375345 0.291682
C97   C     C_3   0.039797 0.047169 0.493201 0.286574
C98   C     C_3   0.468989 0.502669 0.470893 0.301988
C99   C     C_3   0.576131 0.498893 0.399798 0.390464
C100  C     C_3   0.968976 0.002744 0.470877 0.302011
Cl1   Cl    Cl    0.965960 0.336010 0.217371 -0.448958
Cl2   Cl    Cl    0.971985 0.395877 0.658857 -0.399985
Cl3   Cl    Cl    0.973424 0.604370 0.660300 -0.405832
Cl4   Cl    Cl    0.153915 0.407558 0.377417 -0.458069
Cl5   Cl    Cl    0.652772 0.092456 0.376907 -0.451394
Cl6   Cl    Cl    0.471982 0.895877 0.658857 -0.399967
Cl7   Cl    Cl    0.473426 0.104370 0.660300 -0.405844
Cl8   Cl    Cl    0.653917 0.907559 0.377418 -0.458215
Cl9   Cl    Cl    0.549668 0.397614 0.576273 -0.415312
Cl10  Cl    Cl    0.485413 0.601592 0.283278 -0.455449
Cl11  Cl    Cl    0.484899 0.394992 0.294732 -0.430225
Cl12  Cl    Cl    0.945715 0.685073 0.801745 -0.461338
Cl13  Cl    Cl    0.551121 0.608940 0.564660 -0.431935
Cl14  Cl    Cl    0.049614 0.897717 0.576472 -0.415480
Cl15  Cl    Cl    0.985471 0.101490 0.283069 -0.455662
Cl16  Cl    Cl    0.984868 0.894896 0.294956 -0.429937
Cl17  Cl    Cl    0.051149 0.109034 0.564450 -0.431781
Cl18  Cl    Cl    0.181500 0.392527 0.737245 -0.421036
Cl19  Cl    Cl    0.043221 0.612626 0.473684 -0.301052
Cl20  Cl    Cl    0.040788 0.387265 0.470115 -0.339406
Cl21  Cl    Cl    0.183743 0.605078 0.740247 -0.458235
Cl22  Cl    Cl    0.681496 0.892525 0.737241 -0.421054
Cl23  Cl    Cl    0.939395 0.317115 0.796898 -0.467733
Cl24  Cl    Cl    0.543228 0.112627 0.473690 -0.301051
Cl25  Cl    Cl    0.540785 0.887265 0.470110 -0.339410
Cl26  Cl    Cl    0.683747 0.105075 0.740252 -0.458221
Cl27  Cl    Cl    0.954075 0.659337 0.217957 -0.418256
Cl28  Cl    Cl    0.465973 0.836005 0.217372 -0.448937
Cl29  Cl    Cl    0.445713 0.185072 0.801741 -0.461314
Cl30  Cl    Cl    0.439398 0.817114 0.796901 -0.467758
Cl31  Cl    Cl    0.454066 0.159333 0.217956 -0.418272
Cl32  Cl    Cl    0.152772 0.592456 0.376908 -0.451526
H1    H     H_    0.785298 0.660763 0.778942 0.402268
H2    H     H_    0.364241 0.600605 0.343497 0.391880
H3    H     H_    0.365070 0.403610 0.359100 0.392979
H4    H     H_    0.719547 0.593441 0.567754 0.385865
H5    H     H_    0.215663 0.906019 0.568029 0.385111
H6    H     H_    0.864277 0.100644 0.343216 0.391852
H7    H     H_    0.864999 0.903656 0.359320 0.392919
H8    H     H_    0.219609 0.093426 0.567757 0.385868
H9    H     H_    0.456969 0.505643 0.591425 0.379767
H10   H     H_    0.593224 0.496115 0.283581 0.371078
H11   H     H_    0.956943 0.005842 0.591394 0.379770
H12   H     H_    0.160383 0.348599 0.227744 0.391734
H13   H     H_    0.093239 0.995923 0.283605 0.371082
H14   H     H_    0.541352 0.338805 0.752710 0.412658
H15   H     H_    0.340030 0.756586 0.255772 0.388775
H16   H     H_    0.183047 0.193880 0.212343 0.406609
H17   H     H_    0.542384 0.672603 0.737385 0.381507
H18   H     H_    0.041347 0.838813 0.752742 0.412668
H19   H     H_    0.840006 0.256599 0.255768 0.388761
H20   H     H_    0.683062 0.693885 0.212361 0.406594
H21   H     H_    0.042387 0.172605 0.737359 0.381492
H22   H     H_    0.113982 0.706355 0.813499 0.381460
H23   H     H_    0.142216 0.651468 0.217940 0.383220
H24   H     H_    0.786043 0.339555 0.249036 0.376862
H25   H     H_    0.783826 0.600951 0.153584 0.346466
H26   H     H_    0.106341 0.256269 0.753739 0.391820
H27   H     H_    0.613987 0.206350 0.813501 0.381456
H28   H     H_    0.286071 0.839541 0.249061 0.376856
H29   H     H_    0.283812 0.100947 0.153566 0.346467
H30   H     H_    0.606341 0.756266 0.753745 0.391818
H31   H     H_    0.777946 0.340570 0.779291 0.404072
H32   H     H_    0.285297 0.160756 0.778932 0.402288
H33   H     H_    0.660404 0.848604 0.227756 0.391710
H34   H     H_    0.642207 0.151469 0.217935 0.383238
H35   H     H_    0.277950 0.840559 0.779306 0.404051
H36   H     H_    0.715752 0.406031 0.568033 0.385115
N1    N     N_R   0.892620 0.603790 0.941800 -0.137600
N2    N     N_R   0.047790 0.602400 0.942090 -0.142679
N3    N     N_R   0.047790 0.397600 0.942090 -0.159049
N4    N     N_R   0.952210 0.602400 0.057910 -0.134159
N5    N     N_R   0.452210 0.897600 0.057910 -0.145208
N6    N     N_R   0.547790 0.102400 0.942090 -0.142678
N7    N     N_R   0.547790 0.897600 0.942090 -0.159052
N8    N     N_R   0.452210 0.102400 0.057910 -0.134153
N9    N     N_R   0.026300 0.529110 0.206760 -0.156107
N10   N     N_R   0.973700 0.470890 0.793240 -0.128751
N11   N     N_R   0.973700 0.529110 0.793240 -0.124307
N12   N     N_R   0.107380 0.396210 0.058200 -0.170270
N13   N     N_R   0.026300 0.470890 0.206760 -0.155801
N14   N     N_R   0.526300 0.029110 0.206760 -0.156109
N15   N     N_R   0.473700 0.970890 0.793240 -0.128757
N16   N     N_R   0.473700 0.029110 0.793240 -0.124299
N17   N     N_R   0.526300 0.970890 0.206760 -0.155800
N18   N     N_R   0.818530 0.472270 0.792960 -0.138126
N19   N     N_R   0.181470 0.527730 0.207040 -0.121319
N20   N     N_R   0.181470 0.472270 0.207040 -0.120719
N21   N     N_R   0.818530 0.527730 0.792960 -0.140723
N22   N     N_R   0.318530 0.972270 0.792960 -0.138128
N23   N     N_R   0.107380 0.603790 0.058200 -0.175982
N24   N     N_R   0.681470 0.027730 0.207040 -0.121287
N25   N     N_R   0.681470 0.972270 0.207040 -0.120745
N26   N     N_R   0.318530 0.027730 0.792960 -0.140727
N27   N     N_R   0.892620 0.396210 0.941800 -0.140203
N28   N     N_R   0.392620 0.103790 0.941800 -0.137594
N29   N     N_R   0.607380 0.896210 0.058200 -0.170278
N30   N     N_R   0.607380 0.103790 0.058200 -0.175986
N31   N     N_R   0.392620 0.896210 0.941800 -0.140210
N32   N     N_R   0.952210 0.397600 0.057910 -0.145206
Ni1   Ni    Ni4+2 0.934150 0.565840 0.869060 0.293950
Ni2   Ni    Ni4+2 0.065850 0.434160 0.130940 0.272504
Ni3   Ni    Ni4+2 0.065850 0.565840 0.130940 0.273991
Ni4   Ni    Ni4+2 0.934150 0.434160 0.869060 0.292068
Ni5   Ni    Ni4+2 0.434150 0.065840 0.869060 0.293942
Ni6   Ni    Ni4+2 0.565850 0.934160 0.130940 0.272469
Ni7   Ni    Ni4+2 0.565850 0.065840 0.130940 0.274019
Ni8   Ni    Ni4+2 0.434150 0.934160 0.869060 0.292075
O1    O     O_3   0.746510 0.646438 0.802286 -0.619811
O2    O     O_3   0.295376 0.599465 0.284785 -0.654762
O3    O     O_3   0.300211 0.402318 0.289709 -0.648115
O4    O     O_3   0.760864 0.594310 0.650222 -0.642609
O5    O     O_3   0.258549 0.905400 0.650472 -0.643572
O6    O     O_3   0.795366 0.099470 0.284762 -0.654804
O7    O     O_3   0.800228 0.902327 0.289720 -0.647972
O8    O     O_3   0.260892 0.094305 0.650224 -0.642608
O9    O     O_3   0.412056 0.504651 0.509183 -0.628551
O10   O     O_3   0.636101 0.496949 0.365957 -0.627899
O11   O     O_3   0.912036 0.004799 0.509154 -0.628531
O12   O     O_3   0.181485 0.324113 0.192926 -0.566033
O13   O     O_3   0.136111 0.996805 0.365980 -0.627897
O14   O     O_3   0.601202 0.357076 0.812047 -0.601243
O15   O     O_3   0.279790 0.737187 0.201265 -0.605204
O16   O     O_3   0.155454 0.224638 0.158312 -0.604367
O17   O     O_3   0.601536 0.652720 0.794638 -0.608095
O18   O     O_3   0.101205 0.857081 0.812072 -0.601158
O19   O     O_3   0.779767 0.237200 0.201261 -0.605263
O20   O     O_3   0.655465 0.724643 0.158326 -0.604384
O21   O     O_3   0.101535 0.152721 0.794618 -0.608185
O22   O     O_3   0.081851 0.742399 0.799256 -0.585914
O23   O     O_3   0.156223 0.678958 0.180562 -0.595672
O24   O     O_3   0.795399 0.355271 0.194546 -0.639930
O25   O     O_3   0.768843 0.636053 0.174330 -0.641964
O26   O     O_3   0.094892 0.273218 0.805713 -0.614526
O27   O     O_3   0.581852 0.242393 0.799250 -0.585917
O28   O     O_3   0.295422 0.855261 0.194568 -0.639926
O29   O     O_3   0.268829 0.136048 0.174313 -0.641957
O30   O     O_3   0.594898 0.773217 0.805722 -0.614529
O31   O     O_3   0.742066 0.356186 0.805791 -0.606859
O32   O     O_3   0.246510 0.146435 0.802279 -0.619838
O33   O     O_3   0.681503 0.824118 0.192935 -0.566025
O34   O     O_3   0.656213 0.178960 0.180556 -0.595636
O35   O     O_3   0.242069 0.856179 0.805801 -0.606827
O36   O     O_3   0.758598 0.405405 0.650477 -0.643576

loop_
_geom_bond_atom_site_label_1
_geom_bond_atom_site_label_2
_ccdc_geom_bond_type
H19   O19   S    
C62   C83   A    
H18   O18   S    
C59   N14   A    
N10   Ni4   S    
C2    C89   S    
H17   O17   S    
C14   C18   A    
H3    O3    S    
N13   Ni2   S    
C42   C82   S    
C24   O23   S    
C70   C88   A    
C97   C100  S    
C48   Cl23  S    
C46   C76   A    
C5    C94   S    
C94   Cl14  S    
C67   N22   A    
H31   O31   S    
C65   C86   A    
C45   N32   A    
C32   Cl18  S    
C6    C19   A    
C55   Cl2   S    
C35   C75   A    
C59   Cl5   S    
C58   N13   A    
C39   Cl25  S    
C17   C26   A    
N8    Ni7   S    
C6    O14   S    
C59   C83   A    
H12   O12   S    
N12   Ni2   S    
C10   C15   A    
H14   O14   S    
H13   O13   S    
C7    C23   A    
C9    C22   A    
C12   O20   S    
C6    C25   A    
C62   Cl8   S    
C71   O8    S    
C48   N3    A    
C66   N21   A    
N19   Ni3   S    
C43   C83   S    
N3    Ni4   S    
C33   C36   A    
H1    O1    S    
C2    C85   S    
C68   N30   A    
N14   Ni7   S    
C1    N1    A    
N28   Ni5   S    
N7    N29   A    
C14   O21   S    
C57   O33   S    
H23   O23   S    
C47   Cl12  S    
H9    O9    S    
C4    C96   S    
N5    N31   A    
C36   C42   A    
H10   O10   S    
N11   Ni1   S    
C100  O11   S    
H7    O7    S    
C20   O28   S    
C49   C72   A    
C12   C17   A    
H32   O32   S    
N6    Ni5   S    
N9    Ni3   S    
N5    Ni6   S    
C53   Cl31  S    
C46   O32   S    
C28   C78   S    
C8    O16   S    
C35   N27   A    
C57   N29   A    
C60   N15   A    
C15   C23   A    
C65   N20   A    
C40   Cl26  S    
C3    O13   S    
H20   O20   S    
H22   O22   S    
C55   C82   A    
N15   Ni8   S    
H21   O21   S    
N29   Ni6   S    
C34   C41   A    
N23   Ni3   S    
N7    Ni8   S    
C14   C30   A    
N17   Ni6   S    
C69   N24   A    
C64   C86   A    
C9    C26   A    
C31   C77   S    
C20   C29   A    
C68   C78   A    
C49   Cl27  S    
C66   C85   A    
N6    N30   A    
C1    C72   A    
C79   N31   A    
C22   C31   A    
C69   O6    S    
C1    O1    S    
H4    O4    S    
C35   O31   S    
C47   C74   A    
C86   C90   S    
C58   C81   A    
C68   O34   S    
C91   C93   S    
N22   N26   A    
C21   O29   S    
C89   Cl9   S    
C39   C43   A    
N27   Ni4   S    
N21   Ni1   S    
N1    Ni1   S    
N2    N23   A    
C51   Cl29  S    
N16   Ni5   S    
C79   C80   A    
C19   O27   S    
C67   C87   A    
C25   C75   S    
N14   N17   A    
C32   C34   A    
N4    Ni3   S    
N15   N16   A    
C57   C77   A    
C64   O2    S    
C4    C95   S    
C7    O15   S    
C11   C16   A    
H24   O24   S    
C90   C92   S    
C99   O10   S    
C94   C100  S    
C63   N18   A    
C41   C81   S    
C18   O26   S    
C8    C21   A    
N18   Ni4   S    
C93   Cl13  S    
C26   C72   S    
N8    N28   A    
C89   C92   S    
C94   C96   S    
C19   C28   A    
C52   N7    A    
C3    C96   S    
C69   C88   A    
C45   Cl1   S    
C62   N17   A    
C71   C87   A    
N22   Ni8   S    
C5    C97   S    
C2    C99   S    
C33   Cl19  S    
C79   O35   S    
C4    C100  S    
C12   C31   A    
H34   O34   S    
N24   Ni7   S    
C38   C43   A    
N3    N12   A    
C67   O5    S    
C53   C76   A    
C50   Cl28  S    
C30   C76   S    
C70   O7    S    
C23   C74   S    
C66   O4    S    
C52   C77   A    
C3    C5    S    
C47   N2    A    
H15   O15   S    
C91   Cl10  S    
N27   N32   A    
C24   C74   A    
C16   C25   A    
N26   Ni5   S    
H6    O6    S    
C61   N16   A    
N25   Ni6   S    
H5    O5    S    
N30   Ni7   S    
H27   O27   S    
C48   C73   A    
C2    C93   S    
C18   C27   A    
C56   Cl3   S    
C13   C73   A    
C71   N26   A    
C61   C84   A    
C50   C80   A    
C49   N4    A    
C3    C95   S    
C95   C97   S    
C92   Cl11  S    
C56   C82   A    
C4    C88   S    
C60   Cl6   S    
C17   O25   S    
C13   N12   A    
C54   Cl32  S    
C21   C30   A    
H35   O35   S    
C54   N9    A    
C44   C84   S    
C89   C98   S    
C45   C75   A    
C33   C41   A    
N24   N25   A    
C63   C85   A    
N18   N21   A    
C36   Cl21  S    
H16   O16   S    
C51   C78   A    
C52   Cl30  S    
N19   N20   A    
C37   C39   A    
H26   O26   S    
H29   O29   S    
C38   C40   A    
C60   C84   A    
C10   C29   A    
H25   O25   S    
C90   C91   S    
H36   O36   S    
C29   C80   S    
C11   C28   A    
C37   C44   A    
C70   N25   A    
N9    N13   A    
C63   O36   S    
N20   Ni2   S    
N31   Ni8   S    
C55   N10   A    
C16   O24   S    
C24   N23   A    
C54   C81   A    
C13   O12   S    
C97   Cl17  S    
C61   Cl7   S    
C65   O3    S    
C64   N19   A    
H8    O8    S    
H33   O33   S    
H11   O11   S    
C37   Cl22  S    
C5    C87   S    
H30   O30   S    
C40   C44   A    
C58   Cl4   S    
C51   N6    A    
C53   N8    A    
C34   Cl20  S    
C11   O19   S    
C7    C20   A    
H28   O28   S    
C98   O9    S    
N2    Ni1   S    
C46   N28   A    
C10   O18   S    
C8    C27   A    
C32   C42   A    
H2    O2    S    
C96   Cl16  S    
C9    O17   S    
N1    N4    A    
C91   C99   S    
C27   C73   S    
C15   O22   S    
C93   C98   S    
C90   C98   S    
N32   Ni2   S    
C38   Cl24  S    
C95   Cl15  S    
C92   C99   S    
C50   N5    A    
N10   N11   A    
C22   O30   S    
C56   N11   A    
