data_mof_unit_47825.cif
_audit_creation_date              2013-03-05T15:55:18-0500
_audit_creation_method            fapswitch 2.2
_symmetry_space_group_name_H-M    P1
_symmetry_Int_Tables_number       1
_space_group_crystal_system       triclinic
_cell_length_a                    6.925062
_cell_length_b                    16.84911
_cell_length_c                    17.050792
_cell_angle_alpha                 100.411966
_cell_angle_beta                  89.684947
_cell_angle_gamma                 90.531548
_cell_volume                      1956.64701955

loop_
_atom_site_label
_atom_site_type_symbol
_atom_site_description
_atom_site_fract_x
_atom_site_fract_y
_atom_site_fract_z
_atom_type_partial_charge
O1    O     O_R   0.494370 0.415690 0.413450 -0.573833
O2    O     O_R   0.819420 0.429360 0.578420 -0.553658
O3    O     O_R   0.994280 0.584310 0.586550 -0.610161
C1    C     C_R   0.649111 0.414126 0.605604 1.098170
O4    O     O_R   0.823790 0.406230 0.413570 -0.581453
O5    O     O_R   0.998670 0.561000 0.420530 -0.616966
C2    C     C_R   0.654799 0.384641 0.383585 1.043068
O6    O     O_R   0.489970 0.439000 0.579470 -0.573440
O7    O     O_3   0.662300 0.550810 0.502470 -0.309015
V1    V     V_3+5 0.935380 0.490570 0.499540 1.272919
O8    O     O_R   0.328650 0.570640 0.421580 -0.582638
C3    C     C_R   0.159164 0.585870 0.394544 0.977905
O9    O     O_R   0.324290 0.593770 0.586430 -0.596446
C4    C     C_R   0.155250 0.616825 0.615222 0.965575
V2    V     V_3+5 0.435930 0.509430 0.500460 1.253972
O10   O     O_3   0.159140 0.449190 0.497530 -0.235212
C5    C     C_R   0.312390 0.723732 0.718239 -0.078577
H1    H     H_    0.453405 0.704805 0.694640 0.124522
C6    C     C_R   0.300999 0.787518 0.783328 -0.122703
H2    H     H_    0.433903 0.815881 0.807690 0.125689
C7    C     C_R   0.120984 0.814407 0.816285 -0.124661
C8    C     C_R   0.952721 0.775531 0.782404 -0.101403
H3    H     H_    0.811711 0.794395 0.806055 0.127854
C9    C     C_R   0.964114 0.711741 0.717317 -0.114454
H4    H     H_    0.831215 0.683326 0.693003 0.134121
C10   C     C_R   0.144098 0.685036 0.684191 -0.122189
C11   C     C_R   0.138698 0.635245 0.331001 -0.114409
C12   C     C_R   0.125398 0.860205 0.165680 -0.312472
C13   C     C_R   0.318686 0.826006 0.274359 -0.142109
C14   C     C_R   0.278379 0.876817 0.220475 -0.077424
C15   C     C_R   0.008663 0.790910 0.166698 0.272067
C16   C     C_R   0.051263 0.738438 0.221127 0.024627
C17   C     C_R   0.208180 0.756269 0.274940 0.177430
C18   C     C_R   0.251866 0.704425 0.328988 -0.241435
C19   C     C_R   0.986340 0.617117 0.276251 -0.105347
C20   C     C_R   0.944065 0.667293 0.221881 -0.117744
H5    H     H_    0.368678 0.719485 0.371284 0.122235
H6    H     H_    0.897130 0.563909 0.276146 0.155573
H7    H     H_    0.438647 0.840887 0.315073 0.131622
H8    H     H_    0.825850 0.649956 0.180982 0.185128
H9    H     H_    0.369656 0.929514 0.221089 0.157153
C21   C     C_R   0.629599 0.362952 0.668407 -0.456132
C22   C     C_R   0.636276 0.136941 0.832466 -0.128821
C23   C     C_R   0.822548 0.171767 0.721435 -0.101590
C24   C     C_R   0.787448 0.121302 0.776650 -0.176154
C25   C     C_R   0.518834 0.204223 0.831511 -0.184627
C26   C     C_R   0.556539 0.256750 0.777236 0.116058
C27   C     C_R   0.710180 0.240984 0.721589 0.035381
C28   C     C_R   0.745864 0.293741 0.666718 0.277508
C29   C     C_R   0.481993 0.379753 0.727273 0.395316
C30   C     C_R   0.444962 0.325760 0.779375 -0.252460
H10   H     H_    0.939731 0.156411 0.679372 0.166234
H11   H     H_    0.330858 0.339023 0.823461 0.176075
H12   H     H_    0.879919 0.069636 0.775882 0.125508
H13   H     H_    0.403211 0.217395 0.874923 0.131529
C31   C     C_R   0.784745 0.257312 0.304018 -0.106899
H14   H     H_    0.901748 0.261009 0.346492 0.199179
C32   C     C_R   0.776336 0.191045 0.241323 0.357134
C33   C     C_R   0.622577 0.183281 0.185844 -0.283515
C34   C     C_R   0.479691 0.242945 0.195959 -0.233577
H15   H     H_    0.363124 0.238939 0.153246 0.187273
C35   C     C_R   0.489921 0.310454 0.257854 0.401225
C36   C     C_R   0.643127 0.317379 0.313726 -0.355431
O11   O     O_R   0.774880 0.061150 0.920630 -0.602381
O12   O     O_R   0.440980 0.093710 0.086500 -0.591035
O13   O     O_R   0.266190 0.938890 0.079390 -0.591093
C37   C     C_R   0.610178 0.115374 0.116537 1.008864
O14   O     O_R   0.445420 0.070740 0.921670 -0.605074
O15   O     O_R   0.270660 0.915760 0.913380 -0.604724
C38   C     C_R   0.615844 0.086260 0.894903 0.914317
O16   O     O_R   0.770400 0.084270 0.086640 -0.566908
O17   O     O_3   0.602590 0.949210 0.997500 -0.254839
V3    V     V_3+5 0.329470 0.009420 0.000470 1.209632
O18   O     O_R   0.940650 0.906250 0.913470 -0.595346
C39   C     C_R   0.109748 0.882989 0.884906 0.938466
O19   O     O_R   0.936210 0.929220 0.078300 -0.551134
C40   C     C_R   0.105728 0.912755 0.104421 1.075290
V4    V     V_3+5 0.828930 0.990510 0.999490 1.241505
O20   O     O_3   0.105680 0.050790 0.002500 -0.269851
N1    N     N_R   0.854051 0.771968 0.110608 0.232674
O21   O     O_R   0.676095 0.772406 0.135505 -0.402950
O22   O     O_R   0.890463 0.756521 0.034457 -0.382794
N2    N     N_R   0.894863 0.275435 0.607611 0.238685
O23   O     O_R   0.850123 0.255085 0.532608 -0.413219
O24   O     O_R   0.075562 0.281360 0.628516 -0.388059
N3    N     N_R   0.372126 0.452944 0.736813 0.247671
O25   O     O_R   0.191029 0.452806 0.757690 -0.369726
O26   O     O_R   0.458931 0.521686 0.736204 -0.413960
Br1   Br    Br    0.974922 0.111589 0.239001 -0.544169
N4    N     N_R   0.349980 0.373217 0.260001 0.234348
O27   O     O_R   0.170706 0.354826 0.242091 -0.406454
O28   O     O_R   0.406897 0.447848 0.265658 -0.418830

loop_
_geom_bond_atom_site_label_1
_geom_bond_atom_site_label_2
_geom_bond_distance
_ccdc_geom_bond_type
C18   H5    1.084122 S    
C19   C20   1.396696 A    
C1    O6    1.292372 A    
C15   N1    1.434407 S    
C15   C16   1.426315 A    
C35   C36   1.419678 A    
C5    C10   1.406021 A    
C16   C20   1.406118 A    
C34   C35   1.406439 A    
C6    C7    1.409202 A    
O19   V4    1.987682 S    
O5    C3    1.288511 A    
N3    O26   1.301672 A    
V2    O10   2.157174 S    
C13   C17   1.397777 A    
O12   V3    2.001040 S    
C31   H14   1.083549 S    
C5    H1    1.082734 S    
O17   V4    1.707044 S    
C33   C37   1.491160 S    
O8    V2    1.987736 S    
C6    H2    1.082735 S    
O12   C37   1.303667 A    
C25   H13   1.084292 S    
C14   H9    1.083657 S    
O15   V3    2.002254 S    
O1    V2    2.004429 S    
O11   C38   1.290504 A    
O7    V1    2.150625 S    
C23   H10   1.081799 S    
C33   C34   1.404762 A    
O9    C4    1.302087 A    
C22   C25   1.403843 A    
C29   C30   1.402815 A    
C11   C18   1.404006 A    
O18   C39   1.302048 A    
C3    C11   1.488533 S    
C26   C27   1.416309 A    
C20   H8    1.081676 S    
C19   H6    1.083762 S    
C9    H4    1.082771 S    
N1    O22   1.301047 A    
O4    C2    1.301808 A    
N3    O25   1.301856 A    
N1    O21   1.300868 A    
C26   C30   1.396921 A    
C11   C19   1.407042 A    
C32   C33   1.417567 A    
O13   V3    1.994210 S    
C4    C10   1.490599 S    
C34   H15   1.083638 S    
C30   H11   1.084163 S    
O2    C1    1.305024 A    
C13   C14   1.395193 A    
N4    O28   1.301258 A    
N2    O23   1.301120 A    
C13   H7    1.083741 S    
C17   C18   1.415199 A    
V3    O20   1.702810 S    
C31   C36   1.403420 A    
O19   C40   1.307624 A    
C12   C40   1.493855 S    
C22   C24   1.405221 A    
C2    C36   1.490360 S    
O3    C4    1.295999 A    
C21   C29   1.422604 A    
C27   C28   1.421456 A    
N2    O24   1.301012 A    
C24   H12   1.083597 S    
C22   C38   1.485701 S    
O9    V2    2.005203 S    
C8    C9    1.400888 A    
O2    V1    1.997892 S    
C23   C24   1.396932 A    
O13   C40   1.290158 A    
C25   C26   1.413141 A    
O1    C2    1.294427 A    
O11   V4    1.989222 S    
C12   C15   1.416559 A    
C9    C10   1.409189 A    
O17   V3    2.150584 S    
O5    V1    1.994219 S    
O8    C3    1.307759 A    
O6    V2    1.988663 S    
C7    C39   1.490734 S    
C16   C17   1.420666 A    
C28   N2    1.434451 S    
C12   C14   1.408702 A    
O14   V3    1.997997 S    
O4    V1    2.001115 S    
O3    V1    2.002439 S    
V1    O10   1.702710 S    
V4    O20   2.157162 S    
N4    O27   1.301306 A    
C1    C21   1.496123 S    
C35   N4    1.436464 S    
C5    C6    1.400880 A    
C31   C32   1.400304 A    
O15   C39   1.296131 A    
C37   O16   1.293686 A    
O7    V2    1.707751 S    
C32   Br1   1.923403 S    
C29   N3    1.438640 S    
C21   C28   1.419152 A    
O14   C38   1.304233 A    
O18   V4    2.005148 S    
C8    H3    1.082735 S    
C7    C8    1.406078 A    
O16   V4    2.006202 S    
C23   C27   1.407606 A    
