data_mof_unit_15300.cif
_audit_creation_date              2012-12-10T17:18:33-0500
_audit_creation_method            fapswitch 2.2
_symmetry_space_group_name_H-M    P1
_symmetry_Int_Tables_number       1
_space_group_crystal_system       triclinic
_cell_length_a                    26.711736
_cell_length_b                    26.468218
_cell_length_c                    26.468251
_cell_angle_alpha                 89.999922
_cell_angle_beta                  89.999974
_cell_angle_gamma                 90.000035
_cell_volume                      18713.3724419

loop_
_atom_site_label
_atom_site_type_symbol
_atom_type_description
_atom_site_fract_x
_atom_site_fract_y
_atom_site_fract_z
_atom_type_partial_charge
Br1   Br    Br    0.544339 0.921665 0.853187 -0.253870
Br2   Br    Br    0.455665 0.853181 0.921669 -0.253879
Br3   Br    Br    0.921520 0.147619 0.545128 -0.259571
Br4   Br    Br    0.145418 0.921261 0.455441 -0.254697
Br5   Br    Br    0.455662 0.078332 0.853183 -0.253883
Br6   Br    Br    0.544337 0.853186 0.078334 -0.253867
Br7   Br    Br    0.078478 0.147621 0.454879 -0.259577
Br8   Br    Br    0.854577 0.921263 0.544560 -0.254704
Br9   Br    Br    0.854579 0.544564 0.078739 -0.254710
Br10  Br    Br    0.078477 0.454875 0.852376 -0.259591
Br11  Br    Br    0.854583 0.455437 0.921261 -0.254694
Br12  Br    Br    0.455660 0.146819 0.078332 -0.253885
Br13  Br    Br    0.078478 0.545123 0.147620 -0.259578
Br14  Br    Br    0.145422 0.455432 0.078738 -0.254713
Br15  Br    Br    0.921521 0.545132 0.852378 -0.259589
Br16  Br    Br    0.145420 0.544565 0.921261 -0.254707
Br17  Br    Br    0.921521 0.454871 0.147619 -0.259580
Br18  Br    Br    0.044334 0.353187 0.921665 -0.253860
Br19  Br    Br    0.955663 0.578332 0.146817 -0.253878
Br20  Br    Br    0.921522 0.352380 0.954869 -0.259582
Br21  Br    Br    0.145421 0.578738 0.044565 -0.254709
Br22  Br    Br    0.955661 0.353180 0.078330 -0.253886
Br23  Br    Br    0.921522 0.852380 0.454871 -0.259579
Br24  Br    Br    0.044334 0.578335 0.853189 -0.253854
Br25  Br    Br    0.078477 0.352377 0.045124 -0.259583
Br26  Br    Br    0.854580 0.578739 0.955436 -0.254701
Br27  Br    Br    0.044337 0.646814 0.078334 -0.253871
Br28  Br    Br    0.955663 0.421671 0.853179 -0.253885
Br29  Br    Br    0.921521 0.647620 0.045129 -0.259581
Br30  Br    Br    0.145419 0.421261 0.955433 -0.254704
Br31  Br    Br    0.955661 0.646821 0.921670 -0.253886
Br32  Br    Br    0.044336 0.421664 0.146811 -0.253862
Br33  Br    Br    0.078478 0.647621 0.954874 -0.259585
Br34  Br    Br    0.145418 0.078740 0.544572 -0.254710
Br35  Br    Br    0.854581 0.421262 0.044562 -0.254699
Br36  Br    Br    0.421520 0.147617 0.954870 -0.259575
Br37  Br    Br    0.645421 0.921262 0.044568 -0.254710
Br38  Br    Br    0.421520 0.045127 0.147618 -0.259575
Br39  Br    Br    0.645424 0.955435 0.921264 -0.254717
Br40  Br    Br    0.421522 0.852377 0.045129 -0.259588
Br41  Br    Br    0.645421 0.078738 0.955437 -0.254705
Br42  Br    Br    0.421523 0.954869 0.852377 -0.259595
Br43  Br    Br    0.645419 0.044566 0.078740 -0.254704
Br44  Br    Br    0.578479 0.852381 0.954875 -0.259572
Br45  Br    Br    0.455662 0.921667 0.146817 -0.253874
Br46  Br    Br    0.354578 0.078738 0.044565 -0.254711
Br47  Br    Br    0.578477 0.954875 0.147623 -0.259585
Br48  Br    Br    0.354580 0.044559 0.921262 -0.254695
Br49  Br    Br    0.578477 0.147623 0.045126 -0.259588
Br50  Br    Br    0.354582 0.921259 0.955435 -0.254697
Br51  Br    Br    0.578478 0.045125 0.852383 -0.259570
Br52  Br    Br    0.354578 0.955432 0.078739 -0.254711
Br53  Br    Br    0.078473 0.045126 0.647629 -0.259597
Br54  Br    Br    0.854584 0.955437 0.421258 -0.254693
Br55  Br    Br    0.044331 0.921667 0.646816 -0.253867
Br56  Br    Br    0.544337 0.146814 0.921666 -0.253872
Br57  Br    Br    0.955663 0.146818 0.421668 -0.253882
Br58  Br    Br    0.921518 0.954872 0.647617 -0.259569
Br59  Br    Br    0.145428 0.044567 0.421266 -0.254730
Br60  Br    Br    0.955653 0.078333 0.646822 -0.253899
Br61  Br    Br    0.044336 0.853182 0.421667 -0.253882
Br62  Br    Br    0.921524 0.045130 0.352376 -0.259593
Br63  Br    Br    0.145414 0.955436 0.578743 -0.254689
Br64  Br    Br    0.955666 0.921669 0.353181 -0.253884
Br65  Br    Br    0.044330 0.146809 0.578338 -0.253844
Br66  Br    Br    0.078481 0.954877 0.352386 -0.259564
Br67  Br    Br    0.078475 0.852376 0.545130 -0.259595
Br68  Br    Br    0.854573 0.044565 0.578736 -0.254716
Br69  Br    Br    0.044341 0.078336 0.353191 -0.253863
Br70  Br    Br    0.955659 0.853183 0.578333 -0.253881
Br71  Br    Br    0.544336 0.421666 0.353183 -0.253875
Br72  Br    Br    0.455672 0.646818 0.578333 -0.253872
Br73  Br    Br    0.354574 0.421267 0.455435 -0.254728
Br74  Br    Br    0.578483 0.647614 0.545126 -0.259557
Br75  Br    Br    0.455662 0.421668 0.646818 -0.253883
Br76  Br    Br    0.544344 0.646813 0.421665 -0.253870
Br77  Br    Br    0.645415 0.421258 0.544564 -0.254690
Br78  Br    Br    0.854580 0.078738 0.455433 -0.254700
Br79  Br    Br    0.421528 0.647635 0.454871 -0.259616
Br80  Br    Br    0.544342 0.578332 0.646819 -0.253883
Br81  Br    Br    0.455658 0.353186 0.421665 -0.253876
Br82  Br    Br    0.354600 0.578745 0.544566 -0.254646
Br83  Br    Br    0.578475 0.352375 0.454871 -0.259593
Br84  Br    Br    0.455663 0.578336 0.353188 -0.253862
Br85  Br    Br    0.544331 0.353182 0.578332 -0.253873
Br86  Br    Br    0.645427 0.578735 0.455434 -0.254722
Br87  Br    Br    0.421520 0.352385 0.545126 -0.259564
Br88  Br    Br    0.421526 0.545131 0.647627 -0.259602
Br89  Br    Br    0.544334 0.078334 0.146813 -0.253864
Br90  Br    Br    0.645419 0.455432 0.421261 -0.254703
Br91  Br    Br    0.421521 0.454877 0.352382 -0.259569
Br92  Br    Br    0.645422 0.544559 0.578737 -0.254704
Br93  Br    Br    0.578478 0.454869 0.647622 -0.259588
Br94  Br    Br    0.354583 0.544574 0.421260 -0.254706
Br95  Br    Br    0.578479 0.545125 0.352379 -0.259580
Br96  Br    Br    0.354582 0.455443 0.578739 -0.254701
C1    C     C_R   0.752809 0.610095 0.747119 0.790071
C2    C     C_R   0.389936 0.750000 0.750000 0.792918
C3    C     C_R   0.167614 0.045856 0.704604 -0.264461
C4    C     C_R   0.796679 0.332240 0.045749 -0.264561
C5    C     C_R   0.167616 0.704600 0.954144 -0.264463
C6    C     C_R   0.796674 0.045749 0.667757 -0.264558
C7    C     C_R   0.167618 0.954145 0.295404 -0.264465
C8    C     C_R   0.296680 0.045749 0.832240 -0.264558
C9    C     C_R   0.667616 0.954145 0.204602 -0.264464
C10   C     C_R   0.046194 0.668874 0.796764 -0.267434
C11   C     C_R   0.953805 0.296758 0.168872 -0.267430
C12   C     C_R   0.703324 0.954250 0.832241 -0.264562
C13   C     C_R   0.610064 0.750000 0.250000 0.792919
C14   C     C_R   0.332383 0.045856 0.204599 -0.264464
C15   C     C_R   0.953805 0.331130 0.796758 -0.267429
C16   C     C_R   0.046195 0.703238 0.168874 -0.267432
C17   C     C_R   0.703323 0.045750 0.167759 -0.264564
C18   C     C_R   0.332386 0.954143 0.795396 -0.264463
C19   C     C_R   0.953805 0.668873 0.203239 -0.267433
C20   C     C_R   0.046195 0.296766 0.831123 -0.267434
C21   C     C_R   0.296675 0.954250 0.167759 -0.264562
C22   C     C_R   0.667616 0.045856 0.795401 -0.264465
C23   C     C_R   0.046194 0.331124 0.203236 -0.267433
C24   C     C_R   0.389936 0.250000 0.750000 0.792919
C25   C     C_R   0.953805 0.703242 0.831128 -0.267430
C26   C     C_R   0.546194 0.168874 0.203236 -0.267432
C27   C     C_R   0.453805 0.796761 0.831127 -0.267430
C28   C     C_R   0.167617 0.204598 0.454145 -0.264462
C29   C     C_R   0.796678 0.832240 0.545748 -0.264561
C30   C     C_R   0.453805 0.168873 0.796761 -0.267430
C31   C     C_R   0.546194 0.796762 0.168874 -0.267431
C32   C     C_R   0.832383 0.204599 0.545856 -0.264465
C33   C     C_R   0.203318 0.832238 0.454252 -0.264563
C34   C     C_R   0.546194 0.831127 0.796762 -0.267435
C35   C     C_R   0.610064 0.750000 0.750000 0.792917
C36   C     C_R   0.453805 0.203241 0.168872 -0.267431
C37   C     C_R   0.167612 0.795395 0.545857 -0.264461
C38   C     C_R   0.796676 0.167758 0.454250 -0.264562
C39   C     C_R   0.453805 0.831127 0.203239 -0.267428
C40   C     C_R   0.546195 0.203238 0.831127 -0.267430
C41   C     C_R   0.832385 0.795398 0.454143 -0.264465
C42   C     C_R   0.203326 0.167757 0.545750 -0.264565
C43   C     C_R   0.203323 0.545749 0.832241 -0.264562
C44   C     C_R   0.832385 0.454143 0.204601 -0.264464
C45   C     C_R   0.203325 0.454250 0.167758 -0.264562
C46   C     C_R   0.389936 0.250000 0.250000 0.792917
C47   C     C_R   0.832385 0.545856 0.795397 -0.264462
C48   C     C_R   0.796679 0.454251 0.832240 -0.264562
C49   C     C_R   0.167617 0.545856 0.204599 -0.264462
C50   C     C_R   0.796678 0.545749 0.167760 -0.264562
C51   C     C_R   0.167616 0.454144 0.795398 -0.264462
C52   C     C_R   0.521258 0.643301 0.665041 0.321170
C53   C     C_R   0.478742 0.334963 0.356696 0.321170
C54   C     C_R   0.664407 0.643397 0.478866 0.319247
C55   C     C_R   0.357258 0.334275 0.521363 0.319044
C56   C     C_R   0.478746 0.643305 0.334965 0.321176
C57   C     C_R   0.610064 0.250000 0.750000 0.792919
C58   C     C_R   0.521254 0.334964 0.643305 0.321172
C59   C     C_R   0.335605 0.643407 0.521134 0.319242
C60   C     C_R   0.642736 0.334266 0.478636 0.319041
C61   C     C_R   0.521255 0.356695 0.334964 0.321172
C62   C     C_R   0.478747 0.665034 0.643307 0.321177
C63   C     C_R   0.664398 0.356595 0.521133 0.319249
C64   C     C_R   0.357268 0.665740 0.478639 0.319039
C65   C     C_R   0.478743 0.356697 0.665038 0.321169
C66   C     C_R   0.521258 0.665037 0.356696 0.321173
C67   C     C_R   0.335595 0.356602 0.478867 0.319243
C68   C     C_R   0.389936 0.750000 0.250000 0.792918
C69   C     C_R   0.642744 0.665725 0.521363 0.319046
C70   C     C_R   0.642741 0.521362 0.334271 0.319047
C71   C     C_R   0.335602 0.478869 0.643404 0.319244
C72   C     C_R   0.642739 0.478635 0.665731 0.319044
C73   C     C_R   0.335596 0.521136 0.356600 0.319246
C74   C     C_R   0.357259 0.478638 0.334273 0.319043
C75   C     C_R   0.664401 0.521131 0.643402 0.319250
C76   C     C_R   0.357264 0.521365 0.665734 0.319039
C77   C     C_R   0.664403 0.478865 0.356599 0.319251
C78   C     C_R   0.021251 0.165032 0.643309 0.321171
C79   C     C_R   0.252809 0.752881 0.389905 0.790071
C80   C     C_R   0.978745 0.856697 0.334962 0.321169
C81   C     C_R   0.664401 0.143402 0.978867 0.319249
C82   C     C_R   0.357261 0.834269 0.021363 0.319047
C83   C     C_R   0.978745 0.165038 0.356697 0.321170
C84   C     C_R   0.021254 0.856694 0.665035 0.321174
C85   C     C_R   0.335597 0.143400 0.021132 0.319247
C86   C     C_R   0.642741 0.834273 0.978638 0.319045
C87   C     C_R   0.021256 0.834963 0.356695 0.321167
C88   C     C_R   0.978739 0.143301 0.665043 0.321174
C89   C     C_R   0.664404 0.856600 0.021135 0.319249
C90   C     C_R   0.752809 0.252881 0.610095 0.790069
C91   C     C_R   0.357259 0.165728 0.978636 0.319044
C92   C     C_R   0.978742 0.834961 0.643303 0.321171
C93   C     C_R   0.021257 0.143305 0.334966 0.321171
C94   C     C_R   0.335599 0.856597 0.978867 0.319253
C95   C     C_R   0.642739 0.165730 0.021363 0.319043
C96   C     C_R   0.164402 0.356598 0.978866 0.319248
C97   C     C_R   0.857260 0.665729 0.021364 0.319047
C98   C     C_R   0.164408 0.021135 0.356603 0.319243
C99   C     C_R   0.857257 0.978637 0.665726 0.319052
C100  C     C_R   0.164403 0.643401 0.021133 0.319248
C101  C     C_R   0.752809 0.747118 0.389905 0.790073
C102  C     C_R   0.857261 0.334270 0.978635 0.319044
C103  C     C_R   0.164398 0.978867 0.643405 0.319250
C104  C     C_R   0.857264 0.021364 0.334266 0.319043
C105  C     C_R   0.835598 0.643402 0.978867 0.319251
C106  C     C_R   0.142739 0.334270 0.021362 0.319044
C107  C     C_R   0.835602 0.978868 0.356595 0.319251
C108  C     C_R   0.142736 0.021363 0.665734 0.319043
C109  C     C_R   0.835599 0.356598 0.021131 0.319248
C110  C     C_R   0.142740 0.665729 0.978637 0.319045
C111  C     C_R   0.835594 0.021133 0.643399 0.319254
C112  C     C_R   0.252809 0.389905 0.247119 0.790071
C113  C     C_R   0.252810 0.247119 0.610095 0.790073
C114  C     C_R   0.142744 0.978638 0.334276 0.319042
C115  C     C_R   0.335600 0.021131 0.856597 0.319249
C116  C     C_R   0.642739 0.978638 0.165731 0.319044
C117  C     C_R   0.021255 0.643306 0.834967 0.321173
C118  C     C_R   0.978743 0.334960 0.143301 0.321169
C119  C     C_R   0.664403 0.978866 0.856600 0.319248
C120  C     C_R   0.357259 0.021363 0.165728 0.319047
C121  C     C_R   0.978744 0.356700 0.834959 0.321169
C122  C     C_R   0.021256 0.665035 0.143305 0.321170
C123  C     C_R   0.664402 0.021134 0.143402 0.319250
C124  C     C_R   0.747190 0.247118 0.389905 0.790072
C125  C     C_R   0.357262 0.978635 0.834268 0.319043
C126  C     C_R   0.978744 0.643303 0.165037 0.321168
C127  C     C_R   0.021256 0.334969 0.856692 0.321177
C128  C     C_R   0.335596 0.978866 0.143400 0.319248
C129  C     C_R   0.642740 0.021363 0.834273 0.319042
C130  C     C_R   0.021255 0.356693 0.165033 0.321171
C131  C     C_R   0.978743 0.665040 0.856699 0.321173
C132  C     C_R   0.521255 0.143306 0.165034 0.321172
C133  C     C_R   0.478744 0.834962 0.856697 0.321174
C134  C     C_R   0.142741 0.165728 0.478639 0.319044
C135  C     C_R   0.247190 0.747118 0.610095 0.790071
C136  C     C_R   0.835598 0.856598 0.521131 0.319248
C137  C     C_R   0.478744 0.143303 0.834963 0.321167
C138  C     C_R   0.521256 0.834964 0.143305 0.321172
C139  C     C_R   0.857259 0.165728 0.521363 0.319049
C140  C     C_R   0.164398 0.856596 0.478869 0.319246
C141  C     C_R   0.521257 0.856695 0.834965 0.321173
C142  C     C_R   0.478743 0.165039 0.143302 0.321169
C143  C     C_R   0.142736 0.834267 0.521366 0.319041
C144  C     C_R   0.835597 0.143401 0.478866 0.319251
C145  C     C_R   0.478744 0.856697 0.165037 0.321173
C146  C     C_R   0.247191 0.252881 0.389905 0.790072
C147  C     C_R   0.521256 0.165035 0.856695 0.321169
C148  C     C_R   0.857261 0.834270 0.478635 0.319044
C149  C     C_R   0.164404 0.143400 0.521136 0.319246
C150  C     C_R   0.164402 0.521133 0.856598 0.319247
C151  C     C_R   0.857261 0.478636 0.165729 0.319044
C152  C     C_R   0.164404 0.478866 0.143400 0.319246
C153  C     C_R   0.857261 0.521365 0.834269 0.319045
C154  C     C_R   0.835600 0.478868 0.856597 0.319250
C155  C     C_R   0.142741 0.521362 0.165728 0.319042
C156  C     C_R   0.835598 0.521133 0.143402 0.319248
C157  C     C_R   0.747191 0.752881 0.610095 0.790072
C158  C     C_R   0.142739 0.478637 0.834269 0.319041
C159  C     C_R   0.474229 0.722673 0.713697 0.022638
C160  C     C_R   0.525771 0.286305 0.277326 0.022640
C161  C     C_R   0.712025 0.724210 0.525489 0.028584
C162  C     C_R   0.276355 0.287787 0.474535 0.028820
C163  C     C_R   0.525771 0.722676 0.286307 0.022636
C164  C     C_R   0.474228 0.286307 0.722676 0.022637
C165  C     C_R   0.287975 0.724213 0.474510 0.028586
C166  C     C_R   0.723643 0.287784 0.525465 0.028818
C167  C     C_R   0.474229 0.277324 0.286306 0.022637
C168  C     C_R   0.247190 0.110095 0.752882 0.790072
C169  C     C_R   0.525771 0.713692 0.722678 0.022637
C170  C     C_R   0.712022 0.275786 0.474510 0.028587
C171  C     C_R   0.276353 0.712212 0.525464 0.028824
C172  C     C_R   0.525771 0.277326 0.713695 0.022640
C173  C     C_R   0.474229 0.713695 0.277327 0.022640
C174  C     C_R   0.287977 0.275789 0.525490 0.028586
C175  C     C_R   0.723647 0.712212 0.474535 0.028819
C176  C     C_R   0.723646 0.474535 0.287787 0.028818
C177  C     C_R   0.287978 0.525490 0.724214 0.028585
C178  C     C_R   0.723644 0.525465 0.712215 0.028820
C179  C     C_R   0.747191 0.889905 0.252881 0.790071
C180  C     C_R   0.287976 0.474511 0.275790 0.028587
C181  C     C_R   0.276353 0.525465 0.287787 0.028818
C182  C     C_R   0.712023 0.474510 0.724213 0.028582
C183  C     C_R   0.276357 0.474535 0.712215 0.028820
C184  C     C_R   0.712025 0.525489 0.275790 0.028585
C185  C     C_R   0.974228 0.213693 0.722678 0.022624
C186  C     C_R   0.025771 0.777325 0.286305 0.022636
C187  C     C_R   0.712023 0.224212 0.025489 0.028585
C188  C     C_R   0.276355 0.787786 0.974535 0.028818
C189  C     C_R   0.025771 0.213693 0.277325 0.022639
C190  C     C_R   0.747190 0.110095 0.747118 0.790071
C191  C     C_R   0.974229 0.777323 0.713692 0.022637
C192  C     C_R   0.287977 0.224212 0.974510 0.028585
C193  C     C_R   0.723646 0.787787 0.025465 0.028817
C194  C     C_R   0.974229 0.786306 0.277324 0.022640
C195  C     C_R   0.025771 0.222672 0.713696 0.022642
C196  C     C_R   0.712025 0.775790 0.974511 0.028586
C197  C     C_R   0.276356 0.212214 0.025465 0.028820
C198  C     C_R   0.025771 0.786304 0.722673 0.022640
C199  C     C_R   0.974229 0.222674 0.286305 0.022641
C200  C     C_R   0.287977 0.775787 0.025489 0.028582
C201  C     C_R   0.247191 0.889905 0.247119 0.790072
C202  C     C_R   0.723645 0.212214 0.974535 0.028818
C203  C     C_R   0.212024 0.275789 0.025489 0.028586
C204  C     C_R   0.776356 0.712214 0.974535 0.028818
C205  C     C_R   0.212025 0.974511 0.275791 0.028587
C206  C     C_R   0.776353 0.025465 0.712213 0.028818
C207  C     C_R   0.212023 0.724212 0.974510 0.028586
C208  C     C_R   0.776356 0.287785 0.025465 0.028820
C209  C     C_R   0.212022 0.025490 0.724214 0.028586
C210  C     C_R   0.776358 0.974535 0.287784 0.028817
C211  C     C_R   0.787977 0.724212 0.025490 0.028585
C212  C     C_R   0.752810 0.110095 0.247118 0.790072
C213  C     C_R   0.223646 0.287787 0.974535 0.028818
C214  C     C_R   0.787979 0.025490 0.275786 0.028586
C215  C     C_R   0.223643 0.974535 0.712215 0.028819
C216  C     C_R   0.787978 0.275787 0.974510 0.028584
C217  C     C_R   0.223645 0.712214 0.025465 0.028820
C218  C     C_R   0.787975 0.974511 0.724211 0.028583
C219  C     C_R   0.223647 0.025465 0.287788 0.028818
C220  C     C_R   0.287977 0.974510 0.775787 0.028583
C221  C     C_R   0.723646 0.025465 0.212214 0.028817
C222  C     C_R   0.974229 0.722676 0.786307 0.022639
C223  C     C_R   0.747191 0.610095 0.247119 0.790071
C224  C     C_R   0.252809 0.889905 0.747118 0.790071
C225  C     C_R   0.025771 0.286304 0.222672 0.022639
C226  C     C_R   0.712023 0.025490 0.775789 0.028587
C227  C     C_R   0.276354 0.974535 0.212214 0.028817
C228  C     C_R   0.025771 0.277328 0.786304 0.022634
C229  C     C_R   0.974229 0.713694 0.222674 0.022641
C230  C     C_R   0.712024 0.974511 0.224212 0.028585
C231  C     C_R   0.276356 0.025465 0.787785 0.028821
C232  C     C_R   0.025771 0.722674 0.213694 0.022639
C233  C     C_R   0.974229 0.286308 0.777324 0.022644
C234  C     C_R   0.287976 0.025490 0.224211 0.028586
C235  C     C_R   0.252809 0.110095 0.252881 0.790072
C236  C     C_R   0.723645 0.974535 0.787786 0.028819
C237  C     C_R   0.974229 0.277323 0.213692 0.022639
C238  C     C_R   0.025771 0.713695 0.777326 0.022640
C239  C     C_R   0.474229 0.222675 0.213693 0.022639
C240  C     C_R   0.525771 0.786306 0.777326 0.022639
C241  C     C_R   0.223647 0.212212 0.525465 0.028817
C242  C     C_R   0.787977 0.775787 0.474510 0.028585
C243  C     C_R   0.525771 0.222674 0.786306 0.022639
C244  C     C_R   0.474229 0.786306 0.222675 0.022638
C245  C     C_R   0.776354 0.212213 0.474535 0.028817
C246  C     C_R   0.752809 0.889905 0.752881 0.790072
C247  C     C_R   0.212019 0.775784 0.525490 0.028585
C248  C     C_R   0.474229 0.777325 0.786306 0.022641
C249  C     C_R   0.525771 0.213695 0.222673 0.022640
C250  C     C_R   0.223640 0.787783 0.474535 0.028822
C251  C     C_R   0.787975 0.224211 0.525489 0.028584
C252  C     C_R   0.525771 0.777326 0.213695 0.022639
C253  C     C_R   0.474229 0.213694 0.777325 0.022641
C254  C     C_R   0.776356 0.787785 0.525464 0.028819
C255  C     C_R   0.212025 0.224210 0.474511 0.028586
C256  C     C_R   0.212024 0.474511 0.775788 0.028585
C257  C     C_R   0.110064 0.250000 0.750000 0.792920
C258  C     C_R   0.776356 0.525465 0.212215 0.028819
C259  C     C_R   0.212024 0.525489 0.224211 0.028586
C260  C     C_R   0.776356 0.474535 0.787786 0.028820
C261  C     C_R   0.787977 0.525490 0.775787 0.028583
C262  C     C_R   0.223646 0.474535 0.212213 0.028818
C263  C     C_R   0.787978 0.474510 0.224213 0.028586
C264  C     C_R   0.223646 0.525465 0.787786 0.028818
C265  C     C_R   0.446237 0.749999 0.750001 -0.110772
C266  C     C_R   0.553763 0.250000 0.250000 -0.110772
C267  C     C_R   0.743026 0.757195 0.553256 -0.125464
C268  C     C_R   0.889936 0.750000 0.250000 0.792918
C269  C     C_R   0.243026 0.257195 0.446743 -0.125467
C270  C     C_R   0.553763 0.750000 0.250000 -0.110769
C271  C     C_R   0.446236 0.250000 0.750001 -0.110771
C272  C     C_R   0.256972 0.757195 0.446744 -0.125467
C273  C     C_R   0.756974 0.257195 0.553256 -0.125464
C274  C     C_R   0.446236 0.250000 0.250000 -0.110770
C275  C     C_R   0.553763 0.749999 0.750001 -0.110769
C276  C     C_R   0.743024 0.242803 0.446743 -0.125466
C277  C     C_R   0.243022 0.742801 0.553256 -0.125469
C278  C     C_R   0.553763 0.250000 0.750000 -0.110772
C279  C     C_R   0.110064 0.250000 0.250000 0.792920
C280  C     C_R   0.446237 0.750000 0.250001 -0.110771
C281  C     C_R   0.256976 0.242804 0.553257 -0.125466
C282  C     C_R   0.756976 0.742803 0.446743 -0.125465
C283  C     C_R   0.756976 0.446743 0.257197 -0.125465
C284  C     C_R   0.256976 0.553257 0.757197 -0.125465
C285  C     C_R   0.756975 0.553256 0.742804 -0.125465
C286  C     C_R   0.256976 0.446743 0.242804 -0.125466
C287  C     C_R   0.243024 0.553257 0.257196 -0.125466
C288  C     C_R   0.743025 0.446743 0.757197 -0.125465
C289  C     C_R   0.243026 0.446744 0.742804 -0.125466
C290  C     C_R   0.889936 0.750000 0.750000 0.792917
C291  C     C_R   0.743026 0.553256 0.242805 -0.125465
C292  C     C_R   0.946237 0.250001 0.750001 -0.110769
C293  C     C_R   0.053763 0.750000 0.250000 -0.110771
C294  C     C_R   0.743026 0.257196 0.053256 -0.125465
C295  C     C_R   0.243025 0.757196 0.946743 -0.125466
C296  C     C_R   0.053763 0.249999 0.249999 -0.110771
C297  C     C_R   0.946236 0.750000 0.750000 -0.110769
C298  C     C_R   0.256976 0.257197 0.946743 -0.125465
C299  C     C_R   0.756976 0.757197 0.053257 -0.125465
C300  C     C_R   0.946237 0.750000 0.249999 -0.110771
C301  C     C_R   0.110064 0.750000 0.250000 0.792919
C302  C     C_R   0.053763 0.250000 0.750000 -0.110770
C303  C     C_R   0.743025 0.742805 0.946744 -0.125465
C304  C     C_R   0.243025 0.242804 0.053256 -0.125466
C305  C     C_R   0.053763 0.749999 0.750000 -0.110772
C306  C     C_R   0.946237 0.249999 0.249999 -0.110771
C307  C     C_R   0.256975 0.742803 0.053256 -0.125465
C308  C     C_R   0.756975 0.242804 0.946743 -0.125465
C309  C     C_R   0.243025 0.946744 0.242805 -0.125465
C310  C     C_R   0.743024 0.053257 0.742804 -0.125466
C311  C     C_R   0.243025 0.053257 0.757197 -0.125466
C312  C     C_R   0.889936 0.250000 0.750000 0.792913
C313  C     C_R   0.743026 0.946744 0.257195 -0.125465
C314  C     C_R   0.756976 0.053257 0.242803 -0.125465
C315  C     C_R   0.256975 0.946744 0.742804 -0.125465
C316  C     C_R   0.756975 0.946743 0.757196 -0.125464
C317  C     C_R   0.256976 0.053257 0.257196 -0.125465
C318  C     C_R   0.110064 0.750000 0.750000 0.792919
C319  C     C_R   0.247191 0.389905 0.747119 0.790073
C320  C     C_R   0.889936 0.250000 0.250000 0.792917
C321  C     C_R   0.252809 0.252881 0.889905 0.790073
C322  C     C_R   0.752809 0.752881 0.110095 0.790072
C323  C     C_R   0.247191 0.752881 0.889905 0.790072
C324  C     C_R   0.747191 0.252881 0.110095 0.790072
C325  C     C_R   0.747191 0.747119 0.889905 0.790072
C326  C     C_R   0.247191 0.247119 0.110095 0.790072
C327  C     C_R   0.752809 0.247118 0.889905 0.790073
C328  C     C_R   0.252809 0.747119 0.110095 0.790071
C329  C     C_R   0.546195 0.668871 0.703244 -0.267432
C330  C     C_R   0.247190 0.610095 0.252881 0.790071
C331  C     C_R   0.453805 0.296760 0.331127 -0.267432
C332  C     C_R   0.703327 0.667756 0.454250 -0.264559
C333  C     C_R   0.332384 0.295402 0.545856 -0.264466
C334  C     C_R   0.453806 0.668875 0.296764 -0.267429
C335  C     C_R   0.546194 0.296762 0.668874 -0.267428
C336  C     C_R   0.296679 0.667758 0.545747 -0.264568
C337  C     C_R   0.667614 0.295396 0.454143 -0.264462
C338  C     C_R   0.546194 0.331126 0.296762 -0.267431
C339  C     C_R   0.453807 0.703236 0.668876 -0.267429
C340  C     C_R   0.703320 0.332239 0.545749 -0.264564
C341  C     C_R   0.747191 0.389905 0.752881 0.790072
C342  C     C_R   0.332387 0.704608 0.454145 -0.264459
C343  C     C_R   0.453805 0.331128 0.703241 -0.267432
C344  C     C_R   0.546196 0.703240 0.331127 -0.267434
C345  C     C_R   0.296675 0.332243 0.454250 -0.264560
C346  C     C_R   0.667618 0.704597 0.545856 -0.264467
C347  C     C_R   0.667617 0.545855 0.295401 -0.264463
C348  C     C_R   0.296681 0.454251 0.667761 -0.264561
C349  C     C_R   0.667615 0.454143 0.704603 -0.264464
C350  C     C_R   0.296675 0.545750 0.332243 -0.264564
C351  C     C_R   0.332383 0.454145 0.295402 -0.264463
C352  C     C_R   0.252809 0.610095 0.752881 0.790072
C353  C     C_R   0.703321 0.545749 0.667760 -0.264560
C354  C     C_R   0.332387 0.545857 0.704605 -0.264464
C355  C     C_R   0.703324 0.454250 0.332242 -0.264563
C356  C     C_R   0.046193 0.203233 0.668876 -0.267433
C357  C     C_R   0.953806 0.831128 0.296760 -0.267421
C358  C     C_R   0.703322 0.167759 0.954251 -0.264563
C359  C     C_R   0.332385 0.795397 0.045856 -0.264467
C360  C     C_R   0.953806 0.203239 0.331126 -0.267430
C361  C     C_R   0.046194 0.831125 0.703236 -0.267432
C362  C     C_R   0.296677 0.167759 0.045749 -0.264561
C363  C     C_R   0.752810 0.389905 0.252882 0.790073
C364  C     C_R   0.667617 0.795402 0.954144 -0.264465
C365  C     C_R   0.046194 0.796761 0.331126 -0.267431
C366  C     C_R   0.953804 0.168872 0.703247 -0.267414
C367  C     C_R   0.703325 0.832242 0.045750 -0.264562
C368  C     C_R   0.332384 0.204600 0.954143 -0.264466
C369  C     C_R   0.953805 0.796758 0.668872 -0.267432
C370  C     C_R   0.046195 0.168874 0.296762 -0.267435
C371  C     C_R   0.296677 0.832241 0.954251 -0.264554
C372  C     C_R   0.667616 0.204601 0.045856 -0.264462
C373  C     C_R   0.203324 0.332242 0.954250 -0.264563
C374  C     C_R   0.610064 0.250000 0.250000 0.792918
C375  C     C_R   0.832384 0.704601 0.045857 -0.264463
C376  C     C_R   0.203328 0.045750 0.332244 -0.264559
C377  C     C_R   0.832382 0.954144 0.704599 -0.264466
C378  C     C_R   0.203323 0.667758 0.045749 -0.264564
C379  C     C_R   0.832385 0.295398 0.954143 -0.264464
C380  C     C_R   0.203320 0.954251 0.667761 -0.264564
C381  C     C_R   0.832387 0.045857 0.295395 -0.264464
C382  C     C_R   0.796678 0.667759 0.954251 -0.264563
C383  C     C_R   0.167616 0.295399 0.045855 -0.264462
C384  C     C_R   0.796681 0.954251 0.332239 -0.264561
H1    H     H_    0.579888 0.652295 0.718534 0.203096
H2    H     H_    0.420116 0.718526 0.652298 0.203097
H3    H     H_    0.718964 0.349647 0.579179 0.198087
H4    H     H_    0.349243 0.720737 0.420671 0.196908
H5    H     H_    0.420111 0.347704 0.718529 0.203099
H6    H     H_    0.579889 0.718528 0.347703 0.203101
H7    H     H_    0.281029 0.349650 0.420820 0.198082
H8    H     H_    0.650760 0.720723 0.579330 0.196916
H9    H     H_    0.650759 0.579330 0.279274 0.196914
H10   H     H_    0.281037 0.420822 0.650352 0.198085
H11   H     H_    0.650758 0.420669 0.720731 0.196911
H12   H     H_    0.420112 0.281471 0.347704 0.203099
H13   H     H_    0.281030 0.579181 0.349649 0.198084
H14   H     H_    0.349241 0.420670 0.279276 0.196915
H15   H     H_    0.718966 0.579178 0.650352 0.198084
H16   H     H_    0.349243 0.579332 0.720733 0.196911
H17   H     H_    0.718969 0.420820 0.349649 0.198084
H18   H     H_    0.079887 0.218519 0.652298 0.203105
H19   H     H_    0.920112 0.847706 0.281470 0.203093
H20   H     H_    0.718967 0.150351 0.920821 0.198084
H21   H     H_    0.349241 0.779270 0.079330 0.196913
H22   H     H_    0.920112 0.218527 0.347703 0.203100
H23   H     H_    0.718973 0.650350 0.420820 0.198081
H24   H     H_    0.079886 0.847702 0.718524 0.203101
H25   H     H_    0.281032 0.150352 0.079179 0.198084
H26   H     H_    0.650759 0.779275 0.920670 0.196915
H27   H     H_    0.079887 0.781472 0.347703 0.203099
H28   H     H_    0.920114 0.152295 0.718544 0.203086
H29   H     H_    0.718970 0.849649 0.079180 0.198083
H30   H     H_    0.349242 0.220727 0.920669 0.196914
H31   H     H_    0.920112 0.781469 0.652296 0.203098
H32   H     H_    0.079889 0.152297 0.281475 0.203103
H33   H     H_    0.281031 0.849649 0.920820 0.198081
H34   H     H_    0.349242 0.279276 0.579330 0.196914
H35   H     H_    0.650758 0.220729 0.079330 0.196912
H36   H     H_    0.218968 0.349649 0.920820 0.198084
H37   H     H_    0.849242 0.720728 0.079331 0.196913
H38   H     H_    0.218974 0.079181 0.349650 0.198081
H39   H     H_    0.849241 0.920670 0.720726 0.196914
H40   H     H_    0.218968 0.650351 0.079180 0.198084
H41   H     H_    0.849243 0.279270 0.920669 0.196912
H42   H     H_    0.218964 0.920821 0.650353 0.198086
H43   H     H_    0.849243 0.079332 0.279269 0.196912
H44   H     H_    0.781033 0.650352 0.920821 0.198085
H45   H     H_    0.420113 0.652297 0.281476 0.203102
H46   H     H_    0.150758 0.279272 0.079330 0.196913
H47   H     H_    0.781036 0.920821 0.349647 0.198086
H48   H     H_    0.150757 0.079331 0.720732 0.196910
H49   H     H_    0.781034 0.349648 0.079179 0.198085
H50   H     H_    0.150758 0.720727 0.920670 0.196913
H51   H     H_    0.781028 0.079179 0.650351 0.198082
H52   H     H_    0.150760 0.920670 0.279278 0.196916
H53   H     H_    0.281036 0.079180 0.849648 0.198085
H54   H     H_    0.650758 0.920670 0.220729 0.196912
H55   H     H_    0.079887 0.652297 0.781477 0.203101
H56   H     H_    0.579887 0.281474 0.652296 0.203098
H57   H     H_    0.920111 0.281470 0.152296 0.203099
H58   H     H_    0.718969 0.920820 0.849648 0.198083
H59   H     H_    0.349241 0.079331 0.220725 0.196915
H60   H     H_    0.920112 0.347706 0.781469 0.203096
H61   H     H_    0.079888 0.718526 0.152297 0.203101
H62   H     H_    0.718969 0.079179 0.150352 0.198084
H63   H     H_    0.349243 0.920669 0.779268 0.196911
H64   H     H_    0.920112 0.652297 0.218527 0.203101
H65   H     H_    0.079887 0.281478 0.847700 0.203104
H66   H     H_    0.281030 0.920820 0.150352 0.198084
H67   H     H_    0.281037 0.650349 0.579180 0.198082
H68   H     H_    0.650758 0.079331 0.779274 0.196913
H69   H     H_    0.079887 0.347702 0.218524 0.203102
H70   H     H_    0.920112 0.718531 0.847704 0.203098
H71   H     H_    0.579887 0.152297 0.218524 0.203101
H72   H     H_    0.420112 0.781473 0.847703 0.203101
H73   H     H_    0.150759 0.220726 0.420671 0.196913
H74   H     H_    0.781033 0.849648 0.579178 0.198084
H75   H     H_    0.420112 0.152296 0.781472 0.203099
H76   H     H_    0.579887 0.781473 0.152297 0.203100
H77   H     H_    0.849239 0.220725 0.579332 0.196918
H78   H     H_    0.650757 0.279269 0.420668 0.196912
H79   H     H_    0.218962 0.849647 0.420822 0.198086
H80   H     H_    0.579887 0.847703 0.781473 0.203100
H81   H     H_    0.420112 0.218530 0.152296 0.203099
H82   H     H_    0.150755 0.779268 0.579332 0.196909
H83   H     H_    0.781030 0.150351 0.420820 0.198083
H84   H     H_    0.420112 0.847704 0.218528 0.203098
H85   H     H_    0.579887 0.218526 0.847704 0.203099
H86   H     H_    0.849242 0.779271 0.420669 0.196913
H87   H     H_    0.218971 0.150352 0.579181 0.198084
H88   H     H_    0.218969 0.579179 0.849649 0.198083
H89   H     H_    0.579887 0.347702 0.281474 0.203101
H90   H     H_    0.849243 0.420668 0.220727 0.196914
H91   H     H_    0.218970 0.420819 0.150351 0.198084
H92   H     H_    0.849242 0.579331 0.779270 0.196912
H93   H     H_    0.781035 0.420821 0.849648 0.198085
H94   H     H_    0.150758 0.579330 0.220726 0.196913
H95   H     H_    0.781033 0.579179 0.150353 0.198086
H96   H     H_    0.150758 0.420670 0.779271 0.196912
O1    O     O_3   0.750000 0.750000 0.750000 -0.503099
O2    O     O_R   0.280360 0.365810 0.280360 -0.642234
O3    O     O_R   0.780360 0.780360 0.634190 -0.640235
O4    O     O_R   0.219640 0.780360 0.365810 -0.640238
O5    O     O_R   0.780360 0.219640 0.634190 -0.642235
O6    O     O_R   0.780360 0.780360 0.365810 -0.642233
O7    O     O_R   0.219640 0.219640 0.634190 -0.640236
O8    O     O_R   0.719640 0.634190 0.280360 -0.642233
O9    O     O_R   0.280360 0.365810 0.719640 -0.640238
O10   O     O_R   0.280360 0.634190 0.280360 -0.640235
O11   O     O_R   0.719640 0.365810 0.719640 -0.642232
O12   O     O_R   0.280360 0.634190 0.719640 -0.642234
O13   O     O_R   0.719640 0.365810 0.280360 -0.640235
O14   O     O_R   0.634190 0.280360 0.280360 -0.645241
O15   O     O_R   0.365810 0.719640 0.719640 -0.645240
O16   O     O_R   0.634190 0.719640 0.280360 -0.645242
O17   O     O_3   0.250000 0.250000 0.250000 -0.503099
O18   O     O_R   0.365810 0.280360 0.719640 -0.645243
O19   O     O_R   0.634190 0.719640 0.719640 -0.645239
O20   O     O_R   0.365810 0.280360 0.280360 -0.645241
O21   O     O_R   0.634190 0.280360 0.719640 -0.645240
O22   O     O_R   0.365810 0.719640 0.280360 -0.645240
O23   O     O_R   0.280360 0.719640 0.365810 -0.642228
O24   O     O_R   0.719640 0.280360 0.634190 -0.640237
O25   O     O_R   0.719640 0.719640 0.365810 -0.640234
O26   O     O_R   0.280360 0.280360 0.634190 -0.642235
O27   O     O_R   0.719640 0.280360 0.365810 -0.642232
O28   O     O_3   0.750000 0.750000 0.250000 -0.503099
O29   O     O_R   0.280360 0.719640 0.634190 -0.640237
O30   O     O_R   0.280360 0.280360 0.365810 -0.640234
O31   O     O_R   0.719640 0.719640 0.634190 -0.642235
O32   O     O_R   0.219640 0.134190 0.719640 -0.642231
O33   O     O_R   0.780360 0.865810 0.280360 -0.640238
O34   O     O_R   0.719640 0.134190 0.780360 -0.642235
O35   O     O_R   0.280360 0.865810 0.219640 -0.640235
O36   O     O_R   0.780360 0.134190 0.280360 -0.642233
O37   O     O_R   0.219640 0.865810 0.719640 -0.640236
O38   O     O_R   0.280360 0.134190 0.219640 -0.642234
O39   O     O_3   0.250000 0.250000 0.750000 -0.503098
O40   O     O_R   0.719640 0.865810 0.780360 -0.640236
O41   O     O_R   0.219640 0.865810 0.280360 -0.642236
O42   O     O_R   0.780360 0.134190 0.719640 -0.640232
O43   O     O_R   0.719640 0.865810 0.219640 -0.642232
O44   O     O_R   0.280360 0.134190 0.780360 -0.640238
O45   O     O_R   0.780360 0.865810 0.719640 -0.642234
O46   O     O_R   0.219640 0.134190 0.280360 -0.640235
O47   O     O_R   0.280360 0.865810 0.780360 -0.642231
O48   O     O_R   0.719640 0.134190 0.219640 -0.640236
O49   O     O_R   0.134190 0.280360 0.780360 -0.645243
O50   O     O_3   0.250000 0.750000 0.250000 -0.503099
O51   O     O_R   0.865810 0.719640 0.219640 -0.645243
O52   O     O_R   0.134190 0.219640 0.280360 -0.645243
O53   O     O_R   0.865810 0.780360 0.719640 -0.645240
O54   O     O_R   0.134190 0.719640 0.219640 -0.645243
O55   O     O_R   0.865810 0.280360 0.780360 -0.645240
O56   O     O_R   0.134190 0.780360 0.719640 -0.645242
O57   O     O_R   0.865810 0.219640 0.280360 -0.645241
O58   O     O_R   0.865810 0.719640 0.780360 -0.645240
O59   O     O_R   0.134190 0.280360 0.219640 -0.645242
O60   O     O_R   0.865810 0.780360 0.280360 -0.645240
O61   O     O_3   0.750000 0.250000 0.750000 -0.503099
O62   O     O_R   0.134190 0.219640 0.719640 -0.645244
O63   O     O_R   0.865810 0.280360 0.219640 -0.645241
O64   O     O_R   0.134190 0.719640 0.780360 -0.645242
O65   O     O_R   0.865810 0.219640 0.719640 -0.645234
O66   O     O_R   0.134190 0.780360 0.280360 -0.645241
O67   O     O_R   0.280360 0.219640 0.865810 -0.642235
O68   O     O_R   0.719640 0.780360 0.134190 -0.640235
O69   O     O_R   0.219640 0.719640 0.865810 -0.642233
O70   O     O_R   0.780360 0.280360 0.134190 -0.640236
O71   O     O_R   0.719640 0.780360 0.865810 -0.642234
O72   O     O_3   0.250000 0.750000 0.750000 -0.503098
O73   O     O_R   0.280360 0.219640 0.134190 -0.640235
O74   O     O_R   0.780360 0.280360 0.865810 -0.642233
O75   O     O_R   0.219640 0.719640 0.134190 -0.640236
O76   O     O_R   0.719640 0.219640 0.134190 -0.642232
O77   O     O_R   0.280360 0.780360 0.865810 -0.640236
O78   O     O_R   0.780360 0.719640 0.134190 -0.642234
O79   O     O_R   0.219640 0.280360 0.865810 -0.640235
O80   O     O_R   0.280360 0.780360 0.134190 -0.642231
O81   O     O_R   0.719640 0.219640 0.865810 -0.640236
O82   O     O_R   0.219640 0.280360 0.134190 -0.642233
O83   O     O_3   0.750000 0.250000 0.250000 -0.503099
O84   O     O_R   0.780360 0.719640 0.865810 -0.640236
O85   O     O_R   0.219640 0.634190 0.219640 -0.642234
O86   O     O_R   0.780360 0.365810 0.780360 -0.640237
O87   O     O_R   0.219640 0.634190 0.780360 -0.640236
O88   O     O_R   0.780360 0.365810 0.219640 -0.642234
O89   O     O_R   0.780360 0.634190 0.780360 -0.642232
O90   O     O_R   0.219640 0.365810 0.219640 -0.640235
O91   O     O_R   0.780360 0.634190 0.219640 -0.640236
O92   O     O_R   0.219640 0.365810 0.780360 -0.642232
O93   O     O_R   0.634190 0.780360 0.780360 -0.645242
O94   O     O_R   0.719640 0.634190 0.719640 -0.640236
O95   O     O_R   0.365810 0.219640 0.219640 -0.645241
O96   O     O_R   0.634190 0.219640 0.780360 -0.645242
O97   O     O_R   0.365810 0.780360 0.219640 -0.645240
O98   O     O_R   0.634190 0.219640 0.219640 -0.645242
O99   O     O_R   0.365810 0.780360 0.780360 -0.645242
O100  O     O_R   0.634190 0.780360 0.219640 -0.645241
O101  O     O_R   0.365810 0.219640 0.780360 -0.645241
O102  O     O_R   0.780360 0.219640 0.365810 -0.640235
O103  O     O_R   0.219640 0.780360 0.634190 -0.642230
O104  O     O_R   0.219640 0.219640 0.365810 -0.642233
Zn1   Zn    Zn3+2 0.706630 0.793370 0.793370 0.974819
Zn2   Zn    Zn3+2 0.293370 0.793370 0.793370 0.974820
Zn3   Zn    Zn3+2 0.793370 0.206630 0.706630 0.974823
Zn4   Zn    Zn3+2 0.206630 0.793370 0.293370 0.974817
Zn5   Zn    Zn3+2 0.293370 0.206630 0.793370 0.974817
Zn6   Zn    Zn3+2 0.706630 0.793370 0.206630 0.974820
Zn7   Zn    Zn3+2 0.206630 0.206630 0.293370 0.974819
Zn8   Zn    Zn3+2 0.793370 0.793370 0.706630 0.974820
Zn9   Zn    Zn3+2 0.793370 0.706630 0.206630 0.974818
Zn10  Zn    Zn3+2 0.206630 0.293370 0.793370 0.974819
Zn11  Zn    Zn3+2 0.793370 0.293370 0.793370 0.974818
Zn12  Zn    Zn3+2 0.293370 0.206630 0.206630 0.974819
Zn13  Zn    Zn3+2 0.206630 0.706630 0.206630 0.974818
Zn14  Zn    Zn3+2 0.206630 0.293370 0.206630 0.974819
Zn15  Zn    Zn3+2 0.793370 0.706630 0.793370 0.974820
Zn16  Zn    Zn3+2 0.206630 0.706630 0.793370 0.974818
Zn17  Zn    Zn3+2 0.793370 0.293370 0.206630 0.974818
Zn18  Zn    Zn3+2 0.706630 0.293370 0.293370 0.974820
Zn19  Zn    Zn3+2 0.293370 0.706630 0.706630 0.974817
Zn20  Zn    Zn3+2 0.293370 0.293370 0.293370 0.974819
Zn21  Zn    Zn3+2 0.706630 0.706630 0.706630 0.974819
Zn22  Zn    Zn3+2 0.293370 0.293370 0.706630 0.974817
Zn23  Zn    Zn3+2 0.793370 0.793370 0.293370 0.974818
Zn24  Zn    Zn3+2 0.706630 0.706630 0.293370 0.974820
Zn25  Zn    Zn3+2 0.706630 0.293370 0.706630 0.974819
Zn26  Zn    Zn3+2 0.293370 0.706630 0.293370 0.974823
Zn27  Zn    Zn3+2 0.206630 0.206630 0.706630 0.974819
Zn28  Zn    Zn3+2 0.293370 0.793370 0.206630 0.974822
Zn29  Zn    Zn3+2 0.706630 0.206630 0.793370 0.974817
Zn30  Zn    Zn3+2 0.206630 0.793370 0.706630 0.974819
Zn31  Zn    Zn3+2 0.793370 0.206630 0.293370 0.974819
Zn32  Zn    Zn3+2 0.706630 0.206630 0.206630 0.974819

loop_
_geom_bond_atom_site_label_1
_geom_bond_atom_site_label_2
_ccdc_geom_bond_type
C221  C230  A    
C10   C238  A    
C301  O66   A    
O10   Zn26  S    
Br60  C88   S    
C374  O98   A    
C3    C108  A    
C44   C151  A    
C92   C369  A    
C375  H37   S    
C58   C65   A    
O83   Zn31  S    
C250  C272  A    
C94   C371  A    
C29   C136  A    
C44   H90   S    
C221  C314  A    
C85   C91   A    
C327  O74   A    
C88   C366  A    
O87   Zn16  S    
C151  C156  A    
C146  O30   A    
C210  C214  A    
C112  C286  S    
C81   C95   A    
C243  C278  A    
C38   H83   S    
O78   Zn9   S    
O74   Zn11  S    
C210  C313  A    
C230  C313  A    
O98   Zn32  S    
Br58  C99   S    
C99   C377  A    
C45   C152  A    
C97   C105  A    
Br55  C84   S    
C30   C137  A    
C235  O46   A    
C50   C258  A    
Br2   C133  S    
O93   Zn1   S    
O62   Zn27  S    
C137  C147  A    
Br37  C89   S    
C198  C361  A    
C8    H53   S    
C13   O16   A    
O56   Zn30  S    
C22   H68   S    
C135  O103  A    
O14   Zn18  S    
C181  C287  A    
Br42  C125  S    
C343  H5    S    
O75   Zn13  S    
C364  H26   S    
C351  H14   S    
C57   O21   A    
C30   C253  A    
C202  C308  A    
Br59  C98   S    
C361  H24   S    
Br10  C158  S    
C13   C270  S    
O85   Zn13  S    
C324  O76   A    
C32   C251  A    
C32   H77   S    
C38   C245  A    
O55   Zn11  S    
C71   C348  A    
C320  O63   A    
C222  C238  A    
O6    Zn23  S    
C331  H12   S    
C328  O80   A    
Br8   C136  S    
C345  H7    S    
C54   C332  A    
C48   H93   S    
C213  C298  A    
C169  C275  A    
C160  C338  A    
C74   C351  A    
C78   C88   A    
Br79  C64   S    
C268  C300  S    
C219  C376  A    
C322  O78   A    
C10   H55   S    
Br15  C153  S    
C220  C231  A    
C236  C316  A    
C251  C273  A    
C86   C89   A    
C216  C308  A    
C90   C273  S    
C14   C120  A    
C120  C128  A    
C166  C273  A    
C132  C142  A    
C45   H91   S    
C6    C206  A    
C85   C362  A    
O3    Zn8   S    
C244  C280  A    
O44   Zn5   S    
O72   Zn16  S    
Br68  C111  S    
O39   Zn22  S    
Br18  C127  S    
Br20  C102  S    
C341  O11   A    
C201  O41   A    
Br77  C63   S    
C172  C335  A    
C206  C310  A    
C62   C339  A    
O1    Zn21  S    
Br52  C128  S    
C290  O58   A    
C325  O84   A    
C98   C376  A    
C103  C108  A    
C330  O10   A    
C186  C365  A    
C157  O3    A    
C133  C141  A    
Br95  C70   S    
C289  C319  S    
C348  H10   S    
Br46  C85   S    
C165  C272  A    
O54   Zn13  S    
C211  C375  A    
C208  C216  A    
C357  H19   S    
C47   C153  A    
C46   C274  S    
O17   Zn12  S    
C212  O36   A    
C77   C355  A    
C136  C148  A    
C215  C380  A    
C46   O20   A    
C372  H35   S    
C293  C301  S    
C25   C131  A    
Br39  C119  S    
C95   C372  A    
C358  H20   S    
C39   C145  A    
C20   C127  A    
C376  H38   S    
Br73  C67   S    
C135  O29   A    
C219  C317  A    
C323  O69   A    
C181  C350  A    
Br29  C97   S    
C201  C309  S    
O103  Zn30  S    
C3    C209  A    
C298  C321  S    
C18   C125  A    
C100  C110  A    
C2    O15   A    
C12   C119  A    
C307  C328  S    
Br80  C52   S    
C246  O45   A    
C237  C306  A    
Br27  C122  S    
C1    C285  S    
C16   H61   S    
C239  C274  A    
C304  C326  S    
C42   C149  A    
C16   C122  A    
C326  O82   A    
C312  O55   A    
C30   H75   S    
Br66  C114  S    
C338  H89   S    
C320  O57   A    
O60   Zn23  S    
C72   C349  A    
C166  C340  A    
Br7   C134  S    
C65   C343  A    
C199  C360  A    
C66   C344  A    
C242  C254  A    
O41   Zn4   S    
C17   H62   S    
O4    Zn4   S    
C139  C144  A    
C96   C373  A    
C19   C126  A    
C19   H64   S    
C380  H42   S    
C2    O99   A    
C245  C251  A    
O45   Zn8   S    
C322  O68   A    
C189  C370  A    
C161  C346  A    
O83   Zn17  S    
O81   Zn29  S    
C153  C154  A    
C9    C116  A    
C318  O56   A    
C101  C282  S    
C365  H27   S    
Br41  C81   S    
C176  C283  A    
O30   Zn20  S    
C31   C252  A    
O59   Zn14  S    
Br86  C54   S    
C183  C348  A    
C241  C255  A    
Br81  C53   S    
C5    H50   S    
C346  H8    S    
O22   Zn26  S    
C352  O87   A    
C212  C314  S    
Br54  C107  S    
C243  C253  A    
C35   O93   A    
C36   C142  A    
C353  H15   S    
C238  C305  A    
C34   H80   S    
C45   C262  A    
O7    Zn27  S    
C186  C194  A    
C72   C75   A    
C103  C380  A    
C83   C93   A    
C258  C291  A    
C100  C378  A    
C299  C322  S    
C26   C249  A    
C279  O59   A    
C191  C297  A    
C40   C243  A    
C112  O2    A    
C63   C340  A    
C12   H58   S    
O28   Zn23  S    
Br70  C92   S    
C363  O88   A    
C67   C345  A    
Br3   C139  S    
Br6   C138  S    
C226  C236  A    
Br21  C100  S    
C174  C281  A    
O18   Zn22  S    
C178  C353  A    
Br4   C140  S    
O70   Zn17  S    
C46   O95   A    
Br19  C126  S    
C368  H30   S    
O17   Zn14  S    
Br50  C94   S    
C16   C232  A    
C24   O101  A    
C334  H45   S    
C35   O19   A    
Br13  C155  S    
C337  H78   S    
C319  O9    A    
C225  C237  A    
C209  C311  A    
Br26  C105  S    
C18   C220  A    
C223  O8    A    
O94   Zn21  S    
C360  H22   S    
C52   C62   A    
O28   Zn6   S    
C228  C233  A    
O67   Zn5   S    
C241  C281  A    
C90   O24   A    
C223  C291  S    
C78   C356  A    
C43   C264  A    
C381  H43   S    
C98   C114  A    
C382  H44   S    
C15   H60   S    
C23   H69   S    
C76   C354  A    
C191  C369  A    
C26   C132  A    
C179  O33   A    
C12   C236  A    
O68   Zn6   S    
C347  H9    S    
C2    C265  S    
C58   C335  A    
Br82  C59   S    
O11   Zn25  S    
C204  C211  A    
O58   Zn15  S    
Br32  C130  S    
C256  C264  A    
O72   Zn19  S    
C101  O6    A    
C86   C364  A    
C172  C278  A    
C24   C271  S    
C171  C277  A    
O29   Zn19  S    
C165  C342  A    
O53   Zn8   S    
C44   C263  A    
O26   Zn22  S    
C48   C260  A    
C40   C147  A    
C31   H76   S    
C295  C323  S    
O24   Zn25  S    
C49   C155  A    
O23   Zn26  S    
O72   Zn2   S    
O88   Zn17  S    
C13   O100  A    
C163  C173  A    
C91   C368  A    
C214  C314  A    
C235  O38   A    
C4    C109  A    
O80   Zn28  S    
C200  C359  A    
C47   H92   S    
C55   C67   A    
C140  C143  A    
C283  C363  S    
Br75  C65   S    
O39   Zn10  S    
C56   C334  A    
C15   C233  A    
C339  H2    S    
C217  C307  A    
C319  O92   A    
C367  H29   S    
C333  H34   S    
C240  C248  A    
C186  C293  A    
C159  C339  A    
C47   C261  A    
C9    H54   S    
C290  C297  S    
C194  C357  A    
C232  C293  A    
C53   C61   A    
C73   C350  A    
C229  C300  A    
O84   Zn15  S    
O90   Zn14  S    
Br67  C143  S    
C9    C230  A    
C175  C332  A    
C205  C309  A    
Br85  C58   S    
C200  C307  A    
C222  C297  A    
C160  C266  A    
C68   O97   A    
C56   C66   A    
C50   H95   S    
O28   Zn9   S    
O31   Zn21  S    
O36   Zn31  S    
O28   Zn24  S    
C124  C276  S    
C204  C382  A    
C180  C181  A    
C84   C361  A    
O96   Zn29  S    
C330  O85   A    
C21   C128  A    
C37   C143  A    
C354  H16   S    
C29   C254  A    
C242  C282  A    
C23   C130  A    
C256  C289  A    
O104  Zn7   S    
C325  O71   A    
C34   C141  A    
C121  C127  A    
Br28  C121  S    
C29   H74   S    
C197  C304  A    
O2    Zn20  S    
Br65  C78   S    
C227  C309  A    
C17   C221  A    
C279  O52   A    
C42   C241  A    
C169  C329  A    
C263  C283  A    
C180  C351  A    
C203  C304  A    
O52   Zn7   S    
C35   C275  S    
C27   C248  A    
C287  C330  S    
C215  C315  A    
C210  C384  A    
C113  O7    A    
O50   Zn28  S    
C101  O25   A    
O17   Zn7   S    
C208  C294  A    
C174  C333  A    
C167  C331  A    
C81   C358  A    
C178  C285  A    
C68   C280  S    
C218  C377  A    
C306  C320  S    
C217  C378  A    
Br17  C151  S    
C257  O49   A    
C124  O102  A    
C193  C196  A    
C378  H40   S    
C7    C114  A    
O5    Zn3   S    
O79   Zn10  S    
C246  C316  S    
O102  Zn31  S    
O57   Zn31  S    
C84   C92   A    
O92   Zn10  S    
C193  C367  A    
Br93  C72   S    
O66   Zn4   S    
C23   C225  A    
C79   O23   A    
O61   Zn11  S    
Br78  C144  S    
C197  C362  A    
O100  Zn6   S    
C33   C250  A    
C161  C175  A    
C192  C368  A    
C366  H28   S    
C163  C344  A    
C190  O34   A    
O17   Zn20  S    
O72   Zn30  S    
C234  C317  A    
C25   H70   S    
C57   C278  S    
C235  C317  S    
C32   C139  A    
O49   Zn10  S    
C233  C292  A    
C223  O91   A    
C178  C182  A    
C146  O104  A    
C206  C218  A    
C102  C109  A    
C42   H87   S    
O16   Zn24  S    
C252  C270  A    
O83   Zn32  S    
C350  H13   S    
O39   Zn27  S    
C323  O77   A    
Br71  C61   S    
O65   Zn3   S    
C341  O86   A    
C266  C374  S    
Br11  C154  S    
O82   Zn14  S    
C33   C140  A    
C73   C74   A    
C79   O4    A    
C202  C358  A    
Br9   C156  S    
C335  H56   S    
C383  H46   S    
C255  C269  A    
C113  C281  S    
C254  C267  A    
Br57  C83   S    
C60   C337  A    
C214  C381  A    
C26   H71   S    
C159  C169  A    
C209  C215  A    
O35   Zn28  S    
C28   H73   S    
O97   Zn28  S    
O1    Zn1   S    
C119  C129  A    
C179  O43   A    
C40   H85   S    
C253  C271  A    
O50   Zn4   S    
C192  C298  A    
C117  C131  A    
C207  C217  A    
C89   C367  A    
O69   Zn16  S    
C224  C315  S    
Br48  C115  S    
O61   Zn25  S    
C41   C242  A    
Br34  C149  S    
Br96  C71   S    
O34   Zn29  S    
C227  C234  A    
C192  C197  A    
O12   Zn19  S    
C195  C356  A    
C82   C94   A    
Br49  C95   S    
C104  C381  A    
O27   Zn18  S    
C371  H33   S    
C93   C370  A    
C373  H36   S    
C24   O18   A    
C292  C312  S    
C157  C267  S    
C11   C237  A    
C185  C366  A    
Br44  C86   S    
C3    H48   S    
C112  O90   A    
C173  C280  A    
C36   C239  A    
C25   C222  A    
C48   C154  A    
C205  C219  A    
C70   C77   A    
O50   Zn26  S    
C207  C295  A    
C379  H41   S    
C187  C294  A    
O19   Zn21  S    
C245  C276  A    
Br43  C123  S    
C288  C341  S    
Br89  C132  S    
C201  O35   A    
C165  C171  A    
C71   C76   A    
C264  C284  A    
C116  C123  A    
C260  C261  A    
O50   Zn13  S    
C150  C158  A    
C340  H3    S    
C279  C296  S    
C247  C277  A    
Br36  C91   S    
C1    O94   A    
C57   O96   A    
Br64  C80   S    
O76   Zn32  S    
C220  C315  A    
Br62  C104  S    
C176  C355  A    
C369  H31   S    
C248  C265  A    
C49   C259  A    
C184  C291  A    
O73   Zn12  S    
C193  C299  A    
C22   C226  A    
C194  C300  A    
O77   Zn2   S    
O63   Zn17  S    
O71   Zn1   S    
C164  C343  A    
O61   Zn3   S    
C8    C231  A    
C239  C249  A    
C362  H25   S    
C99   C111  A    
C160  C167  A    
C50   C156  A    
C308  C327  S    
C224  O47   A    
C14   H59   S    
C163  C270  A    
Br23  C148  S    
C43   C150  A    
O101  Zn5   S    
O48   Zn32  S    
C321  O79   A    
O38   Zn12  S    
O91   Zn9   S    
C324  O70   A    
O86   Zn11  S    
C37   C247  A    
C59   C336  A    
C80   C87   A    
Br88  C76   S    
Br12  C142  S    
C162  C269  A    
C4    C208  A    
C377  H39   S    
C175  C282  A    
Br31  C131  S    
C188  C295  A    
C363  O13   A    
O42   Zn3   S    
C162  C174  A    
Br76  C66   S    
O64   Zn16  S    
O95   Zn12  S    
C14   C234  A    
O21   Zn25  S    
C321  O67   A    
C52   C329  A    
C198  C305  A    
O46   Zn7   S    
C188  C371  A    
Br90  C77   S    
C171  C336  A    
C177  C183  A    
O15   Zn19  S    
C184  C347  A    
C105  C382  A    
C167  C274  A    
C203  C213  A    
C226  C310  A    
C104  C107  A    
Br94  C73   S    
C87   C365  A    
C190  C310  S    
C34   C240  A    
Br92  C75   S    
C258  C263  A    
O39   Zn5   S    
Br72  C62   S    
C183  C289  A    
Br1   C141  S    
C64   C342  A    
Br33  C110  S    
O99   Zn2   S    
C33   H79   S    
C55   C333  A    
C68   O22   A    
C53   C331  A    
C41   C148  A    
C164  C271  A    
C106  C383  A    
Br35  C109  S    
O32   Zn27  S    
C303  C325  S    
C51   C256  A    
O89   Zn15  S    
Br63  C103  S    
C257  O62   A    
Br51  C129  S    
C261  C285  A    
C228  C302  A    
C1    O89   A    
C49   H94   S    
C6    C111  A    
C80   C357  A    
C69   C346  A    
C152  C155  A    
C51   H96   S    
C327  O81   A    
C157  O31   A    
C301  O54   A    
C355  H17   S    
Br5   C137  S    
Br47  C116  S    
O13   Zn18  S    
C189  C199  A    
C177  C354  A    
C224  O37   A    
C124  O27   A    
C349  H11   S    
C113  O26   A    
C107  C384  A    
C122  C126  A    
Br14  C152  S    
C61   C338  A    
O83   Zn18  S    
C173  C334  A    
C257  C302  S    
C231  C311  A    
C37   H82   S    
Br61  C87   S    
Br53  C108  S    
C5    C207  A    
C290  O53   A    
C79   C272  S    
Br25  C106  S    
C5    C110  A    
Br69  C93   S    
C336  H67   S    
C359  H21   S    
O37   Zn30  S    
C259  C287  A    
Br83  C60   S    
C138  C145  A    
C332  H23   S    
C54   C69   A    
C356  H18   S    
C249  C266  A    
C229  C232  A    
C203  C383  A    
C82   C359  A    
C90   O5    A    
C180  C286  A    
C21   H66   S    
C22   C129  A    
C115  C125  A    
Br24  C117  S    
C177  C284  A    
C182  C288  A    
C102  C379  A    
C27   C133  A    
C240  C275  A    
O33   Zn23  S    
C36   H81   S    
C75   C353  A    
C246  O40   A    
C259  C262  A    
C39   C244  A    
O51   Zn9   S    
C182  C349  A    
C134  C149  A    
C196  C303  A    
C370  H32   S    
C135  C277  S    
C218  C316  A    
C161  C267  A    
C146  C269  S    
Br40  C82   S    
Br84  C56   S    
C268  O51   A    
Br56  C147  S    
C185  C195  A    
C7    H52   S    
Br30  C96   S    
Br22  C118  S    
O47   Zn2   S    
C329  H1    S    
C18   H63   S    
C164  C172  A    
C83   C360  A    
C212  O48   A    
C20   C228  A    
Br45  C145  S    
C20   H65   S    
C284  C352  S    
C170  C276  A    
O1    Zn15  S    
C10   C117  A    
Br74  C69   S    
C31   C138  A    
C213  C373  A    
C41   H86   S    
Br91  C74   S    
C59   C64   A    
C260  C288  A    
C170  C337  A    
C38   C144  A    
C374  O14   A    
C326  O73   A    
C60   C63   A    
C43   H88   S    
O9    Zn22  S    
Br38  C120  S    
C262  C286  A    
C166  C170  A    
C28   C255  A    
C188  C200  A    
C21   C227  A    
O43   Zn6   S    
Br16  C150  S    
C6    H51   S    
C196  C364  A    
C4    H49   S    
C51   C158  A    
C191  C198  A    
C352  O12   A    
C162  C345  A    
C344  H6    S    
O1    Zn8   S    
C268  O60   A    
C168  C311  S    
C190  O42   A    
C384  H47   S    
C15   C121  A    
C305  C318  S    
C19   C229  A    
C187  C202  A    
C342  H4    S    
C11   H57   S    
C11   C118  A    
C204  C303  A    
C179  C313  S    
C27   H72   S    
C168  O44   A    
C199  C306  A    
C187  C372  A    
O25   Zn24  S    
C294  C324  S    
C39   H84   S    
C97   C375  A    
C318  O64   A    
C168  O32   A    
C118  C130  A    
C159  C265  A    
C225  C296  A    
O20   Zn20  S    
C195  C302  A    
O61   Zn29  S    
C70   C347  A    
C328  O75   A    
C7    C205  A    
C189  C296  A    
O8    Zn24  S    
C176  C184  A    
C247  C250  A    
C96   C106  A    
Br87  C55   S    
C244  C252  A    
C8    C115  A    
C185  C292  A    
C312  O65   A    
C17   C123  A    
C216  C379  A    
C28   C134  A    
O40   Zn1   S    
C211  C299  A    
