data_mof_unit_27290.cif
_audit_creation_date              2012-12-11T14:17:51-0500
_audit_creation_method            fapswitch 2.2
_symmetry_space_group_name_H-M    P1
_symmetry_Int_Tables_number       1
_space_group_crystal_system       triclinic
_cell_length_a                    6.945905
_cell_length_b                    13.637437
_cell_length_c                    20.410657
_cell_angle_alpha                 102.155833
_cell_angle_beta                  89.898211
_cell_angle_gamma                 90.699497
_cell_volume                      1889.89517133

loop_
_atom_site_label
_atom_site_type_symbol
_atom_type_description
_atom_site_fract_x
_atom_site_fract_y
_atom_site_fract_z
_atom_type_partial_charge
O1    O     O_R   0.506860 0.599390 0.449240 -0.539334
O2    O     O_R   0.180220 0.594600 0.586780 -0.543246
O3    O     O_R   0.004500 0.400610 0.550760 -0.538719
C1    C     C_R   0.349024 0.616028 0.613474 0.741725
O4    O     O_R   0.177490 0.611290 0.451970 -0.541452
O5    O     O_R   0.001750 0.417420 0.414990 -0.539396
C2    C     C_R   0.347047 0.637846 0.435161 0.696206
O6    O     O_R   0.509610 0.582580 0.585010 -0.542880
O7    O     O_3   0.337420 0.436370 0.488020 -0.372412
V1    V     V_3+5 0.064680 0.511800 0.502220 1.419168
O8    O     O_R   0.671710 0.405400 0.413220 -0.546888
C3    C     C_R   0.839805 0.384079 0.386532 0.741115
O9    O     O_R   0.674440 0.388710 0.548030 -0.541501
C4    C     C_R   0.842431 0.362140 0.564832 0.696858
V2    V     V_3+5 0.564010 0.488200 0.497780 1.415393
O10   O     O_3   0.841140 0.563630 0.511980 -0.372794
C5    C     C_R   0.838700 0.111045 0.612498 -0.158567
H1    H     H_    0.830943 0.161254 0.519752 0.104269
H2    H     H_    0.839206 0.985685 0.695571 0.121449
H3    H     H_    0.831784 0.032671 0.587434 0.113001
C6    C     C_R   0.848113 0.285223 0.604905 -0.030994
C7    C     C_R   0.872482 0.315512 0.928742 -0.173355
C8    C     C_R   0.872855 0.391670 0.893050 -0.115305
C9    C     C_R   0.866606 0.368929 0.823248 -0.153219
C10   C     C_R   0.859621 0.268115 0.787002 0.074791
C11   C     C_R   0.857962 0.190319 0.824056 0.067962
C12   C     C_R   0.854443 0.241902 0.715391 0.072242
C13   C     C_R   0.846244 0.138900 0.682724 0.142618
C14   C     C_R   0.845009 0.064290 0.720198 -0.203634
C15   C     C_R   0.851075 0.089368 0.789667 -0.196794
C16   C     C_R   0.856511 0.314186 0.674786 -0.212940
C17   C     C_R   0.838609 0.183866 0.573859 -0.175352
C18   C     C_R   0.864610 0.215178 0.895031 -0.072429
H4    H     H_    0.862716 0.393610 0.695595 0.094785
H5    H     H_    0.878777 0.334848 0.982996 0.103757
H6    H     H_    0.867613 0.432200 0.799392 0.111271
H7    H     H_    0.878745 0.469208 0.919710 0.130101
H8    H     H_    0.850036 0.028518 0.816241 0.115703
C19   C     C_2   0.005385 0.288862 0.284969 -0.133814
C20   C     C_2   0.842218 0.315704 0.319753 -0.310806
H9    H     H_    0.142572 0.317505 0.306897 0.133798
H10   H     H_    0.703552 0.287543 0.299489 0.126206
C21   C     C_2   0.013690 0.220772 0.217351 -0.132977
C22   C     C_2   0.858537 0.183304 0.180355 -0.306005
H11   H     H_    0.156542 0.201635 0.197318 0.131435
H12   H     H_    0.714391 0.201648 0.198793 0.125787
C23   C     C_2   0.204592 0.790609 0.782423 -0.131396
C24   C     C_2   0.363659 0.815591 0.819974 -0.289233
H13   H     H_    0.066925 0.820777 0.801817 0.131093
H14   H     H_    0.502140 0.785741 0.801901 0.126591
C25   C     C_2   0.202864 0.722104 0.714918 -0.130290
C26   C     C_2   0.360984 0.684274 0.680230 -0.310456
H15   H     H_    0.061617 0.702973 0.692840 0.134271
H16   H     H_    0.504088 0.703003 0.700261 0.125537
C27   C     C_R   0.406567 0.886974 0.386661 -0.161175
H17   H     H_    0.403554 0.837050 0.479563 0.104687
H18   H     H_    0.433140 0.011193 0.303154 0.119017
H19   H     H_    0.430897 0.964583 0.411433 0.113670
C28   C     C_R   0.358974 0.714444 0.394880 -0.032102
C29   C     C_R   0.323395 0.684222 0.070443 0.345211
C30   C     C_R   0.306997 0.608741 0.107281 -0.205666
C31   C     C_R   0.319298 0.631600 0.176925 -0.202653
C32   C     C_R   0.348891 0.731413 0.212691 0.082459
C33   C     C_R   0.366955 0.808367 0.175331 -0.003792
C34   C     C_R   0.361044 0.757412 0.284235 0.087408
C35   C     C_R   0.392273 0.859419 0.316544 0.139469
C36   C     C_R   0.409550 0.933312 0.278815 -0.195176
C37   C     C_R   0.396892 0.908456 0.209453 -0.178438
C38   C     C_R   0.343788 0.685841 0.325119 -0.215571
C39   C     C_R   0.390764 0.814774 0.425556 -0.175405
C40   C     C_R   0.353751 0.783910 0.104385 -0.114845
H20   H     H_    0.319926 0.607163 0.304641 0.093667
H21   H     H_    0.304876 0.568947 0.201080 0.124955
H22   H     H_    0.283898 0.531357 0.081922 0.115694
H23   H     H_    0.411166 0.968882 0.182782 0.110476
O11   O     O_R   0.203230 0.917310 0.915020 -0.537495
O12   O     O_R   0.535500 0.888690 0.048040 -0.541703
O13   O     O_R   0.711080 0.082610 0.085000 -0.547748
C41   C     C_R   0.365975 0.862195 0.064914 0.766825
O14   O     O_R   0.532630 0.905370 0.913230 -0.547073
O15   O     O_R   0.708190 0.099410 0.949230 -0.541084
C42   C     C_R   0.364390 0.884170 0.886538 0.769416
O16   O     O_R   0.206120 0.900510 0.050790 -0.537404
O17   O     O_3   0.375360 0.063570 0.011990 -0.380215
V3    V     V_3+5 0.648170 0.988200 0.997780 1.435895
O18   O     O_R   0.038240 0.111390 0.951940 -0.543024
C43   C     C_R   0.870265 0.137724 0.935018 0.682622
O19   O     O_R   0.041120 0.094710 0.086750 -0.544950
C44   C     C_R   0.872485 0.115720 0.113524 0.737401
V4    V     V_3+5 0.148810 0.011930 0.002180 1.436613
O20   O     O_3   0.871750 0.936430 0.988010 -0.367884
O21   O     O_3   0.310049 0.662579 0.001316 -0.656554
H24   H     H_    0.288110 0.589426 0.985424 0.283525

loop_
_geom_bond_atom_site_label_1
_geom_bond_atom_site_label_2
_ccdc_geom_bond_type
C32   C34   A    
C1    O6    A    
C40   C41   S    
V3    O20   S    
C23   H13   S    
C37   H23   S    
C7    H5    S    
C6    C16   A    
C31   C32   A    
C1    C26   S    
C33   C37   A    
C4    C6    S    
C13   C14   A    
O5    C3    A    
V2    O10   S    
C5    H3    S    
C15   H8    S    
C33   C40   A    
O16   V4    S    
O8    V2    S    
C22   H12   S    
C8    C9    A    
C31   H21   S    
O1    V2    S    
C14   C15   A    
O7    V1    S    
C20   H10   S    
C35   C36   A    
O12   V3    S    
O9    C4    A    
O17   V4    S    
H18   C36   S    
C2    C28   S    
C26   H16   S    
O12   C41   A    
O13   C44   A    
C6    C17   A    
C12   C16   A    
C25   C26   D    
C9    C10   A    
O14   C42   A    
O18   V4    S    
O11   C42   A    
C19   C20   D    
O4    C2    A    
O18   C43   A    
C23   C25   S    
C29   C40   A    
C10   C11   A    
C8    H7    S    
C36   C37   A    
C29   C30   A    
C25   H15   S    
C3    C20   S    
C38   H20   S    
O2    C1    A    
C21   C22   D    
O14   V3    S    
C11   C18   A    
C23   C24   D    
C16   H4    S    
C9    H6    S    
O17   V3    S    
C21   H11   S    
O15   C43   A    
O3    C4    A    
C28   C38   A    
O13   V3    S    
O19   V4    S    
C11   C15   A    
O6    V2    S    
H17   C39   S    
O9    V2    S    
H1    C17   S    
O2    V1    S    
C27   C35   A    
C7    C18   A    
O1    C2    A    
C5    C13   A    
O5    V1    S    
C19   C21   S    
O8    C3    A    
C30   H22   S    
C10   C12   A    
O7    V2    S    
O4    V1    S    
O3    V1    S    
V1    O10   S    
C41   O16   A    
V4    O20   S    
C34   C38   A    
C24   H14   S    
O21   H24   S    
C24   C42   S    
C18   C43   S    
C30   C31   A    
C27   C39   A    
C28   C39   A    
C32   C33   A    
O19   C44   A    
C19   H9    S    
C34   C35   A    
C27   H19   S    
C12   C13   A    
C5    C17   A    
C7    C8    A    
C29   O21   S    
O15   V3    S    
C22   C44   S    
O11   V4    S    
H2    C14   S    
