data_mof_unit_13367.cif
_audit_creation_date              2012-12-11T16:51:30-0500
_audit_creation_method            fapswitch 2.2
_symmetry_space_group_name_H-M    P1
_symmetry_Int_Tables_number       1
_space_group_crystal_system       triclinic
_cell_length_a                    24.516075
_cell_length_b                    17.330576
_cell_length_c                    15.61269
_cell_angle_alpha                 90.059412
_cell_angle_beta                  129.153474
_cell_angle_gamma                 89.945591
_cell_volume                      5143.98139452

loop_
_atom_site_label
_atom_site_type_symbol
_atom_type_description
_atom_site_fract_x
_atom_site_fract_y
_atom_site_fract_z
_atom_type_partial_charge
C1    C     C_R   0.852674 0.856558 0.247754 -0.099847
C2    C     C_R   0.139505 0.185178 0.500853 0.112277
C3    C     C_1   0.609415 0.221571 0.361062 0.259693
C4    C     C_1   0.292987 0.896084 0.028317 0.146190
C5    C     C_1   0.797272 0.695023 0.217136 0.061336
C6    C     C_1   0.793304 0.395281 0.031990 0.145144
C7    C     C_1   0.207066 0.396258 0.971725 0.143423
C8    C     C_R   0.362529 0.686435 0.500611 0.110895
C9    C     C_R   0.638962 0.685844 0.502031 0.109059
C10   C     C_R   0.861604 0.150243 0.158131 0.038653
C11   C     C_R   0.137704 0.151535 0.840626 0.038387
C12   C     C_R   0.362243 0.651435 0.159377 0.038330
C13   C     C_R   0.648314 0.619785 0.867332 0.033053
C14   C     C_R   0.795504 0.800988 0.606533 0.002635
C15   C     C_R   0.207284 0.805555 0.394946 0.000387
C16   C     C_R   0.294858 0.303107 0.606709 0.001401
C17   C     C_R   0.164224 0.882963 0.792954 -0.114941
C18   C     C_R   0.705420 0.303924 0.392852 0.000830
C19   C     C_R   0.771510 0.844280 0.513347 -0.013893
C20   C     C_R   0.230709 0.847387 0.489025 -0.008356
C21   C     C_R   0.271169 0.344983 0.512605 -0.010969
C22   C     C_R   0.729029 0.345609 0.487154 -0.008457
C23   C     C_R   0.698806 0.852552 0.427764 -0.183828
C24   C     C_R   0.303312 0.853729 0.576520 -0.186202
C25   C     C_R   0.198544 0.352116 0.425793 -0.185031
C26   C     C_R   0.801636 0.352595 0.574117 -0.182843
C27   C     C_R   0.151517 0.305498 0.424743 0.457543
C28   C     C_R   0.335799 0.382954 0.207021 -0.113155
C29   C     C_R   0.848676 0.305894 0.575148 0.456204
C30   C     C_R   0.651698 0.806312 0.427053 0.459957
C31   C     C_R   0.350433 0.806853 0.577736 0.457408
C32   C     C_R   0.178800 0.250642 0.509728 -0.040606
C33   C     C_R   0.821414 0.251101 0.489992 -0.040578
C34   C     C_R   0.678856 0.750768 0.511193 -0.038048
C35   C     C_R   0.323351 0.752265 0.492296 -0.039709
C36   C     C_R   0.249706 0.255041 0.603303 -0.099537
C37   C     C_R   0.750574 0.255760 0.396233 -0.102852
C38   C     C_R   0.750159 0.753435 0.603467 -0.093016
C39   C     C_R   0.664418 0.383540 0.793725 -0.100985
C40   C     C_R   0.252435 0.757126 0.398574 -0.102601
C41   C     C_3   0.805059 0.691962 0.672291 0.236031
C42   C     C_3   0.196254 0.697670 0.325324 0.239812
C43   C     C_3   0.305552 0.195140 0.675710 0.237587
C44   C     C_3   0.694624 0.196107 0.323189 0.239276
C45   C     C_R   0.112704 0.896740 0.407043 -0.161072
C46   C     C_R   0.889149 0.893706 0.594326 -0.122943
C47   C     C_R   0.611258 0.394485 0.405984 -0.129901
C48   C     C_R   0.388841 0.394223 0.593989 -0.128567
C49   C     C_3   0.856582 0.746281 0.678691 0.223887
C50   C     C_R   0.908753 0.141519 0.591669 -0.033788
C51   C     C_3   0.145040 0.753159 0.318004 0.229974
C52   C     C_3   0.356833 0.250148 0.682627 0.222513
C53   C     C_3   0.643348 0.251237 0.316271 0.222775
C54   C     C_2   0.186370 0.821827 0.959608 0.447870
C55   C     C_2   0.865119 0.739949 0.160697 0.393094
C56   C     C_2   0.685744 0.321325 0.959276 0.448190
C57   C     C_2   0.313628 0.321803 0.040254 0.447372
C58   C     C_2   0.256836 0.831642 0.031691 -0.185434
C59   C     C_2   0.809711 0.701056 0.138002 -0.078721
C60   C     C_2   0.756212 0.330523 0.032156 -0.187475
C61   C     C_R   0.091232 0.141343 0.408199 -0.033932
C62   C     C_2   0.243157 0.331684 0.968265 -0.183790
C63   C     C_2   0.831129 0.219246 0.090353 -0.099867
C64   C     C_2   0.167966 0.220503 0.908766 -0.102509
C65   C     C_2   0.331928 0.720307 0.091156 -0.104377
C66   C     C_2   0.696674 0.638635 0.985142 -0.176909
C67   C     C_2   0.798770 0.269552 0.110405 -0.019300
C68   C     C_2   0.199926 0.271386 0.888785 -0.013016
C69   C     C_2   0.300018 0.771359 0.111167 -0.010442
C70   C     C_2   0.755666 0.676140 0.023521 -0.000327
C71   C     C_R   0.187094 0.893627 0.590595 -0.062125
C72   C     C_R   0.411372 0.642561 0.593105 -0.035734
C73   C     C_R   0.813281 0.893165 0.410468 -0.081128
C74   C     C_R   0.686638 0.392703 0.590015 -0.055659
C75   C     C_R   0.313447 0.392501 0.409921 -0.062958
C76   C     C_R   0.073685 0.885221 0.795797 -0.036949
C77   C     C_R   0.945156 0.856611 0.249684 -0.025365
C78   C     C_R   0.573593 0.385414 0.795829 -0.046937
C79   C     C_R   0.426336 0.385158 0.204173 -0.040006
C80   C     C_R   0.888397 0.813046 0.221848 -0.032830
C81   C     C_R   0.142615 0.860666 0.852633 -0.020514
C82   C     C_R   0.357411 0.360622 0.147308 -0.019847
C83   C     C_R   0.591012 0.641965 0.408916 -0.034991
C84   C     C_R   0.642600 0.361162 0.853106 -0.025058
C85   C     C_R   0.179423 0.876899 0.497027 0.087935
C86   C     C_R   0.822244 0.874206 0.504606 0.077991
C87   C     C_R   0.678054 0.374714 0.495840 0.071395
C88   C     C_R   0.322096 0.374324 0.504056 0.073542
C89   C     C_R   0.841115 0.144382 0.408434 -0.050559
C90   C     C_R   0.159015 0.144316 0.591422 -0.049661
C91   C     C_R   0.341950 0.644989 0.409449 -0.044922
C92   C     C_R   0.658391 0.644614 0.592445 -0.025609
C93   C     C_R   0.928567 0.121644 0.210759 -0.154829
C94   C     C_R   0.860606 0.185395 0.498961 0.114027
C95   C     C_R   0.071099 0.122195 0.788666 -0.168673
C96   C     C_R   0.428872 0.622089 0.211332 -0.169400
C97   C     C_R   0.577514 0.603113 0.804119 -0.159190
C98   C     C_R   0.163332 0.116794 0.793224 0.387432
C99   C     C_R   0.836283 0.115747 0.206006 0.393540
C100  C     C_R   0.667882 0.601344 0.803725 0.389925
C101  C     C_R   0.336653 0.616795 0.206822 0.387053
C102  C     C_1   0.887676 0.717184 0.629011 0.255121
C103  C     C_1   0.110588 0.723777 0.362112 0.249557
C104  C     C_1   0.390398 0.220559 0.637128 0.261753
Cl1   Cl    Cl    0.060912 0.313992 0.313396 -0.636464
Cl2   Cl    Cl    0.083255 0.793315 0.182833 -0.509548
Cl3   Cl    Cl    0.419538 0.289657 0.818031 -0.518015
Cl4   Cl    Cl    0.581015 0.291150 0.181088 -0.521566
Cl5   Cl    Cl    0.144109 0.752298 0.982614 -0.480109
Cl6   Cl    Cl    0.898256 0.717531 0.090090 -0.506460
Cl7   Cl    Cl    0.642801 0.250860 0.979723 -0.479377
Cl8   Cl    Cl    0.355836 0.252175 0.017077 -0.484635
Cl9   Cl    Cl    0.252821 0.097918 0.862338 -0.599032
Cl10  Cl    Cl    0.746983 0.095484 0.136881 -0.559725
Cl11  Cl    Cl    0.752793 0.573948 0.854141 -0.649699
Cl12  Cl    Cl    0.939253 0.314159 0.686720 -0.636201
Cl13  Cl    Cl    0.247177 0.598400 0.138214 -0.598585
Cl14  Cl    Cl    0.560985 0.816009 0.316963 -0.629202
Cl15  Cl    Cl    0.440896 0.815057 0.689643 -0.607131
Cl16  Cl    Cl    0.787683 0.602855 0.599328 -0.620526
Cl17  Cl    Cl    0.209800 0.607485 0.393835 -0.614129
Cl18  Cl    Cl    0.291121 0.104950 0.606546 -0.616653
Cl19  Cl    Cl    0.708582 0.105759 0.391578 -0.613933
Cl20  Cl    Cl    0.921748 0.783167 0.814996 -0.514332
H1    H     H_    0.804381 0.842750 0.232570 0.119399
H2    H     H_    0.202574 0.262436 0.822546 0.157873
H3    H     H_    0.297402 0.762598 0.177454 0.158140
H4    H     H_    0.761520 0.696295 0.963921 0.201654
H5    H     H_    0.835050 0.229324 0.025721 0.147305
H6    H     H_    0.164461 0.229906 0.973981 0.144771
H7    H     H_    0.335409 0.729539 0.025903 0.144233
H8    H     H_    0.683557 0.623846 0.037769 0.155046
H9    H     H_    0.092978 0.903196 0.323037 0.167555
H10   H     H_    0.910112 0.898033 0.679199 0.161066
H11   H     H_    0.590597 0.399577 0.321357 0.160780
H12   H     H_    0.215783 0.877202 0.815701 0.116892
H13   H     H_    0.409496 0.399172 0.678637 0.160171
H14   H     H_    0.235356 0.894066 0.675096 0.118868
H15   H     H_    0.764380 0.894590 0.326652 0.129749
H16   H     H_    0.735171 0.393308 0.674253 0.124406
H17   H     H_    0.264912 0.393027 0.325689 0.119376
H18   H     H_    0.043593 0.883527 0.824723 0.165885
H19   H     H_    0.982975 0.840527 0.238799 0.168170
H20   H     H_    0.543254 0.383502 0.824314 0.164659
H21   H     H_    0.456441 0.383409 0.175265 0.164748
H22   H     H_    0.803836 0.162649 0.324337 0.134913
H23   H     H_    0.284244 0.377222 0.184281 0.116644
H24   H     H_    0.196391 0.162759 0.675354 0.140386
H25   H     H_    0.304657 0.663731 0.325677 0.138309
H26   H     H_    0.695035 0.662597 0.677298 0.142451
H27   H     H_    0.960305 0.130743 0.185891 0.146266
H28   H     H_    0.039405 0.131179 0.813658 0.146767
H29   H     H_    0.460610 0.631029 0.186429 0.145258
H30   H     H_    0.548253 0.598583 0.834303 0.136146
H31   H     H_    0.930056 0.153382 0.675270 0.139176
H32   H     H_    0.069787 0.153088 0.324519 0.138910
H33   H     H_    0.436902 0.655488 0.678486 0.148161
H34   H     H_    0.716204 0.378147 0.817187 0.124916
H35   H     H_    0.569825 0.654168 0.325458 0.138161
H36   H     H_    0.679061 0.890649 0.358775 0.196937
H37   H     H_    0.322839 0.890790 0.646456 0.195278
H38   H     H_    0.178898 0.389454 0.356138 0.194282
H39   H     H_    0.821241 0.389817 0.643931 0.195578
H40   H     H_    0.816473 0.683404 0.752789 0.188027
H41   H     H_    0.186200 0.690200 0.245687 0.194115
H42   H     H_    0.315873 0.187740 0.755537 0.195011
H43   H     H_    0.684503 0.188869 0.243480 0.193094
H44   H     H_    0.795802 0.260145 0.176211 0.154921
N1    N     N_R   0.888400 0.921830 0.294620 -0.038505
N2    N     N_R   0.874350 0.922400 0.443380 -0.048721
N3    N     N_R   0.625650 0.422400 0.556620 -0.044828
N4    N     N_R   0.374350 0.422400 0.443380 -0.045651
N5    N     N_R   0.054230 0.922730 0.705400 -0.062814
N6    N     N_R   0.945770 0.922730 0.294600 -0.059893
N7    N     N_R   0.554230 0.422730 0.705400 -0.062702
N8    N     N_R   0.445770 0.422730 0.294600 -0.061758
N9    N     N_R   0.873790 0.077030 0.443380 -0.036749
N10   N     N_R   0.126210 0.077030 0.556620 -0.036561
N11   N     N_R   0.373790 0.577030 0.443380 -0.035932
N12   N     N_R   0.111600 0.921830 0.705380 -0.043057
N13   N     N_R   0.626210 0.577030 0.556620 -0.034102
N14   N     N_R   0.945200 0.076700 0.294600 -0.075782
N15   N     N_R   0.054800 0.076700 0.705400 -0.075966
N16   N     N_R   0.445200 0.576700 0.294600 -0.075549
N17   N     N_R   0.554800 0.576700 0.705400 -0.075601
N18   N     N_R   0.111030 0.077600 0.705380 -0.093314
N19   N     N_R   0.888970 0.077600 0.294620 -0.095847
N20   N     N_R   0.611030 0.577600 0.705380 -0.088661
N21   N     N_R   0.388970 0.577600 0.294620 -0.093105
N22   N     N_R   0.919490 0.077280 0.556590 -0.060058
N23   N     N_R   0.388400 0.421830 0.294620 -0.042443
N24   N     N_R   0.080510 0.077280 0.443410 -0.058731
N25   N     N_R   0.419490 0.577280 0.556590 -0.060153
N26   N     N_R   0.580510 0.577280 0.443410 -0.059964
N27   N     N_1   0.912129 0.694499 0.590159 -0.034679
N28   N     N_1   0.083442 0.700830 0.396467 -0.037738
N29   N     N_1   0.416816 0.197467 0.601610 -0.025500
N30   N     N_1   0.582718 0.198417 0.396037 -0.026504
N31   N     N_1   0.322412 0.947397 0.026521 0.039079
N32   N     N_1   0.787370 0.690026 0.280249 -0.054971
N33   N     N_1   0.824068 0.446667 0.033779 0.042764
N34   N     N_R   0.611600 0.421830 0.705380 -0.041894
N35   N     N_1   0.177700 0.447683 0.973597 0.038329
N36   N     N_R   0.079940 0.922160 0.443410 -0.058823
N37   N     N_R   0.920060 0.922160 0.556590 -0.055709
N38   N     N_R   0.579940 0.422160 0.443410 -0.054853
N39   N     N_R   0.420060 0.422160 0.556590 -0.054138
N40   N     N_R   0.125650 0.922400 0.556620 -0.046275
Ni1   Ni    Ni4+2 0.882160 0.999430 0.370180 0.296261
Ni2   Ni    Ni4+2 0.117840 0.999430 0.629820 0.281227
Ni3   Ni    Ni4+2 0.382160 0.499430 0.370180 0.284708
Ni4   Ni    Ni4+2 0.617840 0.499430 0.629820 0.290454
Ni5   Ni    Ni4+2 0.012460 0.999430 0.370180 0.237545
Ni6   Ni    Ni4+2 0.987540 0.999430 0.629820 0.225691
Ni7   Ni    Ni4+2 0.512460 0.499430 0.370180 0.228605
Ni8   Ni    Ni4+2 0.487540 0.499430 0.629820 0.224051

loop_
_geom_bond_atom_site_label_1
_geom_bond_atom_site_label_2
_ccdc_geom_bond_type
C67   H44   S    
N38   Ni7   S    
C46   N37   A    
C90   N10   A    
N19   Ni1   S    
C16   C21   A    
N3    Ni4   S    
C55   C59   D    
C3    C53   S    
C104  N29   T    
C45   C85   A    
C24   H37   S    
N4    Ni3   S    
C102  N27   T    
C99   Cl10  S    
C99   N19   A    
C57   C62   D    
C79   H21   S    
N17   N20   A    
C97   N17   A    
C77   N6    A    
C68   H2    S    
C48   H13   S    
N13   Ni4   S    
C28   N23   A    
C32   C36   A    
C76   N5    A    
C100  N20   A    
C18   C37   A    
C1    H1    S    
C39   C84   A    
C101  N21   A    
C92   N13   A    
C45   N36   A    
N11   N25   A    
C43   C52   S    
C43   H42   S    
C14   C49   S    
C14   C38   A    
C27   Cl1   S    
C11   C95   A    
N11   Ni3   S    
C26   H39   S    
C3    N30   T    
N10   Ni2   S    
C2    C32   S    
N9    Ni1   S    
C89   C94   A    
C2    C90   A    
C78   H20   S    
C7    N35   T    
C75   H17   S    
C18   C53   S    
C71   C85   A    
C44   C53   S    
C10   C63   S    
C4    N31   T    
N36   N40   A    
C29   C33   A    
C91   N11   A    
C61   N24   A    
C90   H24   S    
N1    N6    A    
C48   C88   A    
C26   C29   A    
C15   C51   S    
C74   C87   A    
C5    N32   T    
C50   H31   S    
C56   Cl7   S    
C2    C61   A    
C42   C51   S    
C9    C83   A    
C19   C86   S    
N15   Ni6   S    
C40   C42   S    
C21   C88   S    
C34   C38   A    
C60   C67   S    
C33   C94   S    
C15   C20   A    
C100  Cl11  S    
C96   N16   A    
C79   N8    A    
C9    C92   A    
C41   C49   S    
C65   H7    S    
C56   C84   S    
C71   H14   S    
C66   H8    S    
C13   C66   S    
C89   H22   S    
C37   C44   S    
C63   C67   D    
C8    C72   A    
C5    C59   S    
C28   C82   A    
C23   C30   A    
C20   C24   A    
C52   Cl3   S    
C6    N33   T    
C11   C64   S    
N21   Ni3   S    
N15   N18   A    
N26   Ni7   S    
C91   H25   S    
C30   C34   A    
C50   C94   A    
C98   Cl9   S    
C30   Cl14  S    
N5    N12   A    
C22   C87   S    
C49   Cl20  S    
C74   H16   S    
N36   Ni5   S    
C33   C37   A    
C72   H33   S    
C56   C60   D    
C54   Cl5   S    
C95   H28   S    
C8    C35   S    
C47   C87   A    
C19   C23   A    
C77   H19   S    
C7    C62   S    
C20   C85   S    
C6    C60   S    
N14   Ni5   S    
N10   N24   A    
C93   N14   A    
C96   H29   S    
C25   H38   S    
N1    Ni1   S    
C23   H36   S    
C17   H12   S    
N8    Ni7   S    
C8    C91   A    
C97   H30   S    
N3    N38   A    
N12   Ni2   S    
N13   N26   A    
N22   Ni6   S    
C43   Cl18  S    
C31   Cl15  S    
C74   N3    A    
C38   C41   S    
C17   N12   A    
C71   N40   A    
C29   Cl12  S    
C64   H6    S    
N37   Ni6   S    
C89   N9    A    
N18   Ni2   S    
C39   H34   S    
C92   H26   S    
C78   N7    A    
C31   C35   A    
C93   H27   S    
C103  N28   T    
C61   H32   S    
C64   C68   D    
N24   Ni5   S    
C49   C102  S    
C11   C98   A    
N25   Ni8   S    
C44   H43   S    
C54   C58   D    
C77   C80   A    
C70   H4    S    
C21   C25   A    
C52   C104  S    
C28   H23   S    
N9    N22   A    
C47   N38   A    
C47   H11   S    
C27   C32   A    
C18   C22   A    
C14   C19   A    
N4    N39   A    
C72   N25   A    
C16   C52   S    
N7    N34   A    
N34   Ni4   S    
N8    N23   A    
C76   C81   A    
C79   C82   A    
C39   N34   A    
C42   H41   S    
C58   C69   S    
C46   H10   S    
C25   C27   A    
C73   H15   S    
C12   C65   S    
C44   Cl19  S    
C45   H9    S    
C10   C93   A    
N17   Ni8   S    
C62   C68   S    
N6    Ni5   S    
C101  Cl13  S    
N7    Ni8   S    
C83   N26   A    
N5    Ni6   S    
C24   C31   A    
C12   C101  A    
C98   N18   A    
C16   C36   A    
C55   C80   S    
N20   Ni4   S    
C53   Cl4   S    
C95   N15   A    
C66   C70   D    
N2    Ni1   S    
C13   C100  A    
C51   Cl2   S    
C65   C69   D    
C48   N39   A    
C1    N1    A    
N39   Ni8   S    
C9    C34   S    
C35   C40   A    
C17   C81   A    
N14   N19   A    
C63   H5    S    
C41   Cl16  S    
C13   C97   A    
C10   C99   A    
C50   N22   A    
C15   C40   A    
N2    N37   A    
C59   C70   S    
C57   Cl8   S    
C55   Cl6   S    
C78   C84   A    
C75   C88   A    
C83   H35   S    
C69   H3    S    
N16   Ni7   S    
N40   Ni2   S    
C22   C26   A    
C41   H40   S    
C4    C58   S    
C75   N4    A    
C1    C80   A    
C57   C82   S    
C12   C96   A    
C36   C43   S    
C73   C86   A    
C73   N2    A    
C51   C103  S    
N16   N21   A    
C54   C81   S    
C42   Cl17  S    
N23   Ni3   S    
C46   C86   A    
C76   H18   S    
