data_mof_unit_67440.cif
_audit_creation_date              2013-03-05T15:40:33-0500
_audit_creation_method            fapswitch 2.2
_symmetry_space_group_name_H-M    P1
_symmetry_Int_Tables_number       1
_space_group_crystal_system       triclinic
_cell_length_a                    14.983146
_cell_length_b                    8.868359
_cell_length_c                    7.638475
_cell_angle_alpha                 103.578009
_cell_angle_beta                  94.139795
_cell_angle_gamma                 95.618186
_cell_volume                      977.099539955

loop_
_atom_site_label
_atom_site_type_symbol
_atom_site_description
_atom_site_fract_x
_atom_site_fract_y
_atom_site_fract_z
_atom_type_partial_charge
O1    O     O_R   0.506510 0.286130 0.619770 -0.592153
O2    O     O_R   0.493490 0.713870 0.380230 -0.620459
O3    O     O_R   0.489600 0.256770 0.308360 -0.595889
O4    O     O_R   0.510400 0.743230 0.691640 -0.605014
C1    C     C_R   0.493234 0.200430 0.454005 0.842701
C2    C     C_R   0.504089 0.799277 0.545746 0.804164
O5    O     O_R   0.378710 0.514640 0.655720 -0.601620
O6    O     O_R   0.621290 0.485360 0.344280 -0.614231
O7    O     O_R   0.361800 0.485290 0.344300 -0.600925
O8    O     O_R   0.638200 0.514710 0.655700 -0.579990
C3    C     C_R   0.329429 0.495730 0.500875 0.769566
C4    C     C_R   0.670887 0.509268 0.499769 0.764719
Cu1   Cu    Cu3+1 0.510010 0.517380 0.684380 0.906707
Cu2   Cu    Cu3+1 0.489990 0.482620 0.315620 0.890183
C5    C     C_R   0.825281 0.649791 0.580204 -0.233842
C6    C     C_R   0.175262 0.360426 0.428258 -0.260435
C7    C     C_R   0.767871 0.514136 0.496937 -0.038090
C8    C     C_R   0.233085 0.496021 0.503853 -0.026104
C9    C     C_R   0.802349 0.378495 0.417129 -0.244974
C10   C     C_R   0.199829 0.633838 0.579894 -0.237386
C11   C     C_R   0.895162 0.370873 0.430918 0.006371
C12   C     C_R   0.106851 0.641427 0.575800 0.017121
C13   C     C_R   0.954303 0.509054 0.505016 -0.018447
C14   C     C_R   0.047312 0.503152 0.504174 -0.015208
C15   C     C_R   0.919803 0.652051 0.580377 0.029358
C16   C     C_R   0.081417 0.359348 0.430477 0.027934
C17   C     C_R   0.928566 0.225848 0.372650 0.356675
C18   C     C_R   0.073686 0.785475 0.642884 0.355519
C19   C     C_R   0.022013 0.218215 0.364456 0.041952
C20   C     C_R   0.979690 0.792485 0.652027 0.034891
H1    H     H_    0.794559 0.752588 0.640191 0.114047
H2    H     H_    0.205277 0.256448 0.372114 0.114959
H3    H     H_    0.755293 0.277646 0.348560 0.149984
H4    H     H_    0.248241 0.734761 0.639569 0.136619
C21   C     C_2   0.477668 0.031810 0.434801 -0.098396
C22   C     C_2   0.517811 0.967423 0.564219 -0.127297
N1    N     N_2   0.474890 0.456420 0.038520 -0.137239
N2    N     N_2   0.525110 0.543580 0.961480 -0.105678
O9    O     O_3   0.870000 0.090681 0.329927 -0.797730
H5    H     H_    0.827315 0.097777 0.423825 0.310158
O10   O     O_3   0.133414 0.919437 0.699765 -0.798737
H6    H     H_    0.175089 0.922489 0.605392 0.306933
C23   C     C_3   0.061895 0.063516 0.295695 -0.383121
C24   C     C_3   0.997485 0.911278 0.223642 -0.247324
C25   C     C_3   0.046926 0.771953 0.146434 -0.932429
H7    H     H_    0.078799 0.789101 0.024881 0.279415
H8    H     H_    0.098792 0.755707 0.249428 0.259383
H9    H     H_    0.998155 0.664273 0.105594 0.255536
H10   H     H_    0.960713 0.882788 0.334447 0.255375
H11   H     H_    0.948771 0.924753 0.114266 0.255964
H12   H     H_    0.103308 0.078239 0.185706 0.187399
H13   H     H_    0.108124 0.045771 0.406894 0.190395
C26   C     C_3   0.939886 0.946445 0.725997 -0.385450
C27   C     C_3   0.005501 0.097190 0.799542 -0.253594
C28   C     C_3   0.957914 0.238488 0.875449 -0.916633
H14   H     H_    0.913893 0.263476 0.765675 0.263542
H15   H     H_    0.918461 0.217840 0.986644 0.275155
H16   H     H_    0.008636 0.342035 0.930580 0.255362
H17   H     H_    0.052842 0.082109 0.910011 0.256738
H18   H     H_    0.043416 0.125040 0.689666 0.254590
H19   H     H_    0.893693 0.966850 0.616363 0.195883
H20   H     H_    0.898129 0.930183 0.835612 0.188196
C29   C     C_3   0.407096 0.934660 0.282805 -0.408372
C30   C     C_3   0.348010 0.027455 0.184225 -0.377655
C31   C     C_3   0.268447 0.924917 0.066878 -0.882322
H21   H     H_    0.292107 0.851663 0.945280 0.259807
H22   H     H_    0.232878 0.850171 0.143552 0.262922
H23   H     H_    0.221464 0.000061 0.021167 0.278765
H24   H     H_    0.322228 0.120828 0.284440 0.213050
H25   H     H_    0.388317 0.078370 0.091550 0.241609
H26   H     H_    0.441539 0.858878 0.178159 0.227833
H27   H     H_    0.360858 0.860464 0.344438 0.202484
C32   C     C_3   0.582837 0.058655 0.726708 -0.378806
C33   C     C_3   0.671274 0.129601 0.673313 -0.331838
C34   C     C_3   0.726328 0.237444 0.839126 -0.798842
H28   H     H_    0.682254 0.303249 0.931487 0.259318
H29   H     H_    0.764160 0.167608 0.914549 0.241348
H30   H     H_    0.773499 0.323394 0.796937 0.246308
H31   H     H_    0.711018 0.034332 0.613127 0.177633
H32   H     H_    0.659153 0.196617 0.570663 0.224312
H33   H     H_    0.548308 0.144931 0.819359 0.227398
H34   H     H_    0.603426 0.982460 0.812725 0.193524
C35   C     C_3   0.383524 0.397343 0.959203 -0.018983
C36   C     C_3   0.317529 0.524473 0.991408 -0.294766
C37   C     C_3   0.219436 0.450655 0.951917 -0.890442
H35   H     H_    0.207614 0.372268 0.813918 0.265508
H36   H     H_    0.202662 0.381573 0.051469 0.261622
H37   H     H_    0.174028 0.543371 0.961719 0.258547
H38   H     H_    0.326951 0.601236 0.128268 0.235288
H39   H     H_    0.329101 0.612475 0.914080 0.224585
H40   H     H_    0.381685 0.330610 0.817360 0.160681
H41   H     H_    0.359134 0.307291 0.028713 0.142928
C38   C     C_3   0.609181 0.626907 0.059506 -0.054600
C39   C     C_3   0.635101 0.779666 0.007576 -0.425878
C40   C     C_3   0.715375 0.875265 0.130977 -0.902754
H42   H     H_    0.698805 0.905017 0.273587 0.250190
H43   H     H_    0.774854 0.809039 0.120979 0.278062
H44   H     H_    0.732135 0.985320 0.089121 0.278603
H45   H     H_    0.654656 0.758102 0.868144 0.259423
H46   H     H_    0.577116 0.849201 0.021957 0.225650
H47   H     H_    0.602305 0.666809 0.201910 0.225059
H48   H     H_    0.664387 0.552375 0.037584 0.157702

loop_
_geom_bond_atom_site_label_1
_geom_bond_atom_site_label_2
_geom_bond_distance
_ccdc_geom_bond_type
C24   H10   1.106451 S    
C28   H14   1.106011 S    
C3    C8    1.445601 S    
C38   C39   1.521507 S    
C17   C19   1.413541 A    
O10   H6    0.990512 S    
C40   H42   1.111212 S    
C23   C24   1.541542 S    
C40   H44   1.108155 S    
C27   H18   1.107630 S    
C37   H35   1.109337 S    
O5    C3    1.314846 A    
C35   H41   1.105980 S    
O1    C1    1.304846 A    
C9    C11   1.396457 A    
C14   C16   1.427040 A    
C23   H13   1.106866 S    
C5    C15   1.414316 A    
C18   O10   1.376365 S    
C32   C33   1.534036 S    
O4    Cu1   1.990051 S    
C26   H19   1.106823 S    
C21   C22   1.382571 D    
C26   C27   1.542598 S    
C17   O9    1.372024 S    
C31   H22   1.106623 S    
C4    C7    1.451410 S    
C13   C14   1.400086 A    
C30   H25   1.108209 S    
C10   H4    1.081012 S    
C37   H36   1.110380 S    
C11   C17   1.411436 A    
C12   C18   1.412483 A    
Cu1   Cu2   2.751612 S    
C19   C23   1.543574 S    
O2    C2    1.301984 A    
C36   H39   1.092142 S    
C32   H33   1.109085 S    
C27   H17   1.103716 S    
C25   H8    1.109252 S    
C6    C16   1.406537 A    
C20   C26   1.544356 S    
C33   C34   1.524868 S    
C36   C37   1.527931 S    
O4    C2    1.323623 A    
C9    H3    1.083782 S    
C38   H47   1.077785 S    
O9    H5    0.990116 S    
O7    Cu2   1.950594 S    
C25   H9    1.110774 S    
C25   H7    1.108762 S    
C34   H28   1.106252 S    
N1    N2    1.293671 D    
O7    C3    1.309489 A    
C26   H20   1.108130 S    
C35   C36   1.559668 S    
C39   H46   1.110868 S    
O6    C4    1.315782 A    
C31   H23   1.107775 S    
C30   H24   1.108408 S    
C34   H29   1.107210 S    
Cu1   N2    2.067584 S    
O3    Cu2   1.990051 S    
O8    C4    1.312522 A    
C10   C12   1.399758 A    
C33   H31   1.111509 S    
C28   H15   1.108469 S    
C12   C14   1.413932 A    
O1    Cu1   1.987990 S    
C36   H38   1.096338 S    
C32   H34   1.097033 S    
C24   C25   1.524268 S    
C37   H37   1.110187 S    
C24   H11   1.104959 S    
C15   C20   1.430383 A    
C5    C7    1.396740 A    
C27   C28   1.519294 S    
O6    Cu2   1.960790 S    
C29   H26   1.110022 S    
O3    C1    1.322058 A    
O8    Cu1   1.950594 S    
C38   H48   1.106428 S    
C21   C29   1.543700 S    
C40   H43   1.111853 S    
C5    H1    1.081395 S    
C6    H2    1.076954 S    
C35   H40   1.102874 S    
C30   C31   1.517307 S    
C11   C13   1.412996 A    
Cu2   N1    2.067585 S    
C23   H12   1.103998 S    
C39   H45   1.103237 S    
C1    C21   1.461464 S    
N2    C38   1.454382 S    
C18   C20   1.421801 A    
C7    C9    1.381416 A    
C2    C22   1.456975 S    
C8    C10   1.380995 A    
C13   C15   1.426644 A    
C39   C40   1.521614 S    
O2    Cu2   1.987990 S    
C34   H30   1.107750 S    
C22   C32   1.530985 S    
C29   C30   1.537976 S    
O5    Cu1   1.960790 S    
C29   H27   1.112579 S    
C16   C19   1.426111 A    
C6    C8    1.388457 A    
C31   H21   1.104418 S    
C28   H16   1.110739 S    
N1    C35   1.451326 S    
C33   H32   1.104707 S    
