data_mof_unit_26279.cif
_audit_creation_date              2013-03-05T16:36:13-0500
_audit_creation_method            fapswitch 2.2
_symmetry_space_group_name_H-M    P1
_symmetry_Int_Tables_number       1
_space_group_crystal_system       triclinic
_cell_length_a                    27.835999
_cell_length_b                    9.07502
_cell_length_c                    7.781679
_cell_angle_alpha                 90.112025
_cell_angle_beta                  90.0
_cell_angle_gamma                 89.99993
_cell_volume                      1965.74366529

loop_
_atom_site_label
_atom_site_type_symbol
_atom_site_description
_atom_site_fract_x
_atom_site_fract_y
_atom_site_fract_z
_atom_type_partial_charge
O1    O     O_R   0.500000 0.288390 0.642760 -0.574171
O2    O     O_R   0.500000 0.711610 0.357240 -0.574171
O3    O     O_R   0.500000 0.711610 0.642760 -0.577624
O4    O     O_R   0.500000 0.288390 0.357240 -0.577624
C1    C     C_R   0.500000 0.220035 0.499897 0.850568
C2    C     C_R   0.500000 0.779965 0.500103 0.850568
O5    O     O_R   0.430260 0.500000 0.642770 -0.583916
O6    O     O_R   0.569740 0.500000 0.357230 -0.583958
O7    O     O_R   0.569740 0.500000 0.642770 -0.583958
O8    O     O_R   0.430260 0.500000 0.357230 -0.583916
C3    C     C_R   0.407255 0.500000 0.500000 0.807681
C4    C     C_R   0.592746 0.500000 0.500000 0.807776
Cu1   Cu    Cu3+1 0.500000 0.500000 0.669080 1.010023
Cu2   Cu    Cu3+1 0.500000 0.500000 0.330920 1.010023
C5    C     C_R   0.177993 0.372809 0.538140 0.556215
C6    C     C_R   0.822066 0.628358 0.467815 0.556222
C7    C     C_R   0.177993 0.627175 0.461857 0.556216
C8    C     C_R   0.822066 0.371631 0.532182 0.556222
O9    O     O_2   0.202884 0.249484 0.576367 -0.510468
O10   O     O_2   0.797193 0.752865 0.435138 -0.509959
O11   O     O_2   0.202885 0.750499 0.423630 -0.510468
O12   O     O_2   0.797192 0.247125 0.564861 -0.509958
N1    N     N_R   0.202011 0.499992 0.499999 -0.474100
N2    N     N_R   0.798031 0.499995 0.499999 -0.474077
C9    C     C_R   0.278975 0.554017 0.643443 0.011430
C10   C     C_R   0.721026 0.446186 0.356432 0.011634
C11   C     C_R   0.278975 0.445969 0.356557 0.011428
C12   C     C_R   0.721027 0.553806 0.643568 0.011635
C13   C     C_R   0.329153 0.552253 0.643580 -0.241435
C14   C     C_R   0.670848 0.447947 0.356327 -0.241784
C15   C     C_R   0.329153 0.447738 0.356419 -0.241434
C16   C     C_R   0.670849 0.552049 0.643673 -0.241784
C17   C     C_R   0.253622 0.499992 0.500000 0.272587
C18   C     C_R   0.746401 0.499995 0.500000 0.271622
C19   C     C_R   0.101928 0.499992 0.499997 -0.042483
C20   C     C_R   0.898132 0.499994 0.499997 -0.043071
C21   C     C_R   0.127573 0.370174 0.537739 -0.018656
C22   C     C_R   0.872486 0.630990 0.468476 -0.018142
C23   C     C_R   0.127574 0.629810 0.462256 -0.018657
C24   C     C_R   0.872486 0.368998 0.531518 -0.018142
C25   C     C_R   0.102530 0.240889 0.574613 -0.136918
C26   C     C_R   0.897528 0.761614 0.438856 -0.135781
C27   C     C_R   0.102531 0.759096 0.425382 -0.136917
C28   C     C_R   0.897528 0.238373 0.561136 -0.135781
C29   C     C_R   0.354478 0.499998 0.500000 -0.052243
C30   C     C_R   0.645524 0.499998 0.500000 -0.052064
H1    H     H_    0.348458 0.406173 0.245409 0.162896
H2    H     H_    0.651541 0.593455 0.754763 0.162830
H3    H     H_    0.348458 0.593821 0.754591 0.162896
H4    H     H_    0.651540 0.406541 0.245236 0.162830
H5    H     H_    0.121419 0.139673 0.604532 0.191015
H6    H     H_    0.878638 0.864116 0.415865 0.188880
H7    H     H_    0.121419 0.860312 0.395465 0.191015
H8    H     H_    0.878638 0.135871 0.584127 0.188880
C31   C     C_R   0.974477 0.366637 0.532735 0.045619
C32   C     C_R   0.025585 0.632824 0.464395 0.045134
C33   C     C_R   0.974477 0.633349 0.467257 0.045619
C34   C     C_R   0.025585 0.367161 0.535597 0.045134
C35   C     C_R   0.949258 0.499993 0.499996 0.069387
C36   C     C_R   0.050803 0.499993 0.499996 0.069797
C37   C     C_R   0.947386 0.236736 0.561187 -0.207120
C38   C     C_R   0.052674 0.760959 0.426353 -0.208814
C39   C     C_R   0.947386 0.763251 0.438803 -0.207120
C40   C     C_R   0.052674 0.239026 0.573642 -0.208814
H9    H     H_    0.963356 0.130526 0.583070 0.133313
H10   H     H_    0.036705 0.865437 0.394888 0.137028
H11   H     H_    0.963356 0.869460 0.416918 0.133313
H12   H     H_    0.036705 0.134550 0.605108 0.137028
C41   C     C_1   0.500000 0.065406 0.499857 -0.165882
C42   C     C_1   0.500000 0.934594 0.500143 -0.165882
N3    N     N_1   0.500000 0.500000 0.076820 -0.047604
N4    N     N_1   0.500000 0.500000 0.923180 -0.047604
C43   C     C_1   0.253842 0.387385 0.209340 0.294602
N5    N     N_1   0.233636 0.339925 0.091632 -0.235425
C44   C     C_1   0.746123 0.612137 0.791013 0.296578
N6    N     N_1   0.766298 0.659448 0.908872 -0.236734
C45   C     C_1   0.253841 0.612595 0.790661 0.294602
N7    N     N_1   0.233634 0.660050 0.908369 -0.235428
C46   C     C_1   0.746122 0.387853 0.208988 0.296577
N8    N     N_1   0.766297 0.340540 0.091129 -0.236733

loop_
_geom_bond_atom_site_label_1
_geom_bond_atom_site_label_2
_geom_bond_distance
_ccdc_geom_bond_type
O5    Cu1   1.952049 S    
C31   C35   1.422494 A    
Cu2   N3    1.977324 S    
C20   C35   1.423160 A    
C13   H3    1.084447 S    
C45   N7    1.157276 T    
C11   C17   1.407917 A    
C5    O9    1.349976 S    
C7    N1    1.366959 A    
C9    C45   1.442944 S    
C40   H12   1.075822 S    
C19   C21   1.408948 A    
C22   C26   1.394750 A    
C33   C35   1.422494 A    
C34   C36   1.422645 A    
O7    Cu1   1.952046 S    
C32   C33   1.422822 A    
C7    C23   1.403679 A    
C8    C24   1.403690 A    
C5    C21   1.403679 A    
C1    C41   1.403262 S    
C27   H7    1.084065 S    
N1    C17   1.436635 S    
C8    N2    1.366928 A    
O3    Cu1   1.931654 S    
C6    O10   1.349760 S    
O3    C2    1.272727 A    
C5    N1    1.366959 A    
C14   H4    1.084482 S    
C12   C18   1.408319 A    
C6    N2    1.366929 A    
C15   H1    1.084446 S    
Cu1   Cu2   2.631453 S    
C21   C25   1.395047 A    
C16   H2    1.084481 S    
O2    C2    1.272013 A    
C10   C18   1.408318 A    
C33   C39   1.417190 A    
C43   N5    1.157284 T    
C9    C13   1.396850 A    
C39   H11   1.075299 S    
C38   H10   1.075822 S    
C11   C15   1.396848 A    
C12   C16   1.396843 A    
C4    C30   1.469151 S    
O8    Cu2   1.952049 S    
C23   C27   1.395047 A    
C34   C40   1.417657 A    
N2    C18   1.437164 S    
C32   C36   1.422645 A    
C13   C29   1.402898 A    
C19   C36   1.423121 A    
C19   C23   1.408948 A    
C44   N6    1.157306 T    
C37   H9    1.075298 S    
O5    C3    1.282328 A    
C20   C24   1.408600 A    
O6    C4    1.282339 A    
C10   C14   1.396844 A    
C32   C38   1.417656 A    
C3    C29   1.469109 S    
O1    Cu1   1.930859 S    
O1    C1    1.272013 A    
C2    C42   1.403262 S    
O6    Cu2   1.952046 S    
C8    O12   1.349762 S    
C16   C30   1.402831 A    
C14   C30   1.402832 A    
O4    C1    1.272727 A    
Cu1   N4    1.977324 S    
C28   C37   1.387916 A    
C10   C46   1.443013 S    
C20   C22   1.408599 A    
N3    N4    1.195578 T    
C31   C37   1.417190 A    
O4    Cu2   1.931655 S    
C41   C42   1.187125 T    
O2    Cu2   1.930858 S    
O7    C4    1.282340 A    
C7    O11   1.349976 S    
C9    C17   1.407920 A    
O8    C3    1.282329 A    
C46   N8    1.157307 T    
C28   H8    1.083719 S    
C24   C28   1.394749 A    
C15   C29   1.402903 A    
C31   C34   1.422822 A    
C6    C22   1.403690 A    
C25   C40   1.387940 A    
C11   C43   1.442952 S    
C12   C44   1.443013 S    
C26   C39   1.387916 A    
C25   H5    1.084065 S    
C27   C38   1.387940 A    
C26   H6    1.083718 S    
