data_mof_unit_29922.cif
_audit_creation_date              2012-12-10T19:08:09-0500
_audit_creation_method            fapswitch 2.2
_symmetry_space_group_name_H-M    P1
_symmetry_Int_Tables_number       1
_space_group_crystal_system       triclinic
_cell_length_a                    9.065334
_cell_length_b                    10.814862
_cell_length_c                    9.588895
_cell_angle_alpha                 89.622875
_cell_angle_beta                  89.558699
_cell_angle_gamma                 90.941412
_cell_volume                      939.922554399

loop_
_atom_site_label
_atom_site_type_symbol
_atom_type_description
_atom_site_fract_x
_atom_site_fract_y
_atom_site_fract_z
_atom_type_partial_charge
C1    C     C_R   0.496952 0.262414 0.500274 0.784378
C2    C     C_R   0.462825 0.935871 0.374127 -0.221191
C3    C     C_R   0.482937 0.870513 0.499536 -0.096349
C4    C     C_R   0.481250 0.935301 0.625020 0.135416
C5    C     C_3   0.583431 0.929505 0.746342 -0.468085
C6    C     C_3   0.582609 0.069955 0.746799 -0.464911
C7    C     C_R   0.588449 0.580842 0.071962 0.240750
C8    C     C_R   0.403044 0.429359 0.077980 -0.083387
C9    C     C_R   0.400187 0.429048 0.929886 0.226110
C10   C     C_R   0.588687 0.580697 0.925016 0.221477
C11   C     C_3   0.752903 0.589738 0.918201 -0.496717
C12   C     C_R   0.220821 0.499801 0.500317 0.841137
C13   C     C_3   0.752703 0.590094 0.076422 -0.487227
C14   C     C_R   0.497588 0.737537 0.499696 0.794178
C15   C     C_R   0.779171 0.500090 0.499716 0.850010
C16   C     C_1   0.065594 0.499836 0.500515 -0.192353
C17   C     C_1   0.934397 0.499946 0.499649 -0.207310
C18   C     C_R   0.480601 0.062522 0.625427 0.108492
C19   C     C_R   0.481876 0.129066 0.500304 -0.091915
C20   C     C_R   0.462219 0.064766 0.374508 -0.217703
Cu1   Cu    Cu3+1 0.499990 0.499980 0.640670 0.929974
Cu2   Cu    Cu3+1 0.500010 0.500020 0.359330 0.934957
H1    H     H_    0.453688 0.113438 0.275882 0.161833
H2    H     H_    0.792155 0.678734 0.871328 0.192739
H3    H     H_    0.803961 0.506425 0.121825 0.220654
H4    H     H_    0.791726 0.679349 0.120916 0.194714
H5    H     H_    0.454698 0.888286 0.275371 0.165095
H6    H     H_    0.529472 0.887255 0.840058 0.196439
H7    H     H_    0.692585 0.890798 0.718395 0.192890
H8    H     H_    0.528024 0.108702 0.840698 0.192156
H9    H     H_    0.691302 0.113007 0.719168 0.200001
H10   H     H_    0.327782 0.370362 0.137449 0.148168
H11   H     H_    0.804082 0.505762 0.874003 0.223740
N1    N     N_R   0.500920 0.500930 0.147930 -0.203422
N2    N     N_R   0.500930 0.500890 0.852020 -0.203586
O1    O     O_R   0.500000 0.319640 0.618810 -0.602553
O2    O     O_R   0.500020 0.319680 0.381230 -0.585752
O3    O     O_R   0.288380 0.499980 0.618770 -0.584043
O4    O     O_R   0.288400 0.500020 0.381190 -0.579997
O5    O     O_R   0.499980 0.680320 0.618770 -0.576261
O6    O     O_R   0.500000 0.680360 0.381190 -0.582810
O7    O     O_R   0.711600 0.499980 0.618810 -0.580600
O8    O     O_R   0.711620 0.500020 0.381230 -0.576408
C21   C     C_3   0.282910 0.345026 0.867790 -0.364671
C22   C     C_3   0.128581 0.397305 0.889311 -0.851448
H12   H     H_    0.122557 0.492439 0.845697 0.274143
H13   H     H_    0.045974 0.337802 0.835710 0.237519
H14   H     H_    0.099478 0.399778 0.001953 0.239139
H15   H     H_    0.298089 0.325757 0.757294 0.257114
H16   H     H_    0.287311 0.252806 0.919483 0.155473

loop_
_geom_bond_atom_site_label_1
_geom_bond_atom_site_label_2
_ccdc_geom_bond_type
C21   H15   S    
C7    C10   A    
C10   N2    A    
Cu1   N2    S    
C5    H6    S    
C19   C20   A    
Cu2   O8    S    
C20   H1    S    
C1    O2    A    
C4    C18   A    
C12   O4    A    
C7    C13   S    
C6    H9    S    
C15   O8    A    
Cu1   O1    S    
C8    N1    A    
C22   H12   S    
C11   C13   S    
C13   H3    S    
C2    H5    S    
C3    C14   S    
C14   O6    A    
Cu2   N1    S    
Cu2   O4    S    
C6    H8    S    
C2    C3    A    
C5    H7    S    
C22   H13   S    
C12   O3    A    
C5    C6    S    
C6    C18   S    
C7    N1    A    
C13   H4    S    
C1    C19   S    
Cu2   O6    S    
C16   C17   T    
C10   C11   S    
C2    C20   A    
C3    C4    A    
C8    H10   S    
C11   H2    S    
C11   H11   S    
C21   C22   S    
C15   O7    A    
C15   C17   S    
C18   C19   A    
C22   H14   S    
C21   H16   S    
C9    N2    A    
C8    C9    A    
C9    C21   S    
Cu1   O7    S    
Cu1   Cu2   S    
Cu2   O2    S    
C14   O5    A    
Cu1   O3    S    
C12   C16   S    
C1    O1    A    
C4    C5    S    
Cu1   O5    S    
