data_mof_unit_54355.cif
_audit_creation_date              2013-03-05T16:41:05-0500
_audit_creation_method            fapswitch 2.2
_symmetry_space_group_name_H-M    P1
_symmetry_Int_Tables_number       1
_space_group_crystal_system       triclinic
_cell_length_a                    8.56264
_cell_length_b                    10.864084
_cell_length_c                    9.908893
_cell_angle_alpha                 88.990558
_cell_angle_beta                  99.160591
_cell_angle_gamma                 92.365156
_cell_volume                      909.188546

loop_
_atom_site_label
_atom_site_type_symbol
_atom_site_description
_atom_site_fract_x
_atom_site_fract_y
_atom_site_fract_z
_atom_type_partial_charge
O1    O     O_R   0.500020 0.316790 0.614690 -0.608971
O2    O     O_R   0.500000 0.316760 0.385350 -0.637943
C1    C     C_R   0.502169 0.260680 0.500974 0.931385
O3    O     O_R   0.271760 0.500010 0.587850 -0.574002
O4    O     O_R   0.271740 0.499970 0.358500 -0.625844
C2    C     C_R   0.201513 0.503066 0.464238 0.970769
Zn1   Zn    Zn3+2 0.500010 0.500020 0.653130 0.963350
Zn2   Zn    Zn3+2 0.499990 0.499980 0.346870 0.939649
O5    O     O_R   0.500000 0.683240 0.614650 -0.638619
O6    O     O_R   0.499980 0.683210 0.385310 -0.622066
O7    O     O_R   0.728260 0.500030 0.641500 -0.611671
O8    O     O_R   0.728240 0.499990 0.412150 -0.650240
C3    C     C_R   0.505061 0.739872 0.498954 0.877375
C4    C     C_R   0.798767 0.509070 0.535352 0.964820
C5    C     C_2   0.035731 0.497997 0.448487 -0.368780
H1    H     H_    0.974599 0.444321 0.362828 0.139799
C6    C     C_2   0.963095 0.538883 0.548809 0.062503
C7    C     C_R   0.533212 0.060608 0.618986 0.056254
C8    C     C_R   0.513465 0.130175 0.500375 -0.118184
C9    C     C_R   0.509439 0.069679 0.375747 -0.202701
H2    H     H_    0.501158 0.121937 0.281134 0.163876
C10   C     C_R   0.511507 0.941375 0.370571 0.155377
C11   C     C_R   0.518597 0.872006 0.495496 -0.124044
C12   C     C_R   0.537508 0.936905 0.617477 0.007606
C13   C     C_3   0.543437 0.926287 0.770414 0.445873
C14   C     C_3   0.531957 0.068040 0.768543 -0.162679
H3    H     H_    0.415321 0.095643 0.788901 0.190874
C15   C     C_R   0.370562 0.455150 0.054708 0.158640
N1    N     N_R   0.498950 0.499140 0.142680 -0.135799
C16   C     C_R   0.621564 0.552580 0.089306 -0.101226
H4    H     H_    0.720867 0.592270 0.158324 0.161467
C17   C     C_R   0.623887 0.551174 0.946633 0.167419
N2    N     N_R   0.498950 0.499180 0.857030 -0.148562
C18   C     C_R   0.369985 0.455826 0.911339 0.064992
C19   C     C_3   0.309133 0.325031 0.903245 0.129145
C20   C     C_3   0.304728 0.325823 0.056435 -0.184903
H5    H     H_    0.400705 0.265861 0.878025 0.079358
H6    H     H_    0.390422 0.262107 0.113436 0.156650
C21   C     C_3   0.770432 0.600759 0.898716 -0.707379
H7    H     H_    0.737739 0.658056 0.806699 0.288353
H8    H     H_    0.845122 0.658744 0.976961 0.236574
H9    H     H_    0.842470 0.523186 0.878392 0.263402
N3    N     N_R   0.157032 0.306099 0.813315 0.246906
O9    O     O_R   0.039506 0.376874 0.818250 -0.445685
O10   O     O_R   0.141038 0.219811 0.722278 -0.408369
C22   C     C_3   0.142352 0.315158 0.103305 -0.710017
H10   H     H_    0.159143 0.306329 0.216327 0.230651
H11   H     H_    0.071160 0.397250 0.072979 0.253410
H12   H     H_    0.076244 0.230935 0.060380 0.254562
C23   C     C_3   0.034963 0.636228 0.651013 -0.787639
H13   H     H_    0.116678 0.700537 0.605082 0.225196
H14   H     H_    0.941691 0.693243 0.680030 0.246856
H15   H     H_    0.099827 0.593747 0.744785 0.283921
C24   C     C_3   0.503337 0.885289 0.230746 -0.757691
H16   H     H_    0.608349 0.829231 0.228256 0.271958
H17   H     H_    0.392269 0.828349 0.204514 0.243467
H18   H     H_    0.503700 0.956619 0.149063 0.225111
C25   C     C_3   0.399232 0.857787 0.815701 -0.887958
H19   H     H_    0.416534 0.757312 0.824208 0.269395
H20   H     H_    0.382755 0.890352 0.917787 0.244815
H21   H     H_    0.289580 0.874933 0.742535 0.236986
N4    N     N_R   0.695344 0.885084 0.843529 0.220082
O11   O     O_R   0.818280 0.882092 0.781494 -0.439100
O12   O     O_R   0.715929 0.874866 0.976148 -0.437037
C26   C     C_3   0.674683 0.142421 0.845536 -0.715541
H22   H     H_    0.786855 0.119852 0.810339 0.300898
H23   H     H_    0.659204 0.242595 0.829719 0.244622
H24   H     H_    0.684720 0.123020 0.956863 0.238304

loop_
_geom_bond_atom_site_label_1
_geom_bond_atom_site_label_2
_geom_bond_distance
_ccdc_geom_bond_type
C6    C23   1.519333 S    
O4    Zn2   1.976042 S    
C23   H14   1.106530 S    
C11   C12   1.393766 A    
C1    C8    1.425272 S    
N1    C16   1.354520 A    
C16   C17   1.417403 A    
Zn1   N2    2.021746 S    
C24   H16   1.110326 S    
C19   C20   1.524585 S    
C4    C6    1.416586 S    
C16   H4    1.082411 S    
Zn2   O8    1.958477 S    
C26   H24   1.109871 S    
C17   N2    1.384627 A    
C25   H21   1.111220 S    
C20   H6    1.110304 S    
C23   H13   1.111163 S    
C13   C14   1.546792 S    
C15   C18   1.419743 A    
C21   H8    1.110434 S    
C9    H2    1.081514 S    
Zn1   O7    1.976042 S    
C20   C22   1.533835 S    
N3    O10   1.300442 A    
C22   H12   1.110347 S    
C3    C11   1.435657 S    
C14   H3    1.104105 S    
N4    O11   1.302512 A    
O3    Zn1   1.958478 S    
C7    C12   1.346348 A    
Zn2   N1    2.022078 S    
Zn2   O6    2.033326 S    
C15   N1    1.364919 A    
C19   H5    1.095517 S    
O8    C4    1.276462 A    
N2    C18   1.366827 A    
C21   H9    1.104413 S    
O2    C1    1.285978 A    
C13   N4    1.467558 S    
C26   H22   1.110594 S    
N3    O9    1.298917 A    
O4    C2    1.289970 A    
O7    C4    1.293867 A    
C24   H17   1.110447 S    
C2    C5    1.402057 S    
C23   H15   1.107504 S    
C13   C25   1.539047 S    
C5    C6    1.344451 D    
C10   C24   1.513657 S    
C25   H20   1.109279 S    
C5    H1    1.088697 S    
C22   H11   1.111043 S    
C19   N3    1.465395 S    
C12   C13   1.510719 S    
C15   C20   1.492982 S    
O3    C2    1.276250 A    
C18   C19   1.492207 S    
C17   C21   1.488319 S    
C21   H7    1.100134 S    
Zn1   O5    2.020101 S    
O5    C3    1.297484 A    
C22   H10   1.109143 S    
C7    C8    1.377357 A    
N4    O12   1.301152 A    
C26   H23   1.107167 S    
C25   H19   1.107566 S    
O1    Zn1   2.033327 S    
C14   C26   1.540104 S    
O6    C3    1.286667 A    
C10   C11   1.432113 A    
O2    Zn2   2.020100 S    
C8    C9    1.404053 A    
C9    C10   1.396690 A    
O1    C1    1.293578 A    
C24   H18   1.110919 S    
C7    C14   1.487324 S    
