data_mof_unit_17335.cif
_audit_creation_date              2012-12-10T19:47:26-0500
_audit_creation_method            fapswitch 2.2
_symmetry_space_group_name_H-M    P1
_symmetry_Int_Tables_number       1
_space_group_crystal_system       triclinic
_cell_length_a                    10.812018
_cell_length_b                    10.863613
_cell_length_c                    12.71672
_cell_angle_alpha                 92.982087
_cell_angle_beta                  92.958431
_cell_angle_gamma                 89.945891
_cell_volume                      1489.66220519

loop_
_atom_site_label
_atom_site_type_symbol
_atom_type_description
_atom_site_fract_x
_atom_site_fract_y
_atom_site_fract_z
_atom_type_partial_charge
C1    C     C_R   0.261961 0.497677 0.500657 0.782987
C2    C     C_R   0.827895 0.750665 0.357147 0.137565
C3    C     C_R   0.131336 0.371445 0.664786 0.054555
C4    C     C_R   0.868660 0.628591 0.335231 0.054580
C5    C     C_R   0.148374 0.425554 0.767970 0.193005
C6    C     C_R   0.851641 0.574534 0.232024 0.192994
C7    C     C_R   0.205733 0.357271 0.847666 -0.173688
C8    C     C_R   0.794338 0.642879 0.152339 -0.173735
C9    C     C_R   0.245813 0.237100 0.825363 -0.210302
C10   C     C_R   0.754289 0.763056 0.174672 -0.210298
C11   C     C_R   0.938093 0.446034 0.579256 -0.208664
C12   C     C_R   0.738037 0.502321 0.499342 0.782972
C13   C     C_R   0.061901 0.553951 0.420737 -0.208662
C14   C     C_R   0.871612 0.503510 0.498507 -0.099126
C15   C     C_R   0.128384 0.496480 0.501489 -0.099186
C16   C     C_R   0.503629 0.261881 0.500909 0.789386
C17   C     C_R   0.496371 0.738118 0.499091 0.789351
C18   C     C_R   0.933737 0.559196 0.418752 0.026832
C19   C     C_R   0.066256 0.440795 0.581243 0.026743
C20   C     C_2   0.478681 0.456720 0.031023 -0.279709
C21   C     C_2   0.521340 0.543280 0.968978 -0.279701
C22   C     C_1   0.520342 0.528113 0.852849 0.214477
C23   C     C_R   0.494329 0.871721 0.497559 -0.073885
C24   C     C_1   0.479668 0.471887 0.147151 0.214466
C25   C     C_R   0.762631 0.250207 0.786587 -0.125588
C26   C     C_R   0.237406 0.749771 0.213402 -0.125575
C27   C     C_R   0.711190 0.196198 0.691862 -0.097029
C28   C     C_R   0.288828 0.803792 0.308129 -0.097016
C29   C     C_R   0.600859 0.127756 0.691320 0.137289
C30   C     C_R   0.399156 0.872241 0.308678 0.137274
C31   C     C_R   0.545130 0.111748 0.787153 -0.145208
C32   C     C_R   0.454903 0.888244 0.212853 -0.145182
C33   C     C_R   0.596018 0.167064 0.881207 -0.149540
C34   C     C_R   0.505670 0.128279 0.502442 -0.073886
C35   C     C_R   0.404031 0.832920 0.118795 -0.149529
C36   C     C_R   0.704467 0.236638 0.880879 -0.102091
C37   C     C_R   0.295584 0.763340 0.119115 -0.102102
C38   C     C_R   0.540392 0.938057 0.588507 -0.231263
C39   C     C_R   0.459607 0.061943 0.411495 -0.231274
C40   C     C_R   0.452509 0.934323 0.407586 0.000855
C41   C     C_R   0.547493 0.065676 0.592416 0.000854
C42   C     C_R   0.228930 0.183439 0.723567 -0.088666
C43   C     C_R   0.771143 0.816662 0.276495 -0.088694
C44   C     C_R   0.172126 0.249374 0.642909 0.137575
Cu1   Cu    Cu3+1 0.492140 0.492110 0.395880 0.976676
Cu2   Cu    Cu3+1 0.507860 0.507890 0.604120 0.976681
H1    H     H_    0.744161 0.278966 0.953865 0.122907
H2    H     H_    0.151850 0.698224 0.212363 0.127527
H3    H     H_    0.757479 0.206690 0.619327 0.100274
H4    H     H_    0.242529 0.793299 0.380660 0.100281
H5    H     H_    0.462589 0.055886 0.789090 0.111369
H6    H     H_    0.537447 0.944105 0.210924 0.111378
H7    H     H_    0.551915 0.155055 0.954493 0.116777
H8    H     H_    0.448147 0.844927 0.045513 0.116777
H9    H     H_    0.574600 0.890019 0.656797 0.160359
H10   H     H_    0.425400 0.109979 0.343204 0.160359
H11   H     H_    0.289575 0.185173 0.887384 0.136807
H12   H     H_    0.255905 0.721003 0.046127 0.122895
H13   H     H_    0.710568 0.815025 0.112655 0.136812
H14   H     H_    0.259145 0.089674 0.707246 0.142438
H15   H     H_    0.740939 0.910428 0.292839 0.142437
H16   H     H_    0.162105 0.608385 0.751131 0.227316
H17   H     H_    0.121359 0.573298 0.871371 0.203353
H18   H     H_    0.837711 0.391672 0.248674 0.227331
H19   H     H_    0.878807 0.426886 0.128551 0.203383
H20   H     H_    0.060127 0.190899 0.517865 0.223314
H21   H     H_    0.201988 0.239709 0.486845 0.215856
H22   H     H_    0.939820 0.808943 0.482312 0.223305
H23   H     H_    0.219043 0.397023 0.927278 0.135539
H24   H     H_    0.797862 0.760259 0.513180 0.215836
H25   H     H_    0.781041 0.603166 0.072710 0.135539
H26   H     H_    0.889784 0.402521 0.639676 0.147398
H27   H     H_    0.110211 0.597469 0.360319 0.147391
H28   H     H_    0.557300 0.629305 0.005499 0.159141
H29   H     H_    0.442721 0.370695 0.994502 0.159132
H30   H     H_    0.848193 0.301743 0.787621 0.127531
N1    N     N_1   0.480320 0.480250 0.239400 -0.154487
N2    N     N_1   0.519680 0.519750 0.760600 -0.154475
N3    N     N_3   0.106773 0.549272 0.790987 -0.596290
N4    N     N_3   0.893190 0.450802 0.208972 -0.596316
N5    N     N_3   0.154560 0.189671 0.540081 -0.601616
N6    N     N_3   0.845410 0.810288 0.460015 -0.601601
O1    O     O_R   0.313000 0.493330 0.412070 -0.577530
O2    O     O_R   0.687000 0.506670 0.587930 -0.577540
O3    O     O_R   0.326280 0.506660 0.587930 -0.577210
O4    O     O_R   0.673720 0.493340 0.412070 -0.577207
O5    O     O_R   0.493370 0.312980 0.412070 -0.590375
O6    O     O_R   0.506630 0.687020 0.587930 -0.590377
O7    O     O_R   0.506650 0.326310 0.587930 -0.561625
O8    O     O_R   0.493350 0.673690 0.412070 -0.561628

loop_
_geom_bond_atom_site_label_1
_geom_bond_atom_site_label_2
_ccdc_geom_bond_type
C27   C29   A    
C17   O6    A    
C14   C18   A    
Cu2   O7    S    
H17   N3    S    
Cu1   Cu2   S    
C15   C19   A    
C11   C19   A    
C9    C42   A    
C17   C23   S    
C13   C18   A    
Cu1   O5    S    
C11   C14   A    
C23   C40   A    
C33   C36   A    
C12   O2    A    
C36   H1    S    
C32   H6    S    
C16   C34   S    
C28   H4    S    
C38   H9    S    
C20   C24   S    
C16   O5    A    
C31   C33   A    
C3    C19   S    
C1    C15   S    
C5    N3    S    
C37   H12   S    
C26   H2    S    
Cu2   O3    S    
C4    C18   S    
C16   O7    A    
H19   N4    S    
C21   C22   S    
C35   H8    S    
C1    O3    A    
H18   N4    S    
Cu1   O1    S    
C34   C41   A    
C42   C44   A    
Cu2   O6    S    
C33   H7    S    
C3    C44   A    
C34   C39   A    
C32   C35   A    
H16   N3    S    
C22   N2    T    
C38   C41   A    
C4    C6    A    
C44   N5    S    
C42   H14   S    
C39   C40   A    
C5    C7    A    
C11   H26   S    
C6    C8    A    
C21   H28   S    
C43   H15   S    
C20   H29   S    
C2    C4    A    
C31   H5    S    
C6    N4    S    
C39   H10   S    
C2    C43   A    
C30   C40   S    
Cu1   O8    S    
Cu2   O2    S    
C13   H27   S    
H21   N5    S    
C13   C15   A    
C2    N6    S    
C25   C27   A    
C35   C37   A    
Cu2   N2    S    
C7    C9    A    
C8    H25   S    
C29   C41   S    
C10   C43   A    
C17   O8    A    
C12   C14   S    
C3    C5    A    
C7    H23   S    
C26   C37   A    
C1    O1    A    
C23   C38   A    
C26   C28   A    
C12   O4    A    
C25   H30   S    
H22   N6    S    
C28   C30   A    
Cu1   O4    S    
C29   C31   A    
H20   N5    S    
C30   C32   A    
C10   H13   S    
C9    H11   S    
H24   N6    S    
C25   C36   A    
C24   N1    T    
C20   C21   D    
C8    C10   A    
Cu1   N1    S    
C27   H3    S    
