data_mof_unit_22720.cif
_audit_creation_date              2012-12-10T17:01:33-0500
_audit_creation_method            fapswitch 2.2
_symmetry_space_group_name_H-M    P1
_symmetry_Int_Tables_number       1
_space_group_crystal_system       triclinic
_cell_length_a                    12.83979
_cell_length_b                    10.702782
_cell_length_c                    10.118357
_cell_angle_alpha                 91.324884
_cell_angle_beta                  97.332548
_cell_angle_gamma                 89.558754
_cell_volume                      1378.72381563

loop_
_atom_site_label
_atom_site_type_symbol
_atom_type_description
_atom_site_fract_x
_atom_site_fract_y
_atom_site_fract_z
_atom_type_partial_charge
C1    C     C_R   0.497288 0.262892 0.497629 0.870631
C2    C     C_R   0.029234 0.451954 0.549670 -0.184385
C3    C     C_R   0.973039 0.532484 0.457143 -0.101066
C4    C     C_R   0.867115 0.549829 0.459126 -0.128629
C5    C     C_R   0.869877 0.405537 0.643610 0.189044
C6    C     C_R   0.978146 0.391851 0.644757 0.660817
C7    C     C_2   0.456350 0.932158 0.387616 0.518842
C8    C     C_2   0.461300 0.865842 0.498618 0.406175
C9    C     C_2   0.439299 0.064988 0.395859 0.170300
C10   C     C_2   0.500076 0.130374 0.491313 0.398775
C11   C     C_2   0.501381 0.595327 0.934765 0.434773
C12   C     C_R   0.298640 0.500712 0.473451 0.969083
C13   C     C_2   0.543168 0.581003 0.077001 0.534203
C14   C     C_R   0.492097 0.736950 0.499966 0.828064
C15   C     C_R   0.701645 0.494856 0.527243 0.919544
C16   C     C_R   0.814497 0.483772 0.546669 -0.240860
C17   C     C_R   0.186432 0.502770 0.457247 -0.331447
C18   C     C_R   0.023292 0.594708 0.363252 -0.152149
C19   C     C_R   0.130454 0.580259 0.363408 0.612886
C20   C     C_R   0.136062 0.435472 0.546710 0.655724
H1    H     H_    0.824877 0.614643 0.391054 0.233760
H2    H     H_    0.980083 0.656186 0.291921 0.206773
N1    N     N_2   0.501130 0.501330 0.852280 0.128253
N2    N     N_2   0.501160 0.501360 0.147950 0.129067
O1    O     O_R   0.499980 0.319060 0.613040 -0.495308
O2    O     O_R   0.500020 0.319100 0.386900 -0.605001
O3    O     O_R   0.346340 0.499960 0.594380 -0.570262
O4    O     O_R   0.346380 0.500000 0.368250 -0.521053
O5    O     O_R   0.499980 0.680900 0.613100 -0.569547
O6    O     O_R   0.500020 0.680940 0.386960 -0.575966
O7    O     O_R   0.653620 0.500000 0.631750 -0.566790
O8    O     O_R   0.653660 0.500040 0.405620 -0.589021
Zn1   Zn    Zn3+2 0.499980 0.499970 0.650990 1.249052
Zn2   Zn    Zn3+2 0.500020 0.500030 0.349010 1.231784
F1    F     F_    0.575343 0.073770 0.577262 -0.578277
S1    S     S_3+6 0.437698 0.736955 0.889204 0.153569
O9    O     O_2   0.516683 0.827484 0.850339 -0.147964
O10   O     O_2   0.351692 0.715669 0.775751 -0.252063
O11   O     O_3   0.384797 0.796931 0.020534 -0.445592
H3    H     H_    0.356770 0.879769 0.991623 0.429885
F2    F     F_    0.547357 0.397288 0.903286 -0.465340
S2    S     S_3+6 0.666463 0.647647 0.132297 0.079508
O12   O     O_2   0.662225 0.728007 0.254993 -0.269913
O13   O     O_2   0.744277 0.543338 0.162122 -0.292320
O14   O     O_3   0.705203 0.735069 0.011681 -0.500608
H4    H     H_    0.777720 0.760977 0.045953 0.401162
F3    F     F_    0.412303 0.449213 0.088153 -0.474306
S3    S     S_3+6 0.807328 0.322946 0.762228 0.170986
O15   O     O_2   0.773095 0.414915 0.862758 -0.151918
O16   O     O_2   0.712558 0.256151 0.693455 -0.225716
O17   O     O_3   0.887181 0.216962 0.843977 -0.400240
H5    H     H_    0.889628 0.145797 0.780040 0.387215
F4    F     F_    0.033889 0.320898 0.738682 -0.531108
F5    F     F_    0.180010 0.646511 0.277256 -0.574214
F6    F     F_    0.192259 0.355106 0.630969 -0.531734
F7    F     F_    0.474909 0.881647 0.268290 -0.561226
F8    F     F_    0.430597 0.917544 0.611877 -0.559543
S4    S     S_3+6 0.340107 0.129536 0.278553 0.128382
O18   O     O_2   0.278325 0.226673 0.345251 -0.299604
O19   O     O_2   0.390031 0.187860 0.168611 -0.144960
O20   O     O_3   0.258776 0.015269 0.213222 -0.469313
H6    H     H_    0.209314 0.056299 0.144149 0.409184

loop_
_geom_bond_atom_site_label_1
_geom_bond_atom_site_label_2
_ccdc_geom_bond_type
C12   C17   S    
C4    C16   A    
O7    Zn1   S    
C15   O7    A    
C10   F1    S    
C8    F8    S    
C9    C10   D    
C13   S2    S    
O20   H6    S    
N1    F2    S    
S4    O20   S    
S1    O10   D    
C2    C3    A    
O4    Zn2   S    
C15   O8    A    
O14   H4    S    
O3    Zn1   S    
C1    O1    A    
C4    H1    S    
C11   C13   S    
C2    C6    A    
S2    O13   D    
C7    F7    S    
C14   O6    A    
C20   F6    S    
C15   C16   S    
C19   F5    S    
S3    O16   D    
C11   S1    S    
C17   C19   A    
C12   O4    A    
C18   C19   A    
S1    O11   S    
C5    C6    A    
C5    S3    S    
C1    O2    A    
S2    O12   D    
O6    Zn2   S    
C6    F4    S    
C2    C20   A    
C3    C4    A    
O5    Zn1   S    
C7    C8    D    
C17   C20   A    
C3    C18   A    
S1    O9    D    
C9    S4    S    
C11   N1    D    
O11   H3    S    
C7    C9    S    
S3    O15   D    
C5    C16   A    
C8    C14   S    
C12   O3    A    
S4    O18   D    
C18   H2    S    
N2    F3    S    
S4    O19   D    
O2    Zn2   S    
S3    O17   S    
N2    Zn2   S    
C1    C10   S    
O17   H5    S    
C13   N2    D    
O1    Zn1   S    
C14   O5    A    
N1    Zn1   S    
S2    O14   S    
O8    Zn2   S    
