data_mof_unit_37964.cif
_audit_creation_date              2012-12-11T15:48:44-0500
_audit_creation_method            fapswitch 2.2
_symmetry_space_group_name_H-M    P1
_symmetry_Int_Tables_number       1
_space_group_crystal_system       triclinic
_cell_length_a                    10.928753
_cell_length_b                    11.015985
_cell_length_c                    18.757834
_cell_angle_alpha                 90.729143
_cell_angle_beta                  90.46766
_cell_angle_gamma                 60.398402
_cell_volume                      1963.36311701

loop_
_atom_site_label
_atom_site_type_symbol
_atom_type_description
_atom_site_fract_x
_atom_site_fract_y
_atom_site_fract_z
_atom_type_partial_charge
C1    C     C_R   0.238029 0.646356 0.609949 0.541224
C2    C     C_3   0.741030 0.511670 0.798593 -0.242759
C3    C     C_3   0.694681 0.666109 0.815782 0.059184
C4    C     C_3   0.667340 0.637348 0.679868 0.047909
C5    C     C_3   0.769486 0.693653 0.691286 -0.247835
C6    C     C_3   0.726592 0.495012 0.718327 -0.219780
C7    C     C_R   0.687912 0.132803 0.818283 -0.029805
C8    C     C_R   0.771368 0.176623 0.783993 -0.022271
C9    C     C_R   0.768112 0.185964 0.709968 -0.035115
C10   C     C_R   0.598902 0.104812 0.701693 0.232266
C11   C     C_R   0.599886 0.099258 0.775956 -0.154602
C12   C     C_R   0.651025 0.616725 0.603338 0.553395
C13   C     C_3   0.926753 0.111627 0.787193 -0.265473
C14   C     C_3   0.924933 0.115887 0.706623 -0.276800
C15   C     C_R   0.680718 0.153475 0.668577 0.034791
C16   C     C_R   0.176808 0.671496 0.834406 0.016239
C17   C     C_R   0.153806 0.577826 0.793839 0.019719
C18   C     C_R   0.160891 0.575545 0.720074 -0.001701
C19   C     C_R   0.196220 0.773501 0.724179 -0.181468
C20   C     C_R   0.199287 0.769355 0.798250 -0.181235
C21   C     C_3   0.227150 0.422893 0.798068 -0.281343
C22   C     C_3   0.234485 0.421067 0.717532 -0.278563
C23   C     C_R   0.631488 0.223346 0.600687 0.572266
C24   C     C_R   0.187516 0.669544 0.683599 0.014247
C25   C     C_R   0.674762 0.681182 0.174052 0.019738
C26   C     C_R   0.794672 0.613370 0.217205 0.048537
C27   C     C_R   0.787843 0.611556 0.289982 0.017134
C28   C     C_R   0.535644 0.755799 0.282099 -0.162925
C29   C     C_R   0.544529 0.761413 0.207623 -0.183117
C30   C     C_3   0.918061 0.469174 0.213387 -0.260067
C31   C     C_3   0.916972 0.470652 0.294230 -0.277498
C32   C     C_R   0.657339 0.670646 0.323237 0.017294
C33   C     C_R   0.628386 0.196506 0.167172 0.021809
C34   C     C_R   0.220362 0.648889 0.402248 0.548518
C35   C     C_R   0.512318 0.208942 0.204453 0.019835
C36   C     C_R   0.494704 0.244728 0.275422 0.006925
C37   C     C_R   0.687945 0.289799 0.270920 -0.162992
C38   C     C_R   0.708199 0.250649 0.198636 -0.168862
C39   C     C_3   0.464119 0.104626 0.214091 -0.264278
C40   C     C_3   0.445217 0.143774 0.292325 -0.266889
C41   C     C_R   0.589048 0.274286 0.311441 0.016875
C42   C     C_R   0.118133 0.692155 0.188164 0.029985
C43   C     C_R   0.055504 0.810145 0.232782 0.042654
C44   C     C_R   0.071583 0.798781 0.305210 0.017673
C45   C     C_R   0.642286 0.623993 0.392964 0.547435
C46   C     C_R   0.192968 0.547890 0.291523 -0.170167
C47   C     C_R   0.179908 0.559946 0.217944 -0.176270
C48   C     C_3   0.065223 0.940681 0.231533 -0.266048
C49   C     C_3   0.080251 0.930073 0.311752 -0.277776
C50   C     C_R   0.150794 0.667292 0.334991 0.021977
C51   C     C_R   0.704238 0.093596 0.893559 0.547703
C52   C     C_R   0.718861 0.684284 0.890844 0.538278
C53   C     C_R   0.118570 0.706218 0.906032 0.538959
C54   C     C_R   0.672612 0.111376 0.102691 0.547385
C55   C     C_R   0.698089 0.691613 0.098697 0.543034
C56   C     C_R   0.578399 0.295821 0.388397 0.567450
C57   C     C_R   0.089315 0.712722 0.113598 0.546069
C58   C     C_3   0.538839 0.756578 0.794524 -0.243697
C59   C     C_3   0.523045 0.735666 0.714800 -0.226116
C60   C     C_3   0.785431 0.710735 0.771500 -0.215418
Cr1   Cr    Cr6+3 0.392960 0.397920 0.502240 0.998800
Cr2   Cr    Cr6+3 0.398340 0.708480 0.501250 1.000690
Cr3   Cr    Cr6+3 0.708670 0.393570 0.496460 0.998347
Cr4   Cr    Cr6+3 0.937650 0.938540 0.007610 1.004973
Cr5   Cr    Cr6+3 0.625330 0.937370 0.994520 1.000525
Cr6   Cr    Cr6+3 0.937940 0.625230 0.001190 1.004653
H1    H     H_    0.500696 0.868913 0.805431 0.133033
H2    H     H_    0.831772 0.419397 0.696717 0.139993
H3    H     H_    0.897012 0.644373 0.786300 0.142475
H4    H     H_    0.874065 0.619818 0.667961 0.119078
H5    H     H_    0.541082 0.055400 0.799899 0.142875
H6    H     H_    0.974458 0.005607 0.809334 0.173958
H7    H     H_    0.961115 0.181475 0.812636 0.124072
H8    H     H_    0.963985 0.183617 0.684881 0.126154
H9    H     H_    0.969938 0.011760 0.680455 0.148007
H10   H     H_    0.214032 0.851556 0.699270 0.131090
H11   H     H_    0.473048 0.725883 0.826153 0.113085
H12   H     H_    0.212246 0.848048 0.827159 0.128522
H13   H     H_    0.157240 0.384650 0.818579 0.135883
H14   H     H_    0.331914 0.378332 0.824409 0.141567
H15   H     H_    0.343884 0.377007 0.697741 0.166972
H16   H     H_    0.167339 0.383417 0.691695 0.113176
H17   H     H_    0.432472 0.808389 0.306314 0.137137
H18   H     H_    0.450311 0.823958 0.176606 0.120935
H19   H     H_    0.011748 0.465234 0.189546 0.157236
H20   H     H_    0.890188 0.393238 0.189734 0.126740
H21   H     H_    0.903407 0.386742 0.317336 0.147814
H22   H     H_    0.456262 0.686903 0.707959 0.133353
H23   H     H_    0.005847 0.477212 0.318636 0.142350
H24   H     H_    0.755838 0.321245 0.296391 0.131736
H25   H     H_    0.793439 0.250272 0.169624 0.112282
H26   H     H_    0.550263 0.996635 0.203919 0.166809
H27   H     H_    0.363455 0.134639 0.185840 0.132489
H28   H     H_    0.333345 0.196376 0.309393 0.126786
H29   H     H_    0.519556 0.057183 0.327126 0.166202
H30   H     H_    0.247063 0.444684 0.313812 0.141129
H31   H     H_    0.222072 0.467019 0.184616 0.121201
H32   H     H_    0.965944 0.031441 0.213680 0.153047
H33   H     H_    0.470828 0.837138 0.688282 0.157786
H34   H     H_    0.161574 0.926230 0.204205 0.135250
H35   H     H_    0.183865 0.914501 0.329836 0.155012
H36   H     H_    0.987950 0.014529 0.340187 0.148873
H37   H     H_    0.757101 0.820223 0.783860 0.133227
H38   H     H_    0.730911 0.794584 0.663921 0.184368
H39   H     H_    0.852625 0.441881 0.814271 0.135035
H40   H     H_    0.675177 0.478470 0.828553 0.119951
H41   H     H_    0.653720 0.453260 0.709086 0.129886
O1    O     O_R   0.507380 0.255700 0.581440 -0.502811
O2    O     O_R   0.524480 0.695810 0.424040 -0.506209
O3    O     O_R   0.736390 0.504290 0.414790 -0.534077
O4    O     O_R   0.691300 0.277290 0.422170 -0.508625
O5    O     O_3   0.499990 0.499990 0.499980 -0.275289
O6    O     O_R   0.089400 0.825690 0.930570 -0.533337
O7    O     O_R   0.818460 0.054440 0.929850 -0.498455
O8    O     O_R   0.606060 0.077150 0.915510 -0.536631
O9    O     O_R   0.646550 0.806680 0.917570 -0.514370
O10   O     O_R   0.837170 0.593410 0.915250 -0.529048
O11   O     O_R   0.065200 0.635530 0.931570 -0.498797
O12   O     O_R   0.280320 0.527350 0.578930 -0.508603
O13   O     O_R   0.068260 0.828890 0.091840 -0.523545
O14   O     O_R   0.798870 0.057410 0.079340 -0.506797
O15   O     O_R   0.584930 0.080350 0.076780 -0.519901
O16   O     O_R   0.626960 0.809650 0.067060 -0.506922
O17   O     O_R   0.816040 0.596610 0.076510 -0.521047
O18   O     O_R   0.045610 0.638500 0.081060 -0.508735
O19   O     O_3   0.833640 0.833710 0.001100 -0.249849
O20   O     O_R   0.260510 0.739590 0.584590 -0.533450
O21   O     O_R   0.532300 0.695080 0.573820 -0.500315
O22   O     O_R   0.744840 0.503500 0.576370 -0.529490
O23   O     O_R   0.699120 0.276560 0.571960 -0.508819
O24   O     O_R   0.498940 0.256500 0.419860 -0.518809
O25   O     O_R   0.272500 0.528080 0.429150 -0.528099
O26   O     O_R   0.252060 0.740380 0.423010 -0.523700
O27   O     O_3   0.542891 0.037960 0.660440 -0.575386
C61   C     C_3   0.395107 0.103749 0.666422 -0.124409
H42   H     H_    0.357616 0.122189 0.722479 0.088216
H43   H     H_    0.357564 0.037656 0.640190 0.118885
H44   H     H_    0.344665 0.199706 0.634616 0.158226

loop_
_geom_bond_atom_site_label_1
_geom_bond_atom_site_label_2
_ccdc_geom_bond_type
C44   C49   S    
C61   H44   S    
C8    C13   S    
Cr1   O12   S    
C59   H33   S    
C32   C45   S    
C19   C20   A    
C9    C14   S    
C7    C8    A    
C7    C11   A    
C28   C32   A    
C26   C27   A    
C5    H4    S    
C37   H24   S    
C18   C24   A    
C14   H8    S    
Cr2   O26   S    
C28   C29   A    
C10   C15   A    
C57   O18   A    
C30   C31   S    
C11   H5    S    
Cr4   O14   S    
C4    C59   S    
C1    O12   A    
Cr3   O23   S    
Cr3   O5    S    
Cr1   O1    S    
C16   C53   S    
C39   H27   S    
Cr1   O25   S    
C59   H22   S    
C35   C36   A    
C8    C9    A    
C31   H23   S    
Cr6   O10   S    
C6    H41   S    
C30   H20   S    
C60   H37   S    
C43   C48   S    
C56   O4    A    
C58   H11   S    
C3    C60   S    
C15   C23   S    
C54   O15   A    
C5    H38   S    
C34   O25   A    
C18   C22   S    
C21   C22   S    
C28   H17   S    
C37   C41   A    
Cr5   O8    S    
C36   C41   A    
C2    C6    S    
C42   C57   S    
C53   O6    A    
C52   O9    A    
C25   C29   A    
C48   H34   S    
C55   O16   A    
C34   C50   S    
C51   O7    A    
Cr4   O7    S    
C12   O22   A    
C27   C31   S    
C22   H15   S    
C1    O20   A    
C61   H42   S    
C31   H21   S    
C29   H18   S    
C4    C6    S    
C49   H36   S    
C53   O11   A    
C16   C17   A    
C34   O26   A    
C25   C26   A    
C38   H25   S    
C2    H40   S    
C51   O8    A    
Cr6   O19   S    
C23   O23   A    
C35   C39   S    
C43   C44   A    
C41   C56   S    
C37   C38   A    
C36   C40   S    
C16   C20   A    
C21   H13   S    
C17   C18   A    
Cr2   O5    S    
Cr5   O15   S    
C30   H19   S    
C57   O13   A    
C48   C49   S    
C54   O14   A    
C13   H7    S    
C26   C30   S    
Cr4   O19   S    
Cr6   O11   S    
Cr5   O9    S    
Cr6   O17   S    
C4    C12   S    
C42   C43   A    
C40   H29   S    
C22   H16   S    
C39   H26   S    
C39   C40   S    
C49   H35   S    
C44   C50   A    
C33   C54   S    
C61   H43   S    
C46   C47   A    
C19   H10   S    
Cr4   O6    S    
C5    C60   S    
C27   C32   A    
C45   O3    A    
Cr5   O16   S    
C10   O27   S    
C40   H28   S    
C4    C5    S    
C47   H31   S    
C3    C52   S    
O27   C61   S    
C12   O21   A    
C13   H6    S    
C48   H32   S    
C46   C50   A    
C2    H39   S    
C33   C38   A    
Cr4   O13   S    
Cr6   O18   S    
C20   H12   S    
C14   H9    S    
Cr3   O3    S    
C19   C24   A    
C58   C59   S    
C7    C51   S    
Cr5   O19   S    
Cr2   O21   S    
Cr2   O20   S    
Cr2   O2    S    
C60   H3    S    
C23   O1    A    
C21   H14   S    
C6    H2    S    
C33   C35   A    
C25   C55   S    
C2    C3    S    
C45   O2    A    
C42   C47   A    
Cr3   O22   S    
Cr3   O4    S    
C17   C21   S    
C56   O24   A    
C10   C11   A    
Cr1   O24   S    
C3    C58   S    
C58   H1    S    
C46   H30   S    
C1    C24   S    
C55   O17   A    
C52   O10   A    
C13   C14   S    
Cr1   O5    S    
C9    C15   A    
