data_mof_unit_25542.cif
_audit_creation_date              2012-12-10T18:33:45-0500
_audit_creation_method            fapswitch 2.2
_symmetry_space_group_name_H-M    P1
_symmetry_Int_Tables_number       1
_space_group_crystal_system       triclinic
_cell_length_a                    10.489289
_cell_length_b                    15.1177
_cell_length_c                    15.618602
_cell_angle_alpha                 81.925796
_cell_angle_beta                  91.599698
_cell_angle_gamma                 103.086427
_cell_volume                      2388.44877871

loop_
_atom_site_label
_atom_site_type_symbol
_atom_type_description
_atom_site_fract_x
_atom_site_fract_y
_atom_site_fract_z
_atom_type_partial_charge
Br1   Br    Br    0.610791 0.242210 0.578680 -0.554643
Br2   Br    Br    0.609771 0.845207 0.094226 -0.341638
Br3   Br    Br    0.389196 0.757790 0.421327 -0.554669
Br4   Br    Br    0.250710 0.334665 0.322487 -0.442582
Br5   Br    Br    0.749336 0.665351 0.677486 -0.442758
Br6   Br    Br    0.740572 0.848769 0.768315 -0.360271
Br7   Br    Br    0.259522 0.151264 0.231651 -0.360225
Br8   Br    Br    0.554346 0.218422 0.071234 -0.348498
Br9   Br    Br    0.446036 0.781604 0.928737 -0.348509
Br10  Br    Br    0.390316 0.154853 0.905829 -0.341641
C1    C     C_R   0.481179 0.442242 0.661369 0.890467
C2    C     C_R   0.511142 0.488109 0.044082 0.042301
C3    C     C_R   0.528514 0.398711 0.073461 -0.228345
C4    C     C_R   0.472044 0.601353 0.926520 -0.228286
C5    C     C_R   0.508107 0.330373 0.020197 0.320527
C6    C     C_R   0.492355 0.669680 0.979790 0.320543
C7    C     C_R   0.650587 0.829363 0.660492 0.173495
C8    C     C_R   0.349445 0.170646 0.339496 0.173457
C9    C     C_R   0.649019 0.749700 0.624122 0.308178
C10   C     C_R   0.351001 0.250306 0.375868 0.308213
C11   C     C_R   0.519451 0.796646 0.506016 0.278843
C12   C     C_R   0.518848 0.557759 0.338632 0.890493
C13   C     C_R   0.480545 0.203354 0.493986 0.278834
C14   C     C_R   0.539673 0.884929 0.531718 -0.096009
C15   C     C_R   0.460331 0.115072 0.468280 -0.096008
C16   C     C_R   0.741582 0.499527 0.501614 0.883896
C17   C     C_R   0.258417 0.500472 0.498386 0.883930
C18   C     C_R   0.587954 0.894826 0.616222 -0.021859
C19   C     C_R   0.412062 0.105177 0.383773 -0.021870
C20   C     C_R   0.505954 0.961580 0.480279 0.124606
C21   C     C_R   0.494050 0.038419 0.519720 0.124604
C22   C     C_R   0.509244 0.033698 0.609812 -0.164049
C23   C     C_R   0.486395 0.471372 0.810865 -0.211103
C24   C     C_R   0.490763 0.966301 0.390186 -0.164042
C25   C     C_R   0.566132 0.967515 0.655840 -0.073369
C26   C     C_R   0.433883 0.032486 0.344157 -0.073362
C27   C     C_3   0.930962 0.414188 0.493486 -0.140098
C28   C     C_3   0.069036 0.585810 0.506514 -0.140096
C29   C     C_3   0.027253 0.441936 0.566299 0.111863
C30   C     C_3   0.972746 0.558063 0.433701 0.111850
C31   C     C_3   0.123135 0.500923 0.498388 -0.051554
C32   C     C_3   0.876864 0.499076 0.501613 -0.051539
C33   C     C_3   0.029014 0.474093 0.424806 -0.189876
C34   C     C_R   0.514031 0.528655 0.189135 -0.211093
C35   C     C_3   0.970985 0.525906 0.575194 -0.189862
C36   C     C_R   0.470749 0.407827 0.753520 -0.120185
C37   C     C_R   0.529407 0.592183 0.246486 -0.120182
C38   C     C_R   0.447202 0.285160 0.873645 0.313627
C39   C     C_R   0.552994 0.714876 0.126372 0.313573
C40   C     C_R   0.445304 0.314500 0.784834 -0.227680
C41   C     C_R   0.554746 0.685518 0.215184 -0.227708
C42   C     C_3   0.067418 0.377467 0.641341 -0.435864
C43   C     C_3   0.951039 0.329570 0.700441 -0.347566
C44   C     C_3   0.993083 0.267727 0.776592 -0.732645
C45   C     C_R   0.481160 0.444961 0.899744 0.028200
C46   C     C_3   0.932577 0.622533 0.358662 -0.435788
C47   C     C_3   0.048936 0.670383 0.299528 -0.347588
C48   C     C_3   0.006894 0.732267 0.223409 -0.732596
C49   C     C_R   0.519321 0.555089 0.100253 0.028251
C50   C     C_R   0.476370 0.351242 0.932337 -0.013052
C51   C     C_R   0.524017 0.648805 0.067664 -0.013102
C52   C     C_R   0.489414 0.511956 0.955906 0.042290
H1    H     H_    0.477902 0.081043 0.645718 0.195703
H2    H     H_    0.425124 0.264202 0.740335 0.207273
H3    H     H_    0.563950 0.380709 0.137585 0.176168
H4    H     H_    0.436642 0.619358 0.862386 0.176215
H5    H     H_    0.586313 0.971439 0.723665 0.216978
H6    H     H_    0.413704 0.028559 0.276333 0.216972
H7    H     H_    0.034502 0.214066 0.753063 0.270226
H8    H     H_    0.067763 0.308718 0.815888 0.260584
H9    H     H_    0.906933 0.233724 0.818270 0.274802
H10   H     H_    0.907725 0.381463 0.725696 0.238023
H11   H     H_    0.875104 0.287205 0.663129 0.267313
H12   H     H_    0.522101 0.918952 0.354283 0.195698
H13   H     H_    0.108470 0.325371 0.614655 0.225667
H14   H     H_    0.145087 0.418120 0.679031 0.197530
H15   H     H_    0.932105 0.691319 0.184141 0.260565
H16   H     H_    0.965604 0.785972 0.246973 0.270230
H17   H     H_    0.093023 0.766216 0.181692 0.274783
H18   H     H_    0.124951 0.712708 0.336822 0.267315
H19   H     H_    0.092151 0.618461 0.274238 0.237993
H20   H     H_    0.854859 0.581890 0.320996 0.197484
H21   H     H_    0.891586 0.674654 0.385353 0.225684
H22   H     H_    0.872133 0.344160 0.488673 0.199456
H23   H     H_    0.127865 0.655839 0.511326 0.199474
H24   H     H_    0.056725 0.454014 0.363481 0.191480
H25   H     H_    0.943275 0.545983 0.636520 0.191496
H26   H     H_    0.490251 0.457080 0.214925 0.200814
H27   H     H_    0.510316 0.542939 0.785075 0.200937
H28   H     H_    0.574736 0.735810 0.259694 0.207324
N1    N     N_R   0.574200 0.731700 0.552740 -0.158892
N2    N     N_R   0.425800 0.268300 0.447260 -0.158914
O1    O     O_R   0.462600 0.383110 0.605620 -0.586479
O2    O     O_R   0.537400 0.616890 0.394380 -0.586500
O3    O     O_R   0.510210 0.531900 0.639510 -0.595679
O4    O     O_R   0.489790 0.468100 0.360490 -0.595642
O5    O     O_R   0.662240 0.425610 0.483080 -0.583674
O6    O     O_R   0.337760 0.574390 0.516920 -0.583649
O7    O     O_R   0.709860 0.574400 0.516970 -0.589820
O8    O     O_R   0.290140 0.425600 0.483030 -0.589834
Zn1   Zn    Zn3+2 0.468210 0.400660 0.477370 1.017333
Zn2   Zn    Zn3+2 0.531790 0.599340 0.522630 1.017329

loop_
_geom_bond_atom_site_label_1
_geom_bond_atom_site_label_2
_ccdc_geom_bond_type
C23   C45   A    
C17   O6    A    
C15   C21   A    
C40   H2    S    
C5    C50   A    
C42   H13   S    
C29   C31   S    
C3    H3    S    
C43   C44   S    
C10   N2    A    
C19   C26   A    
C35   H25   S    
Br9   C6    S    
C41   H28   S    
C20   C21   A    
C34   C49   A    
C4    C52   A    
C45   C52   A    
C46   C47   S    
C12   O2    A    
C27   C32   S    
C28   C35   S    
C48   H15   S    
C2    C49   A    
C30   C33   S    
C44   H9    S    
C18   C25   A    
C30   C46   S    
C27   H22   S    
C4    C6    A    
C34   C37   A    
C8    C10   A    
O3    Zn2   S    
C16   O7    A    
C29   C35   S    
C1    O1    A    
C38   C40   A    
C29   C42   S    
C45   C50   A    
C23   C36   A    
C31   C33   S    
C47   H18   S    
C38   C50   A    
C15   C19   A    
C17   O8    A    
C49   C51   A    
C39   C51   A    
C20   C24   A    
C28   H23   S    
C22   C25   A    
O4    Zn1   S    
C28   C31   S    
O1    Zn1   S    
C37   C41   A    
C39   C41   A    
O6    Zn2   S    
C32   C35   S    
C27   C33   S    
Br2   C39   S    
C23   H27   S    
C2    C52   A    
C17   C31   S    
C21   C22   A    
C44   H8    S    
C25   H5    S    
Br7   C8    S    
C4    H4    S    
C8    C19   A    
C48   H17   S    
C24   H12   S    
N2    Zn1   S    
Br1   C13   S    
Br8   C5    S    
C3    C5    A    
Br10  C38   S    
C47   H19   S    
Br3   C11   S    
C6    C51   A    
N1    Zn2   S    
C42   C43   S    
C16   C32   S    
C46   H21   S    
C11   N1    A    
C1    O3    A    
Br6   C7    S    
C7    C18   A    
C12   O4    A    
C43   H11   S    
C14   C18   A    
C22   H1    S    
C42   H14   S    
C26   H6    S    
C46   H20   S    
Br5   C9    S    
C36   C40   A    
C27   C29   S    
C28   C30   S    
C47   C48   S    
C44   H7    S    
C30   C32   S    
O8    Zn1   S    
C7    C9    A    
C12   C37   S    
C24   C26   A    
C13   C15   A    
C14   C20   A    
C33   H24   S    
C9    N1    A    
C48   H16   S    
C16   O5    A    
Br4   C10   S    
O7    Zn2   S    
C2    C3    A    
O2    Zn2   S    
C11   C14   A    
C13   N2    A    
C1    C36   S    
C34   H26   S    
C43   H10   S    
O5    Zn1   S    
