data_mof_unit_59571.cif
_audit_creation_date              2013-03-05T15:59:16-0500
_audit_creation_method            fapswitch 2.2
_symmetry_space_group_name_H-M    P1
_symmetry_Int_Tables_number       1
_space_group_crystal_system       triclinic
_cell_length_a                    6.959317
_cell_length_b                    21.356482
_cell_length_c                    23.607932
_cell_angle_alpha                 90.008381
_cell_angle_beta                  90.169078
_cell_angle_gamma                 90.057643
_cell_volume                      3508.74787985

loop_
_atom_site_label
_atom_site_type_symbol
_atom_site_description
_atom_site_fract_x
_atom_site_fract_y
_atom_site_fract_z
_atom_type_partial_charge
O1    O     O_R   0.494270 0.443530 0.442350 -0.591206
O2    O     O_R   0.824060 0.436290 0.557250 -0.579636
O3    O     O_R   0.994370 0.556470 0.557650 -0.588275
C1    C     C_R   0.655393 0.421151 0.576640 0.969192
O4    O     O_R   0.823990 0.436120 0.442760 -0.593648
O5    O     O_R   0.994300 0.556300 0.442340 -0.592276
C2    C     C_R   0.654935 0.420944 0.423352 0.973449
O6    O     O_R   0.494350 0.443700 0.557660 -0.578283
O7    O     O_3   0.660800 0.539430 0.500000 -0.277883
V1    V     V_3+5 0.935650 0.492690 0.500000 1.180602
O8    O     O_R   0.324020 0.563710 0.442750 -0.594696
C3    C     C_R   0.155085 0.578860 0.423300 0.971904
O9    O     O_R   0.324090 0.563880 0.557240 -0.592171
C4    C     C_R   0.155638 0.578997 0.576632 0.991550
V2    V     V_3+5 0.435660 0.507310 0.500000 1.174579
O10   O     O_3   0.160640 0.460570 0.500000 -0.266924
C5    C     C_3   0.065496 0.718828 0.798036 -0.180629
C6    C     C_3   0.250208 0.707463 0.762168 -0.302424
H1    H     H_    0.362466 0.672525 0.772507 0.146082
H2    H     H_    0.024159 0.693559 0.837244 0.143880
C7    C     C_1   0.147091 0.624694 0.622042 -0.295639
C8    C     C_1   0.072608 0.874464 0.877248 -0.251096
C9    C     C_3   0.947432 0.720151 0.742739 0.113151
C10   C     C_3   0.127343 0.708544 0.707291 0.134518
C11   C     C_3   0.971247 0.791651 0.737220 -0.180498
C12   C     C_3   0.093656 0.790520 0.792104 0.056330
C13   C     C_3   0.155690 0.780255 0.701322 -0.299872
C14   C     C_3   0.273885 0.779047 0.756674 0.411823
C15   C     C_1   0.139103 0.662590 0.660344 0.026465
C16   C     C_1   0.081018 0.836513 0.839002 0.121610
H3    H     H_    0.196139 0.805416 0.661975 0.169624
H4    H     H_    0.857433 0.825874 0.726701 0.211387
C17   C     C_3   0.259559 0.809276 0.249448 -0.392647
C18   C     C_3   0.905866 0.787476 0.240610 -0.397254
C19   C     C_3   0.920044 0.739459 0.290082 -0.391804
H5    H     H_    0.252048 0.785799 0.339936 0.155434
H6    H     H_    0.230978 0.856729 0.266966 0.153455
H7    H     H_    0.786668 0.773693 0.211632 0.153709
H8    H     H_    0.870009 0.834496 0.257909 0.153732
H9    H     H_    0.891022 0.763636 0.330927 0.155238
H10   H     H_    0.807511 0.702862 0.284642 0.153375
C20   C     C_1   0.144943 0.624554 0.377739 -0.272838
C21   C     C_3   0.097577 0.790753 0.207283 0.414874
C22   C     C_3   0.273773 0.761219 0.298889 -0.392868
C23   C     C_3   0.121776 0.708527 0.291939 0.412423
C24   C     C_3   0.156556 0.676145 0.234016 -0.388149
C25   C     C_3   0.142458 0.724191 0.184555 -0.387132
C26   C     C_1   0.135056 0.662411 0.339304 -0.098950
C27   C     C_1   0.084311 0.836867 0.159916 -0.100058
C28   C     C_1   0.074424 0.874717 0.121477 -0.273778
H11   H     H_    0.280284 0.724791 0.160769 0.157188
H12   H     H_    0.027998 0.709194 0.154444 0.159313
H13   H     H_    0.301063 0.653870 0.233743 0.156580
H14   H     H_    0.399675 0.811543 0.226920 0.153710
H15   H     H_    0.420579 0.740595 0.299832 0.154887
H16   H     H_    0.048772 0.638285 0.227449 0.160112
C29   C     C_3   0.407106 0.270478 0.717219 0.274177
C30   C     C_3   0.739605 0.233200 0.695195 -0.496885
C31   C     C_3   0.729726 0.185363 0.744878 -0.396926
H17   H     H_    0.334162 0.176767 0.749258 0.145979
H18   H     H_    0.362519 0.246001 0.677564 0.052526
H19   H     H_    0.892264 0.246019 0.687318 0.215443
H20   H     H_    0.685087 0.210767 0.655730 0.171265
H21   H     H_    0.677540 0.139479 0.728588 0.173524
H22   H     H_    0.876686 0.177790 0.762310 0.171658
C32   C     C_1   0.573305 0.124136 0.877373 -0.271071
C33   C     C_3   0.619846 0.292785 0.708808 0.188405
C34   C     C_3   0.393587 0.221401 0.766294 -0.522402
C35   C     C_3   0.594752 0.209111 0.792515 0.344594
C36   C     C_3   0.674276 0.272418 0.814820 -0.411190
C37   C     C_3   0.704466 0.320014 0.765303 -0.089215
C38   C     C_1   0.582388 0.162361 0.839294 -0.038848
C39   C     C_1   0.635326 0.338192 0.660876 0.011564
C40   C     C_1   0.645744 0.375677 0.622244 -0.219150
H23   H     H_    0.862147 0.326420 0.759626 0.193655
H24   H     H_    0.573024 0.291742 0.846779 0.190899
H25   H     H_    0.292623 0.236817 0.799923 0.203255
H26   H     H_    0.813822 0.264713 0.836902 0.159768
C41   C     C_3   0.492430 0.317925 0.243741 -0.555525
C42   C     C_3   0.816914 0.274449 0.267949 -0.396483
C43   C     C_3   0.799473 0.223759 0.220858 -0.478386
H27   H     H_    0.579894 0.295388 0.157830 0.086801
H28   H     H_    0.550138 0.364362 0.230716 0.180150
H29   H     H_    0.916061 0.258040 0.301810 0.154268
H30   H     H_    0.882795 0.317460 0.249750 0.195950
H31   H     H_    0.873726 0.240592 0.182106 0.244071
H32   H     H_    0.874387 0.180374 0.234727 0.179125
C44   C     C_1   0.573588 0.124163 0.121335 -0.231576
C45   C     C_3   0.616402 0.290534 0.292661 0.315571
C46   C     C_3   0.489351 0.273253 0.191143 0.260337
C47   C     C_3   0.585565 0.208783 0.207034 0.163416
C48   C     C_3   0.497127 0.181109 0.262681 -0.161884
C49   C     C_3   0.515611 0.229263 0.313068 -0.160531
C50   C     C_1   0.579785 0.162251 0.159644 0.071197
C51   C     C_1   0.633038 0.337036 0.339726 -0.019750
C52   C     C_1   0.644294 0.375087 0.377961 -0.288286
H33   H     H_    0.369710 0.242637 0.328178 0.119315
H34   H     H_    0.343887 0.326132 0.259479 0.188797
H35   H     H_    0.580821 0.138127 0.273149 0.126923
O11   O     O_R   0.724990 0.055630 0.941600 -0.589266
O12   O     O_R   0.395220 0.063160 0.056480 -0.576494
O13   O     O_R   0.225040 0.942970 0.056870 -0.593268
C53   C     C_R   0.564170 0.078346 0.075903 0.961824
O14   O     O_R   0.395270 0.063000 0.941990 -0.590778
O15   O     O_R   0.225080 0.942800 0.941570 -0.582795
C54   C     C_R   0.563917 0.078186 0.922619 0.991089
O16   O     O_R   0.724940 0.055790 0.056910 -0.591814
O17   O     O_3   0.558580 0.959880 0.999250 -0.272122
V3    V     V_3+5 0.283680 0.006590 0.999220 1.192731
O18   O     O_R   0.895380 0.935350 0.941950 -0.582461
C55   C     C_R   0.063873 0.920227 0.922595 0.967832
O19   O     O_R   0.895330 0.935520 0.056440 -0.595407
C56   C     C_R   0.064266 0.920401 0.075908 0.974130
V4    V     V_3+5 0.783690 0.991900 0.999180 1.185743
O20   O     O_3   0.058660 0.038680 0.999200 -0.267797
N1    N     N_3   0.622602 0.381216 0.779607 -0.147831
H36   H     H_    0.682816 0.396033 0.817995 0.133690
H37   H     H_    0.667887 0.413948 0.749534 0.130551
N2    N     N_R   0.274122 0.323097 0.725453 0.230441
O21   O     O_R   0.245201 0.347154 0.775368 -0.427918
O22   O     O_R   0.173510 0.343576 0.682776 -0.441985
N3    N     N_R   0.452421 0.813323 0.765030 0.216391
O23   O     O_R   0.506046 0.854676 0.727872 -0.443128
O24   O     O_R   0.545105 0.808572 0.812743 -0.436680
N4    N     N_3   0.616773 0.201668 0.361686 -0.210879
H38   H     H_    0.531590 0.165577 0.377989 0.101527
H39   H     H_    0.745558 0.181242 0.348516 0.112183
N5    N     N_3   0.297284 0.161271 0.254372 -0.185143
H40   H     H_    0.207543 0.200407 0.254791 0.151568
H41   H     H_    0.257143 0.133728 0.289017 0.084916
N6    N     N_R   0.293806 0.269044 0.167288 0.227495
O25   O     O_R   0.227331 0.217124 0.146029 -0.430254
O26   O     O_R   0.200506 0.320564 0.156816 -0.419739
N7    N     N_3   0.767580 0.686481 0.735107 -0.211044
H42   H     H_    0.681113 0.697985 0.769566 0.140742
H43   H     H_    0.700594 0.704424 0.698917 0.119879

loop_
_geom_bond_atom_site_label_1
_geom_bond_atom_site_label_2
_geom_bond_distance
_ccdc_geom_bond_type
C30   H19   1.113015 S    
C37   H23   1.114199 S    
C36   H26   1.113256 S    
C39   C40   1.215904 T    
C41   H34   1.113567 S    
C51   C52   1.216777 T    
C10   C13   1.550438 S    
C42   H29   1.111418 S    
N5    H40   1.043947 S    
O19   V4    1.968991 S    
V4    O20   2.157808 S    
C23   C24   1.552010 S    
O17   V3    2.158466 S    
C2    C52   1.453283 S    
C31   H21   1.112827 S    
C5    C9    1.540735 S    
C6    C10   1.550357 S    
C5    C12   1.549794 S    
C4    C7    1.451002 S    
C32   C54   1.452192 S    
C6    H1    1.107589 S    
O5    C3    1.299294 A    
O14   V3    1.970950 S    
C14   N3    1.454374 S    
O12   V3    1.970009 S    
V2    O10   2.157724 S    
C34   H25   1.111791 S    
C5    H2    1.110027 S    
N1    H36   1.046170 S    
C18   C19   1.557317 S    
O17   V4    1.708732 S    
C42   C45   1.552827 S    
C10   C15   1.482758 S    
C41   C46   1.565884 S    
C3    C20   1.454042 S    
O18   C55   1.300753 A    
O8    V2    1.969094 S    
C32   C38   1.216150 T    
C34   C35   1.551670 S    
C9    C10   1.528453 S    
C8    C55   1.450922 S    
C36   C37   1.563735 S    
C33   C39   1.494407 S    
O7    V1    2.158455 S    
O18   V4    1.973770 S    
C1    C40   1.451686 S    
C43   H31   1.111636 S    
C1    O6    1.298823 A    
C29   N2    1.469755 S    
C11   H4    1.106026 S    
O15   C55   1.299066 A    
O12   C53   1.301494 A    
O1    C2    1.299222 A    
O9    C4    1.300772 A    
C45   C49   1.560996 S    
C29   C33   1.568021 S    
C48   N5    1.466084 S    
O14   C54   1.301634 A    
O19   C56   1.302049 A    
N2    O22   1.301242 A    
C44   C50   1.216941 T    
C13   H3    1.110060 S    
C18   H8    1.112852 S    
C17   C21   1.552577 S    
O11   V4    1.966095 S    
C47   C48   1.567863 S    
O4    C2    1.301972 A    
C21   C27   1.492905 S    
N7    H43   1.045104 S    
C11   C12   1.548752 S    
C7    C15   1.214890 T    
C17   H6    1.112837 S    
C45   C51   1.494290 S    
C35   C38   1.491484 S    
O2    C1    1.301670 A    
O16   V4    1.972371 S    
C42   H30   1.113100 S    
N2    O21   1.301727 A    
C5    C6    1.560563 S    
C6    C14   1.542984 S    
C20   C26   1.217238 T    
C43   H32   1.112461 S    
O3    C4    1.299131 A    
C31   C35   1.552848 S    
O1    V2    1.969240 S    
C46   N6    1.473905 S    
C12   C16   1.482832 S    
O6    V2    1.965613 S    
O9    V2    1.973862 S    
C36   H24   1.113439 S    
N4    H38   1.046028 S    
H5    C22   1.112803 S    
C29   C34   1.565398 S    
N3    O24   1.300392 A    
N6    O25   1.301081 A    
C19   C23   1.552670 S    
C49   H33   1.114668 S    
C44   C53   1.453025 S    
C22   C23   1.551992 S    
N4    H39   1.045288 S    
C23   C26   1.492918 S    
C30   H20   1.113055 S    
O15   V3    1.967137 S    
C24   C25   1.557519 S    
C8    C16   1.214815 T    
C9    N7    1.453607 S    
C18   H7    1.113060 S    
C17   C22   1.557376 S    
O11   C54   1.299063 A    
C18   C21   1.552411 S    
C42   C43   1.556032 S    
N6    O26   1.301520 A    
N5    H41   1.046011 S    
O5    V1    1.966658 S    
C25   H11   1.112948 S    
O8    C3    1.302056 A    
C29   H18   1.115249 S    
C25   H12   1.112868 S    
C11   C13   1.559519 S    
N7    H42   1.042770 S    
C12   C14   1.529571 S    
H27   C46   1.114216 S    
C28   C56   1.454023 S    
C19   H9    1.112839 S    
C30   C31   1.557204 S    
O4    V1    1.970013 S    
O13   C56   1.299286 A    
V1    O10   1.710081 S    
C31   H22   1.113276 S    
C47   C50   1.496719 S    
C41   H28   1.113272 S    
C22   H15   1.113138 S    
C46   C47   1.576487 S    
C17   H14   1.113102 S    
C24   H13   1.112972 S    
C48   C49   1.577219 S    
N1    H37   1.045482 S    
C37   N1    1.466131 S    
C33   C37   1.567882 S    
C9    C11   1.541381 S    
O7    V2    1.709773 S    
C35   C36   1.551797 S    
C19   H10   1.113036 S    
C49   N4    1.468528 S    
C41   C45   1.554249 S    
V3    O20   1.710013 S    
C43   C47   1.555963 S    
C30   C33   1.555900 S    
H17   C34   1.113336 S    
C27   C28   1.217229 T    
C24   H16   1.112889 S    
C13   C14   1.542267 S    
O3    V1    1.967160 S    
O13   V3    1.966627 S    
C53   O16   1.299580 A    
N3    O23   1.300118 A    
C21   C25   1.551731 S    
C48   H35   1.115023 S    
O2    V1    1.971145 S    
