data_mof_unit_48592.cif
_audit_creation_date              2012-12-10T18:57:13-0500
_audit_creation_method            fapswitch 2.2
_symmetry_space_group_name_H-M    P1
_symmetry_Int_Tables_number       1
_space_group_crystal_system       triclinic
_cell_length_a                    8.730687
_cell_length_b                    10.867653
_cell_length_c                    9.563964
_cell_angle_alpha                 90.402228
_cell_angle_beta                  97.580068
_cell_angle_gamma                 89.960395
_cell_volume                      899.496825119

loop_
_atom_site_label
_atom_site_type_symbol
_atom_type_description
_atom_site_fract_x
_atom_site_fract_y
_atom_site_fract_z
_atom_type_partial_charge
C1    C     C_R   0.499479 0.262814 0.499354 0.801598
C2    C     C_R   0.634702 0.511674 0.942516 0.270134
C3    C     C_3   0.744899 0.616209 0.948739 -0.527250
C4    C     C_R   0.204108 0.498378 0.464183 0.883707
C5    C     C_3   0.744455 0.618478 0.107377 -0.520394
C6    C     C_R   0.498966 0.737302 0.500112 0.799609
C7    C     C_R   0.796018 0.500213 0.536037 0.880791
C8    C     C_2   0.038686 0.492990 0.445084 -0.374486
C9    C     C_2   0.961748 0.502822 0.556121 -0.367375
C10   C     C_R   0.496503 0.063548 0.619607 0.094336
C11   C     C_R   0.496845 0.130284 0.496874 -0.091322
C12   C     C_R   0.493944 0.934508 0.370337 -0.214908
C13   C     C_R   0.494169 0.063608 0.369476 -0.214567
C14   C     C_R   0.361739 0.882350 0.832922 0.195327
C15   C     C_R   0.380339 0.824396 0.964722 -0.137629
C16   C     C_R   0.252115 0.782844 0.024013 -0.136189
C17   C     C_R   0.103783 0.798613 0.952049 -0.145582
C18   C     C_R   0.083367 0.854520 0.819832 -0.151886
C19   C     C_R   0.211451 0.896826 0.760439 -0.129997
C20   C     C_R   0.495642 0.870034 0.498390 -0.113529
C21   C     C_R   0.494494 0.939442 0.620656 0.075257
C22   C     C_3   0.502949 0.934745 0.777970 -0.204284
C23   C     C_3   0.504178 0.076710 0.775269 -0.494343
C24   C     C_R   0.634897 0.512276 0.089724 0.268332
C25   C     C_R   0.368920 0.476050 0.058163 -0.097829
C26   C     C_R   0.368881 0.476245 0.909812 -0.065723
Cu1   Cu    Cu3+1 0.499990 0.499980 0.640670 0.942963
Cu2   Cu    Cu3+1 0.500010 0.500020 0.359330 0.929110
H1    H     H_    0.980075 0.478932 0.339099 0.160978
H2    H     H_    0.614761 0.896487 0.828164 0.133916
H3    H     H_    0.399118 0.121824 0.806126 0.200576
H4    H     H_    0.615545 0.117432 0.823850 0.190158
H5    H     H_    0.261899 0.458039 0.099412 0.144017
H6    H     H_    0.494067 0.814230 0.023183 0.105410
H7    H     H_    0.267650 0.739838 0.126658 0.152894
H8    H     H_    0.004786 0.768995 0.999794 0.141208
H9    H     H_    0.968087 0.866740 0.764339 0.128642
H10   H     H_    0.192873 0.942466 0.659393 0.125945
H11   H     H_    0.261899 0.458295 0.842488 0.139878
H12   H     H_    0.857487 0.587241 0.916862 0.193253
H13   H     H_    0.693288 0.699236 0.894759 0.206098
H14   H     H_    0.858563 0.593892 0.165090 0.191396
H15   H     H_    0.692490 0.702793 0.147405 0.205723
H16   H     H_    0.020601 0.514398 0.662874 0.165422
H17   H     H_    0.493581 0.110356 0.269761 0.168757
H18   H     H_    0.493952 0.885955 0.271238 0.160773
N1    N     N_R   0.500980 0.500930 0.148050 -0.190849
N2    N     N_R   0.500990 0.500890 0.852140 -0.186366
O1    O     O_R   0.500000 0.319640 0.618810 -0.581104
O2    O     O_R   0.500020 0.319680 0.381230 -0.587750
O3    O     O_R   0.274830 0.499980 0.591380 -0.582036
O4    O     O_R   0.274850 0.500020 0.353800 -0.604212
O5    O     O_R   0.499980 0.680320 0.618770 -0.575338
O6    O     O_R   0.500000 0.680360 0.381190 -0.593750
O7    O     O_R   0.725150 0.499980 0.646200 -0.592575
O8    O     O_R   0.725170 0.500020 0.408620 -0.574938

loop_
_geom_bond_atom_site_label_1
_geom_bond_atom_site_label_2
_ccdc_geom_bond_type
Cu1   N2    S    
C5    H14   S    
Cu1   O5    S    
Cu2   N1    S    
C17   H8    S    
C26   N2    A    
C10   C23   S    
C6    C20   S    
C1    O2    A    
C25   N1    A    
C15   H6    S    
C1    C11   S    
C7    O7    A    
C4    C8    S    
C23   H4    S    
C12   C20   A    
C2    C3    S    
C5    H15   S    
C10   C21   A    
C21   C22   S    
C12   C13   A    
C13   H17   S    
Cu2   O4    S    
C14   C22   S    
C16   C17   A    
C5    C24   S    
C1    O1    A    
C7    O8    A    
C6    O6    A    
C8    H1    S    
C19   H10   S    
C18   H9    S    
Cu1   O3    S    
C3    H12   S    
C17   C18   A    
C4    O4    A    
C16   H7    S    
C2    C24   A    
Cu1   O7    S    
C26   H11   S    
C6    O5    A    
C10   C11   A    
C4    O3    A    
C15   C16   A    
C11   C13   A    
C20   C21   A    
C12   H18   S    
C18   C19   A    
Cu1   Cu2   S    
C7    C9    S    
Cu2   O6    S    
C14   C15   A    
C3    H13   S    
C9    H16   S    
C22   H2    S    
C2    N2    A    
C25   C26   A    
C22   C23   S    
C24   N1    A    
Cu2   O2    S    
C14   C19   A    
Cu2   O8    S    
Cu1   O1    S    
C25   H5    S    
C8    C9    D    
C3    C5    S    
C23   H3    S    
