data_mof_unit_8808.cif
_audit_creation_date              2012-12-10T17:28:30-0500
_audit_creation_method            fapswitch 2.2
_symmetry_space_group_name_H-M    P1
_symmetry_Int_Tables_number       1
_space_group_crystal_system       triclinic
_cell_length_a                    10.647731
_cell_length_b                    11.998364
_cell_length_c                    12.80704
_cell_angle_alpha                 94.150884
_cell_angle_beta                  90.093997
_cell_angle_gamma                 86.794045
_cell_volume                      1629.31734634

loop_
_atom_site_label
_atom_site_type_symbol
_atom_type_description
_atom_site_fract_x
_atom_site_fract_y
_atom_site_fract_z
_atom_type_partial_charge
C1    C     C_R   0.495170 0.522984 0.700428 0.869468
C2    C     C_R   0.442101 0.539030 0.132498 -0.300379
C3    C     C_R   0.542491 0.460202 0.973993 0.148051
C4    C     C_R   0.457513 0.539800 0.026007 0.148051
C5    C     C_R   0.384544 0.952335 0.400723 -0.304842
C6    C     C_R   0.615455 0.047665 0.599277 -0.304842
C7    C     C_R   0.395432 0.836480 0.410492 0.051742
C8    C     C_R   0.604568 0.163520 0.589508 0.051742
C9    C     C_R   0.549496 0.859541 0.543167 -0.007827
C10   C     C_R   0.450504 0.140459 0.456833 -0.007827
C11   C     C_R   0.541843 0.976584 0.536158 0.084492
C12   C     C_R   0.504830 0.477016 0.299572 0.869467
C13   C     C_R   0.458157 0.023416 0.463842 0.084492
C14   C     C_R   0.739080 0.500685 0.499704 0.877142
C15   C     C_R   0.260920 0.499315 0.500295 0.877142
C16   C     C_R   0.868089 0.527389 0.309722 -0.116823
C17   C     C_R   0.131912 0.472612 0.690280 -0.116818
C18   C     C_R   0.932872 0.536631 0.216551 -0.111665
C19   C     C_R   0.067129 0.463368 0.783451 -0.111663
C20   C     C_R   0.063539 0.532926 0.216206 -0.139192
C21   C     C_R   0.936462 0.467069 0.783795 -0.139190
C22   C     C_R   0.129433 0.520194 0.309082 -0.155594
C23   C     C_R   0.512340 0.461693 0.187937 -0.099242
C24   C     C_R   0.870568 0.479800 0.690917 -0.155594
C25   C     C_R   0.064938 0.511122 0.404709 0.072286
C26   C     C_R   0.935062 0.488876 0.595290 0.072285
C27   C     C_R   0.933686 0.514142 0.404940 0.073191
C28   C     C_R   0.066314 0.485858 0.595060 0.073189
C29   C     C_R   0.128672 0.497663 0.499866 -0.178780
C30   C     C_R   0.871328 0.502337 0.500134 -0.178779
C31   C     C_R   0.487661 0.538307 0.812063 -0.099240
C32   C     C_R   0.389974 0.619704 0.971106 -0.235907
C33   C     C_R   0.610029 0.380297 0.028894 -0.235908
C34   C     C_R   0.404124 0.619569 0.863511 0.142547
C35   C     C_R   0.595877 0.380431 0.136489 0.142549
C36   C     C_R   0.557902 0.460971 0.867502 -0.300378
H1    H     H_    0.885931 0.460375 0.856179 0.137458
H2    H     H_    0.769053 0.483277 0.695060 0.123501
H3    H     H_    0.377487 0.600778 0.172994 0.152447
H4    H     H_    0.622516 0.399224 0.827006 0.152445
H5    H     H_    0.324713 0.680720 0.011448 0.162898
H6    H     H_    0.675289 0.319281 0.988552 0.162898
H7    H     H_    0.386753 0.178106 0.401765 0.133702
H8    H     H_    0.613247 0.821894 0.598235 0.133702
H9    H     H_    0.661297 0.218361 0.638210 0.131754
H10   H     H_    0.338703 0.781639 0.361790 0.131755
H11   H     H_    0.114070 0.539616 0.143822 0.137459
H12   H     H_    0.319315 0.985891 0.344425 0.155475
H13   H     H_    0.680685 0.014109 0.655575 0.155475
H14   H     H_    0.766586 0.530173 0.306050 0.138668
H15   H     H_    0.233415 0.469830 0.693952 0.138668
H16   H     H_    0.881469 0.546187 0.144435 0.143389
H17   H     H_    0.118532 0.453814 0.855568 0.143388
H18   H     H_    0.230947 0.516714 0.304939 0.123500
I1    I     I_    0.711942 0.261993 0.213762 -0.361595
I2    I     I_    0.288055 0.738005 0.786238 -0.361596
N1    N     N_R   0.523130 0.207800 0.519340 -0.101149
N2    N     N_R   0.476870 0.792200 0.480660 -0.101149
O1    O     O_R   0.506170 0.421700 0.658830 -0.634669
O2    O     O_R   0.493830 0.578300 0.341170 -0.634669
O3    O     O_R   0.491330 0.609310 0.646410 -0.589879
O4    O     O_R   0.508670 0.390690 0.353590 -0.589879
O5    O     O_R   0.690650 0.406190 0.506220 -0.604069
O6    O     O_R   0.309350 0.593810 0.493780 -0.604068
O7    O     O_R   0.675800 0.593810 0.493800 -0.623554
O8    O     O_R   0.324200 0.406190 0.506200 -0.623554
Zn1   Zn    Zn3+2 0.509910 0.374730 0.508290 0.966950
Zn2   Zn    Zn3+2 0.490090 0.625270 0.491710 0.966951

loop_
_geom_bond_atom_site_label_1
_geom_bond_atom_site_label_2
_ccdc_geom_bond_type
C2    C4    A    
C15   O6    A    
C34   I2    S    
C15   C29   S    
C8    N1    A    
C25   C27   A    
C12   O4    A    
C7    N2    A    
C5    C13   A    
C12   C23   S    
C36   H4    S    
C32   H5    S    
O7    Zn2   S    
O1    Zn1   S    
C19   H17   S    
C16   C27   A    
O8    Zn1   S    
C31   C34   A    
C18   H16   S    
C22   H18   S    
C27   C30   A    
C11   C13   A    
O3    Zn2   S    
C17   H15   S    
C4    C32   A    
C33   H6    S    
C3    C36   A    
N1    Zn1   S    
C6    C11   A    
C14   O5    A    
C9    C11   A    
N2    Zn2   S    
C28   C29   A    
C17   C19   A    
C14   O7    A    
C16   H14   S    
C26   C30   A    
C23   C35   A    
C1    O1    A    
C6    H13   S    
C25   C29   A    
C5    H12   S    
O5    Zn1   S    
C20   H11   S    
O4    Zn1   S    
C20   C22   A    
C35   I1    S    
C24   H2    S    
C12   O2    A    
C7    H10   S    
O6    Zn2   S    
C1    C31   S    
C10   N1    A    
C21   H1    S    
O2    Zn2   S    
C18   C20   A    
C16   C18   A    
C9    N2    A    
C21   C24   A    
C2    C23   A    
C5    C7    A    
C3    C33   A    
C8    H9    S    
C9    H8    S    
C6    C8    A    
C33   C35   A    
C10   H7    S    
C31   C36   A    
C15   O8    A    
C26   C28   A    
C2    H3    S    
C10   C13   A    
C14   C30   S    
C3    C4    A    
C17   C28   A    
C24   C26   A    
C32   C34   A    
C19   C21   A    
C22   C25   A    
C1    O3    A    
