data_mof_unit_66768.cif
_audit_creation_date              2012-12-11T14:19:36-0500
_audit_creation_method            fapswitch 2.2
_symmetry_space_group_name_H-M    P1
_symmetry_Int_Tables_number       1
_space_group_crystal_system       triclinic
_cell_length_a                    8.183265
_cell_length_b                    12.616444
_cell_length_c                    15.15185
_cell_angle_alpha                 95.2195
_cell_angle_beta                  99.850843
_cell_angle_gamma                 97.665154
_cell_volume                      1517.08979024

loop_
_atom_site_label
_atom_site_type_symbol
_atom_type_description
_atom_site_fract_x
_atom_site_fract_y
_atom_site_fract_z
_atom_type_partial_charge
Ba1   Ba    Ba6+2 0.153570 0.551840 0.456200 1.693863
Ba2   Ba    Ba6+2 0.656590 0.448150 0.543720 1.662100
Br1   Br    Br    0.794165 0.945548 0.141499 -0.578559
Br2   Br    Br    0.106254 0.393586 0.085463 -0.530577
C1    C     C_3   0.355266 0.822126 0.117017 -0.275331
C2    C     C_R   0.726283 0.815440 0.465867 -0.264198
C3    C     C_R   0.691022 0.995739 0.432037 -0.051874
C4    C     C_3   0.810463 0.793363 0.124825 0.596896
C5    C     C_R   0.625853 0.886924 0.428675 -0.028047
C6    C     C_R   0.888188 0.851133 0.513967 0.073136
C7    C     C_R   0.954230 0.963641 0.522453 -0.050342
C8    C     C_R   0.854453 0.037052 0.479838 -0.038768
C9    C     C_R   0.920697 0.149539 0.488033 0.067144
C10   C     C_R   0.182775 0.113694 0.573613 -0.010077
C11   C     C_R   0.117791 0.004815 0.570037 -0.101718
C12   C     C_3   0.405364 0.796222 0.212978 0.320505
C13   C     C_R   0.239939 0.463710 0.763533 -0.261972
C14   C     C_R   0.153398 0.407874 0.819609 -0.009421
C15   C     C_R   0.232465 0.400133 0.907115 -0.108926
C16   C     C_3   0.862451 0.766791 0.034138 -0.319341
C17   C     C_R   0.378589 0.471920 0.948755 0.031674
C18   C     C_R   0.459469 0.535349 0.891095 -0.118430
C19   C     C_R   0.394593 0.525354 0.798325 0.026434
C20   C     C_R   0.612372 0.532515 0.083279 -0.171849
C21   C     C_R   0.674467 0.560597 0.175543 -0.027580
C22   C     C_R   0.412941 0.474735 0.208842 0.053319
C23   C     C_3   0.579789 0.775754 0.661454 0.298316
C24   C     C_R   0.342112 0.455256 0.115549 0.191132
C25   C     C_R   0.443323 0.484664 0.050056 -0.011136
C26   C     C_R   0.574020 0.531909 0.237508 -0.332375
C27   C     C_3   0.719903 0.304127 0.268374 0.299267
C28   C     C_3   0.671961 0.266190 0.167822 -0.301137
C29   C     C_3   0.080376 0.687174 0.728948 0.308231
C30   C     C_3   0.120202 0.716288 0.830860 -0.368537
C31   C     C_3   0.226643 0.226455 0.348620 0.271507
C32   C     C_3   0.196214 0.104586 0.327178 -0.286214
C33   C     C_3   0.643190 0.895170 0.681168 -0.350622
C34   C     C_3   0.908311 0.154516 0.765781 0.334221
C35   C     C_3   0.033529 0.103953 0.829245 0.354268
C36   C     C_3   0.453791 0.217452 0.790569 0.365024
C37   C     C_3   0.489439 0.183751 0.885134 -0.313838
C38   C     C_R   0.082229 0.185293 0.536650 -0.273948
H1    H     H_    0.356588 0.709976 0.214615 0.051548
H2    H     H_    0.111956 0.253722 0.365548 0.002828
H3    H     H_    0.331588 0.248644 0.407080 0.059827
H4    H     H_    0.217177 0.808257 0.097973 0.140435
H5    H     H_    0.090096 0.079849 0.269668 0.194819
H6    H     H_    0.165684 0.065910 0.386203 0.070099
H7    H     H_    0.310635 0.076634 0.309228 0.139829
H8    H     H_    0.544402 0.809916 0.231977 -0.015737
H9    H     H_    0.405817 0.768795 0.069443 0.053834
H10   H     H_    0.676571 0.735967 0.634009 0.004605
H11   H     H_    0.462985 0.763625 0.610217 0.064142
H12   H     H_    0.560730 0.202106 0.154558 0.143067
H13   H     H_    0.773399 0.907306 0.720026 0.144055
H14   H     H_    0.643270 0.931918 0.617553 0.051583
H15   H     H_    0.560993 0.935130 0.720378 0.184907
H16   H     H_    0.402795 0.907519 0.111755 0.168931
H17   H     H_    0.905341 0.687106 0.029498 0.073571
H18   H     H_    0.798192 0.093593 0.736881 0.075205
H19   H     H_    0.966576 0.177747 0.707780 -0.147349
H20   H     H_    0.073634 0.035580 0.791175 -0.037596
H21   H     H_    0.144096 0.164948 0.856427 -0.035780
H22   H     H_    0.323650 0.235716 0.776218 -0.107682
H23   H     H_    0.641480 0.333546 0.129549 0.059381
H24   H     H_    0.541953 0.291660 0.788160 0.100905
H25   H     H_    0.464820 0.246736 0.935102 0.073340
H26   H     H_    0.622256 0.172364 0.902860 0.206655
H27   H     H_    0.409253 0.106614 0.888753 0.131517
H28   H     H_    0.610658 0.046906 0.398765 0.101439
H29   H     H_    0.198470 0.953408 0.602787 0.106548
H30   H     H_    0.134254 0.269480 0.541109 0.063006
H31   H     H_    0.674305 0.731244 0.461416 0.058634
H32   H     H_    0.698660 0.548132 0.038156 0.092695
H33   H     H_    0.179816 0.335208 0.938944 0.151170
H34   H     H_    0.778134 0.233724 0.143602 0.205121
H35   H     H_    0.570860 0.593202 0.916206 0.061681
H36   H     H_    0.624519 0.549568 0.308956 0.074366
H37   H     H_    0.683336 0.750447 0.123608 -0.098012
H38   H     H_    0.182961 0.463423 0.693548 0.060211
H39   H     H_    0.754566 0.766353 0.978538 0.102068
H40   H     H_    0.965529 0.828053 0.024606 0.191625
H41   H     H_    0.611164 0.331943 0.292417 -0.008088
H42   H     H_    0.826850 0.370972 0.279890 0.062289
H43   H     H_    0.711831 0.975530 0.938957 0.374023
H44   H     H_    0.188871 0.658028 0.706076 -0.011114
H45   H     H_    0.970150 0.622770 0.712204 0.077960
H46   H     H_    0.236835 0.775796 0.850345 0.135312
H47   H     H_    0.137753 0.643358 0.864941 0.063730
H48   H     H_    0.015038 0.751452 0.853794 0.156541
O1    O     O_2   0.168170 0.764170 0.543850 -0.470893
O2    O     O_2   0.829734 0.443463 0.823706 -0.470257
O3    O     O_3   0.851528 0.239052 0.813342 -0.571360
O4    O     O_3   0.898670 0.629780 0.545890 -0.502594
O5    O     O_3   0.409490 0.443300 0.392340 -0.506581
O6    O     O_2   0.674250 0.555830 0.719690 -0.457918
O7    O     O_3   0.548555 0.735989 0.741417 -0.621687
O8    O     O_2   0.519474 0.115394 0.561220 -0.487770
O9    O     O_3   0.476298 0.133892 0.728110 -0.605175
O10   O     O_3   0.365980 0.695510 0.380810 -0.487391
O11   O     O_2   0.285360 0.883653 0.436836 -0.470259
O12   O     O_3   0.264964 0.271263 0.272226 -0.590330
O13   O     O_3   0.047988 0.779153 0.688378 -0.639703
O14   O     O_3   0.335742 0.862687 0.271203 -0.562713
O15   O     O_2   0.136040 0.444100 0.280280 -0.429743
O16   O     O_3   0.934510 0.640480 0.335500 -0.455324
O17   O     O_2   0.026952 0.584144 0.183377 -0.441473
O18   O     O_2   0.082713 0.002906 0.976609 -0.286824
O19   O     O_2   0.921338 0.152227 0.982790 -0.246062
O20   O     O_3   0.774569 0.970765 0.888727 -0.548144
O21   O     O_3   0.929277 0.771550 0.197276 -0.556492
O22   O     O_2   0.642110 0.235770 0.456130 -0.474374
O23   O     O_3   0.911620 0.370210 0.454030 -0.505466
O24   O     O_3   0.444310 0.304480 0.619110 -0.485293
O25   O     O_3   0.764206 0.216808 0.312182 -0.619685
O26   O     O_3   0.400800 0.556680 0.607590 -0.487890
O27   O     O_3   0.875770 0.359510 0.664420 -0.475341
P1    P     P_3+3 0.998660 0.747790 0.570900 0.970189
P2    P     P_3+3 0.306970 0.411860 0.294270 1.045949
P3    P     P_3+3 0.887555 0.636789 0.218589 1.002941
P4    P     P_3+3 0.811620 0.252200 0.429030 0.979757
P5    P     P_3+3 0.928779 0.362601 0.781212 0.995383
P6    P     P_3+3 0.404232 0.834795 0.381088 0.987675
P7    P     P_3+3 0.501651 0.596061 0.719830 0.947218
P8    P     P_3+3 0.405112 0.165124 0.619414 0.950227
S1    S     S_3+6 0.953228 0.057875 0.923613 -0.056963

loop_
_geom_bond_atom_site_label_1
_geom_bond_atom_site_label_2
_ccdc_geom_bond_type
C20   C21   A    
O25   P4    S    
C16   H40   S    
O4    P1    S    
C31   C32   S    
C29   H44   S    
C31   O12   S    
C3    H28   S    
C37   H25   S    
O14   P6    S    
Ba2   O22   S    
C13   C19   A    
C10   P8    S    
C1    H16   S    
O11   P6    D    
C24   C25   A    
C15   C17   A    
C12   H8    S    
C14   C15   A    
O7    P7    S    
C34   C35   S    
Ba2   O23   S    
C27   H41   S    
Ba1   O10   S    
C32   H5    S    
Ba1   Ba2   S    
Ba1   P2    S    
C28   H12   S    
C20   C25   A    
C1    C12   S    
C33   H14   S    
Ba2   O26   S    
C12   O14   S    
O8    P8    D    
C23   O7    S    
Ba1   O4    S    
C4    H37   S    
Ba1   O26   S    
Ba1   O16   S    
C10   C38   A    
C34   H19   S    
Ba1   O1    S    
C35   S1    S    
C36   H24   S    
C16   H39   S    
Ba1   O23   S    
C2    C5    A    
C36   O9    S    
C27   O25   S    
C9    C38   A    
Br2   C24   S    
Ba2   O27   S    
C29   C30   S    
C37   H26   S    
C18   C19   A    
C3    C8    A    
O6    P7    D    
Ba2   O4    S    
O3    P5    S    
O9    P8    S    
Br1   C4    S    
C4    O21   S    
O24   P8    S    
C30   H46   S    
O5    P2    S    
C17   C25   S    
C13   H38   S    
C27   H42   S    
O21   P3    S    
C33   H13   S    
O27   P5    S    
C30   H48   S    
C28   H34   S    
C6    P1    S    
O2    P5    D    
C9    P4    S    
C27   C28   S    
Ba1   O5    S    
C38   H30   S    
C13   C14   A    
O1    P1    D    
C4    C16   S    
C22   P2    S    
C16   H17   S    
C31   H2    S    
C12   H1    S    
O20   S1    S    
C34   H18   S    
C36   C37   S    
C14   P5    S    
H43   O20   S    
C7    C11   A    
O13   P1    S    
C31   H3    S    
C21   P3    S    
O17   P3    D    
C11   H29   S    
C23   H10   S    
C2    H31   S    
C37   H27   S    
Ba2   P4    S    
C21   C26   A    
C3    C5    A    
C35   H20   S    
Ba2   O5    S    
O26   P7    S    
O16   P3    S    
C29   O13   S    
C1    H9    S    
C18   H35   S    
C2    C6    A    
C7    C8    A    
C23   H11   S    
C22   C26   A    
C19   P7    S    
C35   H21   S    
C1    H4    S    
C22   C24   A    
C36   H22   S    
O10   P6    S    
Ba2   O6    S    
C29   H45   S    
C30   H47   S    
O22   P4    D    
Ba2   O24   S    
C20   H32   S    
C23   C33   S    
C34   O3    S    
C15   H33   S    
C5    P6    S    
C32   H6    S    
Ba1   P1    S    
C6    C7    A    
C32   H7    S    
C26   H36   S    
O19   S1    D    
O23   P4    S    
C8    C9    A    
C10   C11   A    
O15   P2    D    
O18   S1    D    
C17   C18   A    
C33   H15   S    
O12   P2    S    
Ba1   O15   S    
C28   H23   S    
