data_mof_unit_17738.cif
_audit_creation_date              2012-12-10T18:33:45-0500
_audit_creation_method            fapswitch 2.2
_symmetry_space_group_name_H-M    P1
_symmetry_Int_Tables_number       1
_space_group_crystal_system       triclinic
_cell_length_a                    10.517985
_cell_length_b                    15.084534
_cell_length_c                    15.509622
_cell_angle_alpha                 82.472434
_cell_angle_beta                  90.37355
_cell_angle_gamma                 104.914312
_cell_volume                      2356.39920263

loop_
_atom_site_label
_atom_site_type_symbol
_atom_type_description
_atom_site_fract_x
_atom_site_fract_y
_atom_site_fract_z
_atom_type_partial_charge
C1    C     C_R   0.484262 0.442266 0.661983 0.859715
C2    C     C_R   0.589052 0.491102 0.043999 0.068859
C3    C     C_R   0.584762 0.397301 0.073211 -0.236353
C4    C     C_R   0.623025 0.616401 0.923344 -0.234069
C5    C     C_R   0.566801 0.332361 0.015367 -0.240293
C6    C     C_R   0.638605 0.681316 0.980953 -0.239182
C7    C     C_R   0.686881 0.844168 0.641773 -0.307060
C8    C     C_R   0.311715 0.154613 0.359723 -0.313320
C9    C     C_R   0.667182 0.757902 0.613718 0.343290
C10   C     C_R   0.341511 0.244102 0.380804 0.356156
C11   C     C_R   0.506106 0.791099 0.515184 -0.110659
C12   C     C_R   0.521711 0.557907 0.338056 0.854360
C13   C     C_R   0.479097 0.204751 0.494034 -0.111989
C14   C     C_R   0.529563 0.882269 0.537608 -0.007397
C15   C     C_R   0.449335 0.111720 0.475525 -0.006947
C16   C     C_R   0.742817 0.501409 0.499767 0.857912
C17   C     C_R   0.257344 0.498757 0.499675 0.855467
C18   C     C_R   0.619514 0.906421 0.604003 0.135269
C19   C     C_R   0.363811 0.088438 0.406646 0.134023
C20   C     C_R   0.469984 0.950539 0.495711 0.094035
C21   C     C_R   0.502320 0.041722 0.521266 0.094116
C22   C     C_R   0.587635 0.060085 0.590835 -0.237371
C23   C     C_R   0.522673 0.475013 0.811380 -0.276533
C24   C     C_R   0.382035 0.931370 0.427642 -0.237716
C25   C     C_R   0.645254 0.993572 0.631080 -0.204654
C26   C     C_R   0.330130 0.999206 0.384180 -0.204591
C27   C     C_3   0.933484 0.436183 0.562712 -0.178642
C28   C     C_3   0.067010 0.563878 0.435723 -0.182857
C29   C     C_3   0.050909 0.518169 0.576641 -0.163681
C30   C     C_3   0.949456 0.481965 0.421798 -0.168078
C31   C     C_3   0.121412 0.497116 0.498960 0.024833
C32   C     C_3   0.878963 0.503097 0.499569 0.026327
C33   C     C_3   0.006630 0.415093 0.484981 -0.141642
C34   C     C_R   0.555793 0.528547 0.189564 -0.270036
C35   C     C_3   0.993986 0.585035 0.513384 -0.140085
C36   C     C_R   0.495472 0.409330 0.753893 -0.058555
C37   C     C_R   0.552388 0.592598 0.246101 -0.055368
C38   C     C_R   0.517304 0.291357 0.870562 -0.209229
C39   C     C_R   0.616609 0.717040 0.126943 -0.208536
C40   C     C_R   0.493231 0.317053 0.783476 -0.200714
C41   C     C_R   0.585068 0.687366 0.214968 -0.199923
C42   C     C_3   0.276477 0.309251 0.326495 -0.868418
C43   C     C_3   0.756928 0.699256 0.648386 -0.848443
C44   C     C_R   0.555956 0.452298 0.896967 0.095266
C45   C     C_R   0.590285 0.556625 0.101742 0.091173
C46   C     C_R   0.547312 0.358251 0.927767 0.178771
C47   C     C_R   0.616429 0.652188 0.069774 0.179243
C48   C     C_R   0.589684 0.520335 0.953735 0.069853
H1    H     H_    0.096452 0.532486 0.639838 0.137986
H2    H     H_    0.125892 0.615562 0.383816 0.129740
H3    H     H_    0.015854 0.345910 0.473342 0.147238
H4    H     H_    0.988055 0.655136 0.523851 0.135300
H5    H     H_    0.563361 0.261078 0.039863 0.145490
H6    H     H_    0.662303 0.754274 0.955537 0.144150
H7    H     H_    0.526001 0.456035 0.214495 0.164803
H8    H     H_    0.514778 0.544025 0.788760 0.162997
H9    H     H_    0.584861 0.738183 0.258207 0.158184
H10   H     H_    0.473758 0.265227 0.739531 0.154982
H11   H     H_    0.512739 0.219482 0.893137 0.134372
H12   H     H_    0.903787 0.467724 0.358618 0.137824
H13   H     H_    0.638521 0.790353 0.103266 0.134467
H14   H     H_    0.598412 0.372735 0.140291 0.149167
H15   H     H_    0.640267 0.643185 0.855198 0.151121
H16   H     H_    0.712796 0.011221 0.683042 0.140676
H17   H     H_    0.263662 0.981734 0.331621 0.141478
H18   H     H_    0.281451 0.373887 0.351871 0.288147
H19   H     H_    0.320821 0.325394 0.259669 0.217108
H20   H     H_    0.169786 0.275685 0.322275 0.205402
H21   H     H_    0.702604 0.629888 0.678505 0.260376
H22   H     H_    0.824153 0.695534 0.595453 0.241852
H23   H     H_    0.544045 0.228905 0.544692 0.135858
H24   H     H_    0.820641 0.730248 0.699860 0.193377
H25   H     H_    0.435542 0.765316 0.468037 0.138165
H26   H     H_    0.758713 0.864312 0.690866 0.143601
H27   H     H_    0.246279 0.136455 0.306695 0.150732
H28   H     H_    0.613479 0.125722 0.615412 0.134292
H29   H     H_    0.351858 0.864692 0.405324 0.135156
H30   H     H_    0.874655 0.384512 0.614655 0.131927
N1    N     N_R   0.574200 0.731700 0.552740 -0.098866
N2    N     N_R   0.425800 0.268300 0.447260 -0.099784
O1    O     O_R   0.462600 0.383110 0.605620 -0.616935
O2    O     O_R   0.537400 0.616890 0.394380 -0.617090
O3    O     O_R   0.510210 0.531900 0.639510 -0.623955
O4    O     O_R   0.489790 0.468100 0.360490 -0.624884
O5    O     O_R   0.662240 0.425610 0.483080 -0.617116
O6    O     O_R   0.337760 0.574390 0.516920 -0.616813
O7    O     O_R   0.709860 0.574400 0.516970 -0.623520
O8    O     O_R   0.290140 0.425600 0.483030 -0.632876
Zn1   Zn    Zn3+2 0.468210 0.400660 0.477370 0.934763
Zn2   Zn    Zn3+2 0.531790 0.599340 0.522630 0.934784

loop_
_geom_bond_atom_site_label_1
_geom_bond_atom_site_label_2
_ccdc_geom_bond_type
C38   C40   A    
C43   H24   S    
C27   C29   S    
C34   C37   A    
C14   C18   A    
C22   H28   S    
C27   H30   S    
C23   H8    S    
C39   C41   A    
C29   H1    S    
C27   C33   S    
C15   C19   A    
C4    H15   S    
C5    H5    S    
C24   C26   A    
C11   C14   A    
C10   C42   S    
C1    O1    A    
C17   O8    A    
C12   C37   S    
C12   O4    A    
C9    N1    A    
N2    Zn1   S    
C19   C26   A    
C16   C32   S    
N1    Zn2   S    
C28   H2    S    
C20   C24   A    
C28   C35   S    
C22   C25   A    
C30   H12   S    
C16   O7    A    
C31   C33   S    
O1    Zn1   S    
C13   N2    A    
C34   H7    S    
C43   H21   S    
C21   C22   A    
C42   H20   S    
C18   C25   A    
C6    H6    S    
C44   C46   A    
C7    H26   S    
C45   C47   A    
C2    C45   A    
C39   H13   S    
C9    C43   S    
C8    C19   A    
C40   H10   S    
C6    C47   A    
C17   O6    A    
C32   C35   S    
C14   C20   A    
C36   C40   A    
C4    C6    A    
O6    Zn2   S    
O5    Zn1   S    
C13   H23   S    
C2    C48   A    
C8    H27   S    
C23   C44   A    
C25   H16   S    
C7    C18   A    
C12   O2    A    
C34   C45   A    
O8    Zn1   S    
C11   N1    A    
C43   H22   S    
C13   C15   A    
C11   H25   S    
C42   H19   S    
C17   C31   S    
C1    O3    A    
O4    Zn1   S    
C39   C47   A    
C4    C48   A    
C3    H14   S    
C7    C9    A    
O3    Zn2   S    
C10   N2    A    
C30   C33   S    
C27   C32   S    
C26   H17   S    
C28   C31   S    
C3    C5    A    
C33   H3    S    
C5    C46   A    
C29   C35   S    
O2    Zn2   S    
C28   C30   S    
C2    C3    A    
C41   H9    S    
C29   C31   S    
C30   C32   S    
C16   O5    A    
C37   C41   A    
C38   C46   A    
C38   H11   S    
C24   H29   S    
C15   C21   A    
C20   C21   A    
C8    C10   A    
C23   C36   A    
O7    Zn2   S    
C35   H4    S    
C42   H18   S    
C44   C48   A    
C1    C36   S    
