data_mof_unit_26237.cif
_audit_creation_date              2012-12-10T16:52:41-0500
_audit_creation_method            fapswitch 2.2
_symmetry_space_group_name_H-M    P1
_symmetry_Int_Tables_number       1
_space_group_crystal_system       triclinic
_cell_length_a                    7.837117
_cell_length_b                    8.565881
_cell_length_c                    13.71085
_cell_angle_alpha                 93.395469
_cell_angle_beta                  92.622017
_cell_angle_gamma                 94.320575
_cell_volume                      915.040971293

loop_
_atom_site_label
_atom_site_type_symbol
_atom_type_description
_atom_site_fract_x
_atom_site_fract_y
_atom_site_fract_z
_atom_type_partial_charge
C1    C     C_R   0.045298 0.794755 0.497667 0.964421
C2    C     C_R   0.937478 0.487058 0.317336 0.867104
C3    C     C_R   0.097719 0.551848 0.786962 -0.119358
C4    C     C_R   0.909164 0.476100 0.210832 -0.114603
C5    C     C_R   0.080485 0.717462 0.935061 -0.231913
C6    C     C_R   0.962130 0.372053 0.047787 -0.230626
C7    C     C_R   0.013407 0.664924 0.841770 -0.001708
C8    C     C_R   0.014846 0.397659 0.146380 -0.004702
C9    C     C_R   0.241743 0.490401 0.827175 -0.286990
C10   C     C_R   0.762331 0.538561 0.174175 -0.274577
C11   C     C_R   0.322382 0.556331 0.914180 0.098073
C12   C     C_R   0.954746 0.205263 0.502523 0.963394
C13   C     C_R   0.708966 0.515792 0.075707 0.092567
C14   C     C_R   0.236091 0.666627 0.970605 0.154013
C15   C     C_R   0.807262 0.425063 0.013097 0.156604
C16   C     C_R   0.487321 0.516669 0.945400 0.071819
C17   C     C_R   0.553885 0.571510 0.039925 0.071346
C18   C     C_1   0.172242 0.335324 0.179196 0.193230
C19   C     C_1   0.863435 0.733329 0.803358 0.193385
C20   C     C_R   0.463954 0.680851 0.095146 -0.216998
C21   C     C_R   0.590509 0.429192 0.883697 -0.214560
C22   C     C_R   0.308214 0.727929 0.060519 -0.214777
C23   C     C_R   0.748557 0.385883 0.917003 -0.215304
C24   C     C_2   0.068818 0.958551 0.496352 -0.379532
C25   C     C_2   0.931295 0.041493 0.504154 -0.377967
C26   C     C_R   0.063186 0.516276 0.682328 0.866852
H1    H     H_    0.244490 0.813519 0.104172 0.151887
H2    H     H_    0.801862 0.989778 0.511685 0.182667
H3    H     H_    0.487251 0.374046 0.427372 0.198550
H4    H     H_    0.512757 0.625928 0.572652 0.198708
H5    H     H_    0.823821 0.318973 0.867652 0.151098
H6    H     H_    0.684694 0.596469 0.225680 0.167119
H7    H     H_    0.292888 0.394628 0.786281 0.155230
H8    H     H_    0.015559 0.803122 0.978092 0.141262
H9    H     H_    0.039391 0.306744 0.998590 0.143708
H10   H     H_    0.514079 0.737938 0.163762 0.148247
H11   H     H_    0.555785 0.397201 0.807785 0.157332
H12   H     H_    0.198260 0.010267 0.488863 0.181261
N1    N     N_2   0.440860 0.456490 0.474790 -0.170926
N2    N     N_2   0.559140 0.543510 0.525210 -0.172064
N3    N     N_1   0.298615 0.285490 0.205201 -0.214804
N4    N     N_1   0.743146 0.788157 0.772730 -0.212186
O1    O     O_R   0.891570 0.738930 0.506190 -0.607666
O2    O     O_R   0.108430 0.261070 0.493810 -0.609136
O3    O     O_R   0.174650 0.711050 0.490030 -0.625077
O4    O     O_R   0.825350 0.288950 0.509970 -0.625022
O5    O     O_R   0.909850 0.521900 0.644940 -0.608416
O6    O     O_R   0.090150 0.478100 0.355060 -0.603989
O7    O     O_R   0.192930 0.494020 0.628780 -0.615356
O8    O     O_R   0.807070 0.505980 0.371220 -0.619354
Zn1   Zn    Zn3+2 0.810990 0.518620 0.510790 0.947586
Zn2   Zn    Zn3+2 0.189010 0.481380 0.489210 0.950144

loop_
_geom_bond_atom_site_label_1
_geom_bond_atom_site_label_2
_ccdc_geom_bond_type
O2    Zn2   S    
C2    C4    S    
C16   C21   A    
C3    C9    A    
N2    Zn1   S    
C11   C16   A    
C24   H12   S    
C19   N4    T    
C13   C17   A    
C12   C25   S    
C4    C8    A    
O7    Zn2   S    
O1    Zn1   S    
C5    H8    S    
H3    N1    S    
C15   C23   A    
N1    Zn2   S    
H4    N2    S    
C12   O2    A    
C6    H9    S    
C25   H2    S    
C9    H7    S    
C9    C11   A    
C1    O3    A    
C5    C14   A    
C26   O5    A    
C6    C8    A    
C20   C22   A    
O8    Zn1   S    
C3    C7    A    
C22   H1    S    
C21   C23   A    
C13   C15   A    
C14   C22   A    
C11   C14   A    
C18   N3    T    
C4    C10   A    
C20   H10   S    
C10   H6    S    
O6    Zn2   S    
C17   C20   A    
C21   H11   S    
C24   C25   D    
C1    C24   S    
C12   O4    A    
C26   O7    A    
N1    N2    D    
C5    C7    A    
C7    C19   S    
O5    Zn1   S    
C2    O8    A    
O3    Zn2   S    
C2    O6    A    
C6    C15   A    
O4    Zn1   S    
C1    O1    A    
C3    C26   S    
C8    C18   S    
C16   C17   A    
C10   C13   A    
C23   H5    S    
