data_mof_unit_36336.cif
_audit_creation_date              2012-12-10T19:13:32-0500
_audit_creation_method            fapswitch 2.2
_symmetry_space_group_name_H-M    P1
_symmetry_Int_Tables_number       1
_space_group_crystal_system       triclinic
_cell_length_a                    9.706008
_cell_length_b                    10.895965
_cell_length_c                    16.858285
_cell_angle_alpha                 88.83946
_cell_angle_beta                  85.712642
_cell_angle_gamma                 89.827284
_cell_volume                      1777.51444149

loop_
_atom_site_label
_atom_site_type_symbol
_atom_type_description
_atom_site_fract_x
_atom_site_fract_y
_atom_site_fract_z
_atom_type_partial_charge
C1    C     C_R   0.499907 0.743123 0.502006 1.108626
C2    C     C_R   0.525690 0.536862 0.262590 0.003242
C3    C     C_3   0.355627 0.930217 0.540237 0.244381
C4    C     C_R   0.481047 0.497670 0.653267 1.076495
C5    C     C_3   0.358528 0.071311 0.539882 -0.348243
C6    C     C_3   0.615868 0.927692 0.562912 0.180141
C7    C     C_3   0.532315 0.939459 0.417868 0.635888
C8    C     C_3   0.501078 0.880220 0.506983 -0.443392
C9    C     C_3   0.503514 0.122538 0.511022 -0.255356
C10   C     C_3   0.617026 0.071529 0.565218 0.224824
C11   C     C_3   0.542786 0.080925 0.425211 -0.550344
C12   C     C_R   0.338305 0.536909 0.777497 -0.188967
C13   C     C_3   0.906928 0.513127 0.582803 -0.244642
C14   C     C_3   0.067560 0.496401 0.584472 0.337359
C15   C     C_3   0.924942 0.389443 0.464271 -0.228966
C16   C     C_R   0.499965 0.258265 0.507051 1.020854
C17   C     C_3   0.922759 0.607488 0.455598 -0.225462
C18   C     C_3   0.087696 0.396475 0.457691 -0.224162
C19   C     C_3   0.084502 0.613949 0.460557 -0.330434
C20   C     C_R   0.518251 0.503534 0.346828 0.920431
C21   C     C_R   0.468447 0.513657 0.738972 -0.106968
C22   C     C_R   0.587054 0.520506 0.780820 -0.108521
C23   C     C_R   0.408612 0.625252 0.154015 -0.098720
C24   C     C_R   0.575874 0.550887 0.860138 -0.180916
C25   C     C_R   0.446088 0.577272 0.898424 0.013339
C26   C     C_R   0.325843 0.570366 0.856778 0.474350
C27   C     C_R   0.403630 0.573228 0.229252 -0.148907
C28   C     C_R   0.653234 0.550399 0.218292 -0.121307
C29   C     C_R   0.657297 0.596802 0.140525 -0.127027
C30   C     C_R   0.534292 0.631225 0.107675 0.178836
C31   C     C_2   0.435100 0.595787 0.983812 -0.087657
C32   C     C_2   0.534083 0.650010 0.021846 -0.211664
H1    H     H_    0.279847 0.903012 0.498251 0.185886
H2    H     H_    0.131012 0.309455 0.480200 0.221243
H3    H     H_    0.898314 0.602604 0.392295 0.193137
H4    H     H_    0.748919 0.524968 0.243542 0.151908
H5    H     H_    0.875838 0.694123 0.478438 0.231755
H6    H     H_    0.111442 0.697710 0.492503 0.221206
H7    H     H_    0.134944 0.622584 0.399502 0.187141
H8    H     H_    0.888156 0.379528 0.403807 0.151594
H9    H     H_    0.126236 0.402910 0.393874 0.148574
H10   H     H_    0.624204 0.690453 0.989376 0.175095
H11   H     H_    0.246622 0.533911 0.744975 0.228665
H12   H     H_    0.279276 0.106574 0.500799 0.212291
H13   H     H_    0.668993 0.551143 0.891695 0.190169
H14   H     H_    0.688941 0.505252 0.752061 0.184169
H15   H     H_    0.755020 0.600824 0.105031 0.149940
H16   H     H_    0.224886 0.923817 0.753921 0.414156
H17   H     H_    0.328029 0.106338 0.599201 0.299706
H18   H     H_    0.555416 0.841776 0.779080 0.380834
H19   H     H_    0.711906 0.307517 0.701059 0.379658
H20   H     H_    0.792394 0.923807 0.247082 0.389928
H21   H     H_    0.265612 0.763528 0.320686 0.368242
H22   H     H_    0.849484 0.447794 0.623356 0.230816
H23   H     H_    0.477435 0.130231 0.383298 0.233728
H24   H     H_    0.876756 0.604872 0.606453 0.182513
H25   H     H_    0.261912 0.280765 0.703320 0.404938
H26   H     H_    0.076031 0.737057 0.986521 0.384705
H27   H     H_    0.312841 0.655014 0.130536 0.157703
H28   H     H_    0.348602 0.550905 0.016940 0.191546
H29   H     H_    0.303674 0.564785 0.261983 0.146808
H30   H     H_    0.649243 0.113769 0.407040 0.217099
H31   H     H_    0.714757 0.902770 0.531789 0.153701
H32   H     H_    0.718908 0.100308 0.535933 0.120126
H33   H     H_    0.107685 0.572427 0.619195 0.136270
H34   H     H_    0.888520 0.305959 0.498055 0.224301
N1    N     N_3   0.861190 0.500250 0.501720 -0.095252
N2    N     N_3   0.138550 0.503270 0.501080 -0.114578
O1    O     O_R   0.383960 0.685090 0.500020 -0.584581
O2    O     O_2   0.340114 0.749932 0.657268 -0.296019
O3    O     O_3   0.275083 0.966368 0.708028 -0.436209
O4    O     O_2   0.623460 0.715747 0.650926 -0.343309
O5    O     O_2   0.789645 0.867905 0.675633 -0.211088
O6    O     O_3   0.535905 0.896916 0.733814 -0.392249
O7    O     O_2   0.478706 0.146608 0.705704 -0.247605
O8    O     O_2   0.718501 0.083187 0.715361 -0.155866
O9    O     O_3   0.677480 0.286057 0.649298 -0.577599
O10   O     O_2   0.819266 0.907366 0.408263 -0.365911
O11   O     O_2   0.682236 0.753549 0.345525 -0.314984
O12   O     O_R   0.616040 0.685320 0.499960 -0.583280
O13   O     O_3   0.716428 0.966775 0.277781 -0.486615
O14   O     O_2   0.271747 0.991647 0.369459 -0.355528
O15   O     O_2   0.447570 0.940836 0.265810 -0.193973
O16   O     O_3   0.344693 0.764966 0.354508 -0.581464
O17   O     O_2   0.035590 0.381789 0.727144 -0.296232
O18   O     O_2   0.007068 0.251389 0.614769 -0.273364
O19   O     O_3   0.252830 0.304208 0.646904 -0.540739
O20   O     O_2   0.060727 0.632130 0.838318 -0.250678
O21   O     O_2   0.107557 0.498228 0.951797 -0.301676
O22   O     O_3   0.169017 0.729674 0.958524 -0.548685
O23   O     O_R   0.370240 0.499890 0.615830 -0.588877
O24   O     O_R   0.602330 0.500120 0.615770 -0.588549
O25   O     O_R   0.383960 0.314680 0.500040 -0.607225
O26   O     O_R   0.616040 0.314910 0.499980 -0.617047
O27   O     O_R   0.397670 0.499880 0.384230 -0.630662
O28   O     O_R   0.629760 0.500110 0.384170 -0.622329
O29   O     O_2   0.125176 0.841329 0.619645 -0.290319
S1    S     S_3+6 0.273648 0.867447 0.632844 0.082978
S2    S     S_3+6 0.642011 0.849530 0.657129 0.113923
S3    S     S_3+6 0.619333 0.143372 0.662507 0.108094
S4    S     S_3+6 0.692697 0.887016 0.364238 0.019881
S5    S     S_3+6 0.395730 0.911465 0.350275 0.033835
S6    S     S_3+6 0.090754 0.355050 0.643467 0.021093
S7    S     S_3+6 0.159537 0.605917 0.901149 0.032038
Zn1   Zn    Zn3+2 0.345040 0.499850 0.500040 1.027324
Zn2   Zn    Zn3+2 0.654960 0.500150 0.499960 1.016663

loop_
_geom_bond_atom_site_label_1
_geom_bond_atom_site_label_2
_ccdc_geom_bond_type
C25   C31   S    
C15   C18   S    
O15   S5    D    
C1    C8    S    
O16   S5    S    
O23   Zn1   S    
C11   H30   S    
O29   S1    D    
C7    C8    S    
O13   S4    S    
C23   H27   S    
C16   O25   A    
C29   H15   S    
H21   O16   S    
C24   H13   S    
C28   C29   A    
C9    C16   S    
C12   H11   S    
H18   O6    S    
C3    H1    S    
C18   N2    S    
O12   Zn2   S    
O9    S3    S    
O27   Zn1   S    
O25   Zn1   S    
C7    S5    S    
C2    C27   A    
C23   C27   A    
C27   H29   S    
C9    C10   S    
O17   S6    D    
C4    O23   A    
C26   S7    S    
C20   O28   A    
C21   C22   A    
O10   S4    D    
C5    H17   S    
O18   S6    D    
O20   S7    D    
O3    S1    S    
C17   N1    S    
C2    C20   S    
C23   C30   A    
C24   C25   A    
C3    C8    S    
C18   H9    S    
O1    Zn1   S    
C6    C8    S    
C25   C26   A    
C15   H34   S    
C12   C21   A    
C1    O1    A    
H25   O19   S    
C12   C26   A    
C31   H28   S    
C7    C11   S    
H19   O9    S    
C5    C9    S    
C29   C30   A    
C19   H6    S    
C6    H31   S    
C18   H2    S    
C31   C32   D    
C15   N1    S    
O14   S5    D    
C19   N2    S    
C17   H5    S    
C10   S3    S    
H26   O22   S    
O22   S7    S    
C19   H7    S    
O19   S6    S    
O24   Zn2   S    
C22   H14   S    
C20   O27   A    
C9    C11   S    
O21   S7    D    
C22   C24   A    
N2    Zn1   S    
H16   O3    S    
C11   H23   S    
C13   H22   S    
C13   N1    S    
O5    S2    D    
O28   Zn2   S    
O26   Zn2   S    
C14   N2    S    
C5    H12   S    
C10   H32   S    
C3    C5    S    
C6    C10   S    
N1    Zn2   S    
O6    S2    S    
O8    S3    D    
C16   O26   A    
C6    S2    S    
C13   H24   S    
C30   C32   S    
C4    C21   S    
C3    S1    S    
C14   S6    S    
O7    S3    D    
C17   C19   S    
C14   H33   S    
H20   O13   S    
C15   H8    S    
C28   H4    S    
C7    S4    S    
C1    O12   A    
C32   H10   S    
O11   S4    D    
C2    C28   A    
C17   H3    S    
C13   C14   S    
O2    S1    D    
C4    O24   A    
O4    S2    D    
