data_mof_unit_23576.cif
_audit_creation_date              2012-12-10T18:54:30-0500
_audit_creation_method            fapswitch 2.2
_symmetry_space_group_name_H-M    P1
_symmetry_Int_Tables_number       1
_space_group_crystal_system       triclinic
_cell_length_a                    19.420975
_cell_length_b                    18.122734
_cell_length_c                    9.077575
_cell_angle_alpha                 90.000708
_cell_angle_beta                  89.291566
_cell_angle_gamma                 90.004218
_cell_volume                      3194.70963317

loop_
_atom_site_label
_atom_site_type_symbol
_atom_type_description
_atom_site_fract_x
_atom_site_fract_y
_atom_site_fract_z
_atom_type_partial_charge
C1    C     C_R   0.367827 0.499979 0.501218 0.896693
C2    C     C_R   0.632174 0.499986 0.498786 0.897152
C3    C     C_R   0.447928 0.721321 0.568904 0.066209
C4    C     C_R   0.465447 0.278716 0.608192 0.078820
C5    C     C_R   0.552073 0.721326 0.431098 0.066237
C6    C     C_R   0.534554 0.278721 0.391808 0.078778
C7    C     C_R   0.446653 0.798922 0.568974 -0.250111
C8    C     C_R   0.465292 0.201117 0.610826 -0.248221
C9    C     C_R   0.553350 0.798928 0.431025 -0.250142
C10   C     C_R   0.534710 0.201122 0.389174 -0.248184
C11   C     C_R   0.500001 0.838720 0.499998 0.250028
C12   C     C_R   0.500001 0.161354 0.499999 0.262125
C13   C     C_R   0.545779 0.961015 0.590167 0.284830
C14   C     C_R   0.452748 0.039197 0.413459 0.289358
C15   C     C_R   0.454225 0.961007 0.409828 0.284820
C16   C     C_R   0.547256 0.039206 0.586538 0.289354
C17   C     C_R   0.500001 0.078701 0.499999 -0.216473
C18   C     C_R   0.500002 0.921422 0.499997 -0.221097
C19   C     C_R   0.499432 0.500004 0.220379 0.896504
C20   C     C_R   0.500556 0.500005 0.779622 0.896229
C21   C     C_1   0.499761 0.500009 0.065472 -0.127357
C22   C     C_1   0.500223 0.500010 0.934528 -0.127408
C23   C     C_R   0.745378 0.501064 0.364880 -0.120497
C24   C     C_R   0.257766 0.497623 0.364562 -0.163810
C25   C     C_R   0.254685 0.500976 0.635299 -0.120408
C26   C     C_R   0.742181 0.497641 0.635617 -0.163989
C27   C     C_R   0.817642 0.496297 0.367981 0.376521
C28   C     C_R   0.185297 0.502680 0.363677 0.481445
C29   C     C_R   0.182421 0.496228 0.632355 0.376700
C30   C     C_R   0.814647 0.502726 0.636651 0.481490
C31   C     C_R   0.851739 0.499603 0.503121 0.009940
C32   C     C_R   0.148261 0.499553 0.497287 0.009764
C33   C     C_R   0.707567 0.499777 0.499438 -0.233480
C34   C     C_R   0.292436 0.499749 0.500673 -0.233519
C35   C     C_R   0.963714 0.567702 0.499056 -0.080370
C36   C     C_R   0.036242 0.431769 0.495089 -0.084285
C37   C     C_R   0.036319 0.567687 0.501563 -0.080436
C38   C     C_R   0.963724 0.431783 0.505419 -0.084333
C39   C     C_R   0.072273 0.499711 0.496569 0.160732
C40   C     C_R   0.927727 0.499740 0.503984 0.160804
Cu1   Cu    Cu3+1 0.500000 0.573360 0.500000 0.954769
Cu2   Cu    Cu3+1 0.500000 0.426640 0.500000 0.995340
H1    H     H_    0.407035 0.691325 0.624290 0.136315
H2    H     H_    0.437829 0.308784 0.693171 0.148711
H3    H     H_    0.592967 0.691334 0.375717 0.136448
H4    H     H_    0.562171 0.308793 0.306829 0.148547
H5    H     H_    0.404752 0.827710 0.623872 0.136062
H6    H     H_    0.437866 0.172319 0.698060 0.132578
H7    H     H_    0.595252 0.827720 0.376128 0.136076
H8    H     H_    0.562137 0.172328 0.301940 0.132562
N1    N     N_R   0.500000 0.683620 0.500000 -0.177211
N2    N     N_R   0.500000 0.316380 0.500000 -0.183111
O1    O     O_R   0.400190 0.561980 0.499980 -0.600998
O2    O     O_R   0.599810 0.438020 0.500020 -0.563330
O3    O     O_R   0.599810 0.561980 0.500020 -0.600756
O4    O     O_R   0.400190 0.438020 0.499980 -0.563063
O5    O     O_R   0.500000 0.561940 0.288400 -0.590118
O6    O     O_R   0.500000 0.438060 0.711600 -0.577657
O7    O     O_R   0.500000 0.561940 0.711600 -0.590337
O8    O     O_R   0.500000 0.438060 0.288400 -0.577837
C41   C     C_2   0.711827 0.509073 0.219606 0.385671
H9    H     H_    0.739975 0.534463 0.129019 0.129642
O9    O     O_2   0.653940 0.485887 0.197640 -0.564896
C42   C     C_2   0.297127 0.488772 0.224254 0.407363
H10   H     H_    0.349892 0.507801 0.214758 0.031427
O10   O     O_2   0.271657 0.457572 0.119047 -0.520375
C43   C     C_2   0.288319 0.508867 0.780495 0.385477
H11   H     H_    0.260345 0.534510 0.871041 0.129462
O11   O     O_2   0.346056 0.485257 0.802454 -0.564715
C44   C     C_2   0.702767 0.488770 0.775852 0.407512
H12   H     H_    0.650003 0.507800 0.785273 0.031480
O12   O     O_2   0.728195 0.457556 0.881085 -0.520408
O13   O     O_3   0.856372 0.491933 0.238809 -0.590124
C45   C     C_3   0.853054 0.419220 0.181898 0.062617
H13   H     H_    0.810549 0.415247 0.101736 0.219000
H14   H     H_    0.844428 0.376271 0.268245 0.138264
C46   C     C_3   0.920297 0.400932 0.102171 -0.746343
H15   H     H_    0.964426 0.408905 0.177165 0.245051
H16   H     H_    0.919574 0.342586 0.064902 0.211778
H17   H     H_    0.927131 0.436808 0.004160 0.280214
O14   O     O_3   0.149387 0.507714 0.232908 -0.541421
C47   C     C_3   0.154357 0.580589 0.177106 0.067570
H18   H     H_    0.197976 0.584176 0.097221 0.173523
H19   H     H_    0.162482 0.623139 0.264059 0.127602
C48   C     C_3   0.088287 0.600241 0.097494 -0.766251
H20   H     H_    0.043063 0.592045 0.171782 0.246397
H21   H     H_    0.090008 0.658899 0.062329 0.208876
H22   H     H_    0.082411 0.565362 0.998159 0.285249
O15   O     O_3   0.143760 0.491801 0.761613 -0.589945
C49   C     C_3   0.147085 0.419048 0.818314 0.063079
H23   H     H_    0.189690 0.414977 0.898209 0.219048
H24   H     H_    0.155565 0.376153 0.731802 0.138239
C50   C     C_3   0.079925 0.400761 0.898365 -0.746622
H25   H     H_    0.035697 0.408974 0.823741 0.245080
H26   H     H_    0.080582 0.342342 0.935177 0.211690
H27   H     H_    0.073318 0.436462 0.996699 0.280604
O16   O     O_3   0.850494 0.507820 0.767492 -0.541374
C51   C     C_3   0.845456 0.580709 0.823197 0.067424
H28   H     H_    0.801772 0.584300 0.902918 0.173247
H29   H     H_    0.837384 0.623228 0.736164 0.127828
C52   C     C_3   0.911454 0.600426 0.903022 -0.766462
H30   H     H_    0.956741 0.592208 0.828924 0.246316
H31   H     H_    0.909694 0.659101 0.938067 0.208891
H32   H     H_    0.917249 0.565602 0.002448 0.285417
C53   C     C_2   0.925995 0.639475 0.497663 0.297055
H33   H     H_    0.945806 0.686404 0.558013 0.073822
O17   O     O_2   0.873470 0.647594 0.427019 -0.546243
C54   C     C_2   0.073965 0.360038 0.489170 0.301436
H34   H     H_    0.054831 0.312883 0.550838 0.068108
O18   O     O_2   0.125806 0.352263 0.413382 -0.524305
C55   C     C_2   0.074074 0.639445 0.502969 0.297027
H35   H     H_    0.054281 0.686390 0.442650 0.073826
O19   O     O_2   0.126611 0.647534 0.573588 -0.546249
C56   C     C_2   0.925962 0.360067 0.511235 0.301520
H36   H     H_    0.945075 0.312920 0.449523 0.068082
O20   O     O_2   0.874109 0.352296 0.586991 -0.524309
O21   O     O_3   0.591927 0.923183 0.676904 -0.556543
C57   C     C_3   0.562708 0.914624 0.819010 0.109669
H37   H     H_    0.512729 0.884629 0.814353 0.123901
H38   H     H_    0.554548 0.969206 0.872907 0.163980
C58   C     C_3   0.611544 0.869725 0.913149 -0.787914
H39   H     H_    0.661829 0.898530 0.921416 0.252996
H40   H     H_    0.589373 0.862631 0.025534 0.181294
H41   H     H_    0.619805 0.814440 0.863135 0.253693
O22   O     O_3   0.407646 0.077325 0.324747 -0.556462
C59   C     C_3   0.343553 0.082951 0.398900 0.097818
H42   H     H_    0.349241 0.107653 0.510573 0.125301
H43   H     H_    0.318841 0.027746 0.409551 0.176619
C60   C     C_3   0.296300 0.132607 0.310664 -0.742324
H44   H     H_    0.288590 0.109065 0.199103 0.246760
H45   H     H_    0.245548 0.137352 0.367573 0.203427
H46   H     H_    0.319331 0.188493 0.299911 0.260169
O23   O     O_3   0.408076 0.923168 0.323091 -0.556543
C61   C     C_3   0.437297 0.914605 0.180988 0.109686
H47   H     H_    0.487267 0.884599 0.185653 0.123914
H48   H     H_    0.445476 0.969185 0.127095 0.163960
C62   C     C_3   0.388450 0.869716 0.086839 -0.787937
H49   H     H_    0.338176 0.898533 0.078560 0.252995
H50   H     H_    0.410625 0.862614 0.974460 0.181295
H51   H     H_    0.380167 0.814433 0.136853 0.253681
O24   O     O_3   0.592358 0.077342 0.675248 -0.556471
C63   C     C_3   0.656451 0.082976 0.601095 0.097799
H52   H     H_    0.650762 0.107667 0.489414 0.125292
H53   H     H_    0.681165 0.027776 0.590461 0.176628
C64   C     C_3   0.703700 0.132651 0.689317 -0.742317
H54   H     H_    0.711410 0.109122 0.800886 0.246764
H55   H     H_    0.754453 0.137401 0.632410 0.203427
H56   H     H_    0.680666 0.188533 0.700049 0.260168

loop_
_geom_bond_atom_site_label_1
_geom_bond_atom_site_label_2
_ccdc_geom_bond_type
C15   C18   A    
C11   C18   S    
C59   H42   S    
C36   C54   S    
O13   C45   S    
C55   H35   S    
C25   C43   S    
C4    C8    A    
Cu2   O6    S    
C61   C62   S    
C29   O15   S    
C56   H36   S    
C46   H15   S    
C19   O5    A    
C7    C11   A    
C62   H50   S    
C30   O16   S    
C3    H1    S    
C52   H30   S    
C14   O22   S    
C45   H14   S    
C13   C18   A    
C4    N2    A    
C19   C21   S    
C1    O4    A    
C29   C32   A    
C3    C7    A    
C2    O3    A    
C64   H54   S    
C30   C31   A    
C38   C56   S    
C48   H22   S    
O16   C51   S    
C54   H34   S    
Cu1   Cu2   S    
C32   C39   S    
C41   O9    D    
C1    O1    A    
C57   H37   S    
Cu1   O3    S    
C58   H41   S    
Cu2   O4    S    
C31   C40   S    
C49   H24   S    
C16   C17   A    
C23   C33   A    
C45   C46   S    
C12   C17   S    
C44   H12   S    
C23   C27   A    
C25   C34   A    
C60   H46   S    
C48   H21   S    
C52   H31   S    
C21   C22   T    
C63   C64   S    
C64   H55   S    
C1    C34   S    
O14   C47   S    
C46   H16   S    
C25   C29   A    
C62   H51   S    
C37   C55   S    
C45   H13   S    
C27   C31   A    
C43   H11   S    
C28   C32   A    
C9    H7    S    
Cu1   O7    S    
C2    O2    A    
Cu2   O8    S    
C3    N1    A    
C61   H48   S    
C4    H2    S    
C59   C60   S    
C48   H20   S    
C5    H3    S    
C47   H18   S    
C24   C34   A    
C24   C42   S    
C43   O11   D    
C57   C58   S    
C7    H5    S    
C8    H6    S    
C5    C9    A    
C35   C53   S    
C53   O17   D    
C26   C33   A    
C56   O20   D    
C8    C12   A    
C55   O19   D    
C50   H25   S    
C20   O7    A    
C9    C11   A    
Cu1   O1    S    
C58   H39   S    
C10   C12   A    
C2    C33   S    
C20   C22   S    
C26   C30   A    
C52   H32   S    
C47   H19   S    
O23   C61   S    
C26   C44   S    
C63   H53   S    
C20   O6    A    
C10   H8    S    
C64   H56   S    
C49   C50   S    
C60   H44   S    
C62   H49   S    
C46   H17   S    
C59   H43   S    
C6    H4    S    
C35   C37   A    
C28   O14   S    
C63   H52   S    
C36   C39   A    
C24   C28   A    
C6    C10   A    
C13   O21   S    
C61   H47   S    
C15   O23   S    
C19   O8    A    
C50   H27   S    
C47   C48   S    
C53   H33   S    
C51   H29   S    
C51   C52   S    
C42   H10   S    
C36   C38   A    
C16   O24   S    
Cu1   O5    S    
C37   C39   A    
C27   O13   S    
O24   C63   S    
Cu2   O2    S    
C38   C40   A    
C49   H23   S    
O22   C59   S    
C54   O18   D    
C35   C40   A    
C41   H9    S    
C57   H38   S    
C58   H40   S    
C23   C41   S    
C50   H26   S    
C51   H28   S    
C13   C16   A    
Cu2   N2    S    
C14   C15   A    
C5    N1    A    
C44   O12   D    
C6    N2    A    
O15   C49   S    
O21   C57   S    
Cu1   N1    S    
C42   O10   D    
C60   H45   S    
C14   C17   A    
