data_mof_unit_64228.cif
_audit_creation_date              2012-12-10T21:31:17-0500
_audit_creation_method            fapswitch 2.2
_symmetry_space_group_name_H-M    P1
_symmetry_Int_Tables_number       1
_space_group_crystal_system       triclinic
_cell_length_a                    15.018102
_cell_length_b                    16.146981
_cell_length_c                    16.869968
_cell_angle_alpha                 87.335276
_cell_angle_beta                  90.627498
_cell_angle_gamma                 92.631434
_cell_volume                      4082.02476289

loop_
_atom_site_label
_atom_site_type_symbol
_atom_type_description
_atom_site_fract_x
_atom_site_fract_y
_atom_site_fract_z
_atom_type_partial_charge
C1    C     C_R   0.497106 0.488611 0.652566 0.917500
C2    C     C_R   0.556453 0.470194 0.137298 -0.249597
C3    C     C_R   0.492249 0.468011 0.902776 0.182627
C4    C     C_R   0.507750 0.531989 0.097224 0.182627
C5    C     C_R   0.533793 0.408823 0.860338 0.661864
C6    C     C_R   0.466207 0.591177 0.139662 0.661865
C7    C     C_R   0.533233 0.414971 0.778123 -0.272225
C8    C     C_R   0.466767 0.585028 0.221877 -0.272226
C9    C     C_R   0.456523 0.762297 0.461219 0.638469
C10   C     C_R   0.543477 0.237703 0.538780 0.638468
C11   C     C_R   0.458249 0.849402 0.462865 0.495047
C12   C     C_R   0.502894 0.511389 0.347434 0.917499
C13   C     C_R   0.541751 0.150598 0.537135 0.495047
C14   C     C_R   0.517367 0.890848 0.515513 0.105435
C15   C     C_R   0.482633 0.109152 0.484487 0.105435
C16   C     C_R   0.673465 0.499970 0.500006 0.886228
C17   C     C_R   0.326535 0.500030 0.499994 0.886229
C18   C     C_R   0.572327 0.842346 0.564392 -0.336371
C19   C     C_R   0.427673 0.157654 0.435608 -0.336371
C20   C     C_R   0.568532 0.755591 0.560923 -0.051155
C21   C     C_R   0.431468 0.244408 0.439077 -0.051155
C22   C     C_R   0.188725 0.574688 0.507676 -0.085793
C23   C     C_R   0.946187 0.349989 0.484685 0.564661
C24   C     C_R   0.811275 0.425312 0.492324 -0.085793
C25   C     C_R   0.230664 0.500039 0.500109 -0.126907
C26   C     C_R   0.769336 0.499961 0.499891 -0.126907
C27   C     C_R   0.181164 0.425367 0.492651 -0.115174
C28   C     C_R   0.818836 0.574633 0.507349 -0.115174
C29   C     C_R   0.088938 0.424617 0.492452 -0.077652
C30   C     C_R   0.911062 0.575383 0.507548 -0.077651
C31   C     C_R   0.046365 0.500008 0.500046 -0.079742
C32   C     C_R   0.953635 0.499992 0.499954 -0.079742
C33   C     C_R   0.096553 0.575412 0.507737 -0.090935
C34   C     C_R   0.053813 0.650011 0.515315 0.564661
C35   C     C_R   0.903447 0.424588 0.492263 -0.090935
C36   C     C_R   0.038692 0.350003 0.484780 0.551262
C37   C     C_R   0.961307 0.649997 0.515220 0.551263
C38   C     C_1   0.626071 0.708008 0.612194 0.350530
C39   C     C_1   0.373929 0.291992 0.387806 0.350530
C40   C     C_1   0.608763 0.399668 0.258416 0.250612
C41   C     C_1   0.391237 0.600332 0.741584 0.250612
C42   C     C_R   0.490551 0.480202 0.738086 -0.183442
C43   C     C_R   0.509449 0.519798 0.261914 -0.183442
C44   C     C_R   0.442727 0.536465 0.780530 -0.055264
C45   C     C_R   0.557273 0.463535 0.219470 -0.055264
C46   C     C_R   0.443547 0.529806 0.862702 -0.249597
F1    F     F_    0.597373 0.108376 0.586573 -0.573031
F2    F     F_    0.399929 0.722988 0.410684 -0.595581
F3    F     F_    0.402627 0.891624 0.413427 -0.573031
F4    F     F_    0.079052 0.277186 0.477363 -0.591948
F5    F     F_    0.920948 0.722814 0.522637 -0.591948
F6    F     F_    0.898505 0.277156 0.477217 -0.577057
F7    F     F_    0.101495 0.722844 0.522783 -0.577057
F8    F     F_    0.578821 0.347828 0.898882 -0.611164
F9    F     F_    0.421179 0.652172 0.101118 -0.611164
F10   F     F_    0.600071 0.277012 0.589315 -0.595581
H1    H     H_    0.227892 0.632189 0.513630 0.231312
H2    H     H_    0.431177 0.629403 0.254218 0.235479
H3    H     H_    0.772108 0.367811 0.486370 0.231312
H4    H     H_    0.618217 0.872376 0.605278 0.234647
H5    H     H_    0.381783 0.127624 0.394722 0.234647
H6    H     H_    0.214475 0.367838 0.486877 0.211602
H7    H     H_    0.785525 0.632162 0.513123 0.211602
H8    H     H_    0.592502 0.426465 0.104478 0.211272
H9    H     H_    0.407498 0.573534 0.895522 0.211272
H10   H     H_    0.568823 0.370597 0.745782 0.235479
N1    N     N_2   0.502766 0.465383 0.985684 -0.120708
N2    N     N_1   0.350029 0.651396 0.710358 -0.148227
N3    N     N_2   0.497233 0.534617 0.014316 -0.120708
N4    N     N_R   0.511030 0.716920 0.509720 -0.201475
N5    N     N_R   0.488970 0.283080 0.490280 -0.201476
N6    N     N_2   0.524940 0.979299 0.522322 -0.024184
N7    N     N_2   0.475060 0.020701 0.477678 -0.024184
N8    N     N_1   0.672510 0.670076 0.653670 -0.172656
N9    N     N_1   0.327490 0.329924 0.346330 -0.172656
N10   N     N_1   0.649971 0.348604 0.289642 -0.148227
O1    O     O_R   0.496050 0.422540 0.612660 -0.571728
O2    O     O_R   0.503950 0.577460 0.387340 -0.571727
O3    O     O_R   0.503140 0.561840 0.618900 -0.629855
O4    O     O_R   0.496860 0.438160 0.381100 -0.629855
O5    O     O_R   0.628610 0.430340 0.496900 -0.579017
O6    O     O_R   0.371390 0.569660 0.503100 -0.579017
O7    O     O_R   0.635690 0.569650 0.503140 -0.638577
O8    O     O_R   0.364310 0.430350 0.496860 -0.638578
Zn1   Zn    Zn3+2 0.495270 0.406980 0.495830 1.030918
Zn2   Zn    Zn3+2 0.504730 0.593020 0.504170 1.030919

loop_
_geom_bond_atom_site_label_1
_geom_bond_atom_site_label_2
_ccdc_geom_bond_type
C27   C29   A    
C34   C37   A    
C1    O1    A    
C14   C18   A    
C8    C43   A    
C6    F9    S    
C22   H1    S    
C15   C19   A    
C29   C36   A    
C21   N5    A    
C19   C21   A    
C24   C26   A    
C12   C43   S    
C37   F5    S    
C11   C14   A    
C17   O6    A    
C7    C42   A    
C8    H2    S    
N5    Zn1   S    
C44   C46   A    
C22   C25   A    
C12   O2    A    
C31   C33   A    
C39   N9    T    
C10   F10   S    
C9    C11   A    
C10   N5    A    
O2    Zn2   S    
O1    Zn1   S    
C20   N4    A    
C42   C44   A    
C4    N3    S    
C2    H8    S    
C41   N2    T    
C2    C45   A    
C16   C26   S    
C40   C45   S    
C24   C35   A    
C32   C35   A    
C5    F8    S    
C9    N4    A    
C46   H9    S    
C4    C6    A    
C5    C7    A    
C6    C8    A    
O6    Zn2   S    
C16   O7    A    
C40   N10   T    
C30   C37   A    
N1    N3    D    
C2    C4    A    
O4    Zn1   S    
C11   F3    S    
C27   H6    S    
C20   C38   S    
C31   C32   A    
C21   C39   S    
C33   C34   A    
O8    Zn1   S    
C43   C45   A    
C34   F7    S    
C18   H4    S    
C15   N7    S    
C23   C35   A    
C13   C15   A    
C1    O3    A    
C41   C44   S    
N4    Zn2   S    
C36   F4    S    
C13   F1    S    
C38   N8    T    
C22   C33   A    
C14   N6    S    
C3    N1    S    
N6    N7    D    
C3    C5    A    
C10   C13   A    
C25   C27   A    
C3    C46   A    
C26   C28   A    
C17   O8    A    
C17   C25   S    
C28   C30   A    
C29   C31   A    
C7    H10   S    
C30   C32   A    
C23   F6    S    
C19   H5    S    
C24   H3    S    
C12   O4    A    
C16   O5    A    
C18   C20   A    
C28   H7    S    
C1    C42   S    
O7    Zn2   S    
C9    F2    S    
C23   C36   A    
O3    Zn2   S    
O5    Zn1   S    
