data_mof_unit_28284.cif
_audit_creation_date              2013-03-05T16:48:55-0500
_audit_creation_method            fapswitch 2.2
_symmetry_space_group_name_H-M    P1
_symmetry_Int_Tables_number       1
_space_group_crystal_system       triclinic
_cell_length_a                    10.835337
_cell_length_b                    10.872598
_cell_length_c                    12.729255
_cell_angle_alpha                 93.702401
_cell_angle_beta                  92.775492
_cell_angle_gamma                 91.751291
_cell_volume                      1493.87218628

loop_
_atom_site_label
_atom_site_type_symbol
_atom_site_description
_atom_site_fract_x
_atom_site_fract_y
_atom_site_fract_z
_atom_type_partial_charge
O1    O     O_R   0.313000 0.493330 0.412070 -0.579592
O2    O     O_R   0.687000 0.506670 0.587930 -0.579594
O3    O     O_R   0.326280 0.506660 0.587930 -0.556606
O4    O     O_R   0.673720 0.493340 0.412070 -0.556611
C1    C     C_R   0.262047 0.504213 0.500744 0.797222
C2    C     C_R   0.737953 0.495777 0.499256 0.797216
O5    O     O_R   0.493370 0.312980 0.412070 -0.591339
O6    O     O_R   0.506630 0.687020 0.587930 -0.591308
O7    O     O_R   0.506650 0.326310 0.587930 -0.549482
O8    O     O_R   0.493350 0.673690 0.412070 -0.549456
C3    C     C_R   0.499240 0.262005 0.499937 0.805897
C4    C     C_R   0.500763 0.737996 0.500062 0.805976
Cu1   Cu    Cu3+1 0.492140 0.492110 0.395880 1.032697
Cu2   Cu    Cu3+1 0.507860 0.507890 0.604120 1.032701
H1    H     H_    0.889620 0.344124 0.844410 0.159149
H2    H     H_    0.110861 0.655867 0.155212 0.159230
C5    C     C_R   0.861387 0.249654 0.691223 -0.108796
C6    C     C_R   0.138865 0.750253 0.308443 -0.108735
H3    H     H_    0.952990 0.273482 0.666939 0.156383
H4    H     H_    0.047244 0.726345 0.332633 0.156391
C7    C     C_R   0.779157 0.178977 0.622553 -0.226999
C8    C     C_R   0.220974 0.820940 0.377208 -0.226760
H5    H     H_    0.809515 0.146025 0.546447 0.129645
H6    H     H_    0.190504 0.853833 0.453286 0.129598
C9    C     C_R   0.659626 0.148051 0.652484 0.019634
C10   C     C_R   0.340529 0.851957 0.347403 0.019638
C11   C     C_R   0.624067 0.185230 0.755574 0.392641
C12   C     C_R   0.376225 0.814879 0.244341 0.392778
C13   C     C_R   0.708719 0.256412 0.823499 -0.196431
C14   C     C_R   0.291694 0.743702 0.176309 -0.196495
H7    H     H_    0.683379 0.288239 0.901511 0.159220
H8    H     H_    0.317155 0.711957 0.098313 0.159097
C15   C     C_R   0.825886 0.289032 0.791264 -0.140764
C16   C     C_R   0.174506 0.710972 0.208425 -0.140849
C17   C     C_R   0.576968 0.943972 0.574691 -0.048213
C18   C     C_R   0.423029 0.056035 0.425319 -0.048340
C19   C     C_R   0.500468 0.871686 0.500068 -0.108997
C20   C     C_R   0.499544 0.128319 0.499929 -0.109007
C21   C     C_R   0.424117 0.927439 0.424777 0.016151
C22   C     C_R   0.575929 0.072568 0.575195 0.016355
H9    H     H_    0.277867 0.807768 0.932802 0.163929
H10   H     H_    0.722174 0.192362 0.067067 0.164036
C23   C     C_R   0.160128 0.651723 0.876302 -0.097776
C24   C     C_R   0.840044 0.348272 0.123642 -0.097739
H11   H     H_    0.139792 0.625758 0.954376 0.168708
H12   H     H_    0.860511 0.374188 0.045581 0.168706
C25   C     C_R   0.107231 0.583550 0.787591 -0.080435
C26   C     C_R   0.892919 0.416404 0.212387 -0.080555
H13   H     H_    0.046467 0.504931 0.798263 0.139442
H14   H     H_    0.953796 0.494943 0.201749 0.139456
C27   C     C_R   0.131649 0.617699 0.685731 0.099600
C28   C     C_R   0.868354 0.382308 0.314231 0.099596
C29   C     C_R   0.209893 0.721193 0.674774 -0.126832
C30   C     C_R   0.789981 0.278899 0.325137 -0.126749
H15   H     H_    0.229302 0.749963 0.597618 0.100266
H16   H     H_    0.770447 0.250170 0.402276 0.100317
C31   C     C_R   0.262523 0.789004 0.763520 -0.108855
C32   C     C_R   0.737352 0.211145 0.236357 -0.108674
H17   H     H_    0.321113 0.869438 0.754031 0.173160
H18   H     H_    0.678640 0.130794 0.245804 0.173107
C33   C     C_R   0.237748 0.754338 0.864260 -0.143971
C34   C     C_R   0.762283 0.245757 0.135634 -0.143851
C35   C     C_R   0.939327 0.541469 0.588660 -0.254418
C36   C     C_R   0.060675 0.458477 0.411345 -0.254461
H19   H     H_    0.891807 0.576113 0.656853 0.180334
H20   H     H_    0.108203 0.423826 0.343158 0.180353
C37   C     C_R   0.871564 0.492539 0.498298 -0.067939
C38   C     C_R   0.128435 0.507422 0.501700 -0.067994
C39   C     C_R   0.932602 0.448062 0.408635 -0.006713
C40   C     C_R   0.067396 0.551896 0.591360 -0.006743
N1    N     N_1   0.480320 0.480250 0.239400 -0.144480
N2    N     N_1   0.519680 0.519750 0.760600 -0.144489
C41   C     C_2   0.454516 0.478722 0.031146 0.110610
C42   C     C_2   0.545478 0.521263 0.968853 0.110445
C43   C     C_1   0.528813 0.520578 0.852607 0.278701
C44   C     C_1   0.471187 0.479415 0.147393 0.278655
N3    N     N_R   0.663879 0.568002 0.014389 0.096487
O9    O     O_R   0.758793 0.571883 0.955651 -0.432006
O10   O     O_R   0.675498 0.618729 0.109927 -0.316042
N4    N     N_R   0.336111 0.431983 0.985616 0.096545
O11   O     O_R   0.324459 0.381334 0.890052 -0.316027
O12   O     O_R   0.241213 0.428063 0.044371 -0.432048
N5    N     N_R   0.504786 0.151706 0.792974 0.113469
O13   O     O_R   0.409610 0.126625 0.728011 -0.369244
O14   O     O_R   0.489257 0.151627 0.893765 -0.371553
N6    N     N_R   0.495537 0.848514 0.207083 0.113381
O15   O     O_R   0.590711 0.873184 0.272128 -0.369011
O16   O     O_R   0.511099 0.849058 0.106331 -0.371675
C45   C     C_R   0.665729 0.887482 0.648307 0.116361
C46   C     C_R   0.787120 0.868330 0.619037 -0.148713
C47   C     C_R   0.875505 0.830205 0.692457 -0.162657
C48   C     C_R   0.842612 0.807796 0.794508 -0.082869
C49   C     C_R   0.721414 0.825458 0.823755 -0.086098
C50   C     C_R   0.633344 0.866166 0.751207 -0.104523
H21   H     H_    0.814035 0.886850 0.540586 0.135789
H22   H     H_    0.969617 0.818852 0.670221 0.148659
H23   H     H_    0.911188 0.777796 0.851108 0.162310
H24   H     H_    0.696148 0.809693 0.903116 0.201701
H25   H     H_    0.540855 0.883076 0.775602 0.154107
C51   C     C_R   0.334185 0.112521 0.351776 0.116361
C52   C     C_R   0.366442 0.133833 0.248845 -0.104558
C53   C     C_R   0.278267 0.174462 0.176352 -0.086053
C54   C     C_R   0.157094 0.192052 0.205687 -0.083080
C55   C     C_R   0.124335 0.169672 0.307776 -0.162531
C56   C     C_R   0.212823 0.131622 0.381137 -0.148807
H26   H     H_    0.458907 0.116960 0.224381 0.154065
H27   H     H_    0.303429 0.190211 0.096964 0.201679
H28   H     H_    0.088434 0.221973 0.149126 0.162194
H29   H     H_    0.030246 0.180984 0.330083 0.148617
H30   H     H_    0.186010 0.113105 0.459614 0.135775

loop_
_geom_bond_atom_site_label_1
_geom_bond_atom_site_label_2
_geom_bond_distance
_ccdc_geom_bond_type
C32   C34   1.395740 A    
C14   H8    1.081217 S    
C56   H30   1.083217 S    
C35   H19   1.083249 S    
C49   C50   1.397353 A    
C11   C13   1.407572 A    
C41   C42   1.381767 D    
H9    C33   1.081683 S    
C46   H21   1.083253 S    
C25   H13   1.082533 S    
N3    O9    1.301678 A    
O5    C3    1.279668 A    
C51   C56   1.402248 A    
C52   C53   1.397325 A    
O1    C1    1.280621 A    
C36   C38   1.400144 A    
C17   C19   1.412296 A    
N2    C43   1.170000 T    
C9    C22   1.492559 S    
N1    C44   1.170001 T    
N6    O16   1.301975 A    
C10   C21   1.492536 S    
C31   H17   1.081458 S    
C32   H18   1.081389 S    
C13   C15   1.395567 A    
C4    C19   1.453650 S    
C45   C50   1.404026 A    
C48   C49   1.397702 A    
C28   C39   1.489092 S    
H2    C16   1.081870 S    
C47   H22   1.079975 S    
O4    Cu1   1.967840 S    
C24   H12   1.081489 S    
C42   N3    1.445744 S    
C54   H28   1.082055 S    
C27   C40   1.489023 S    
H10   C34   1.081712 S    
C26   H14   1.082478 S    
Cu1   Cu2   2.642087 S    
O2    C2    1.280629 A    
C5    C15   1.392852 A    
C1    C38   1.449838 S    
C55   C56   1.396396 A    
C28   C30   1.406309 A    
C48   H23   1.082089 S    
C30   H16   1.078082 S    
C29   H15   1.078115 S    
C35   C37   1.400169 A    
C42   C43   1.481513 S    
C14   C16   1.395543 A    
N4    O12   1.301685 A    
C47   C48   1.397962 A    
C29   C31   1.396163 A    
N6    O15   1.301028 A    
C25   C27   1.406553 A    
Cu1   N1    1.985373 S    
C24   C34   1.397351 A    
C5    C7    1.394418 A    
C27   C29   1.406356 A    
C36   H20   1.083248 S    
C3    C20   1.453617 S    
O7    Cu2   1.971269 S    
C6    C16   1.392817 A    
N5    O13   1.301060 A    
C35   C40   1.387417 A    
O5    Cu1   1.972051 S    
O6    C4    1.279681 A    
N3    O10   1.301274 A    
C53   H27   1.082143 S    
C18   C51   1.484384 S    
C36   C39   1.387445 A    
C23   H11   1.081462 S    
O3    Cu2   1.967842 S    
O8    C4    1.279289 A    
C17   C45   1.484414 S    
O4    C2    1.279469 A    
C2    C37   1.449845 S    
N5    O14   1.302090 A    
O7    C3    1.279284 A    
C12   N6    1.443199 S    
C41   C44   1.481515 S    
C8    H6    1.080820 S    
O1    Cu1   1.962207 S    
C23   C33   1.397438 A    
C30   C32   1.396204 A    
C52   H26   1.080962 S    
C7    C9    1.404774 A    
O6    Cu2   1.972051 S    
C6    C8    1.394388 A    
Cu2   N2    1.985373 S    
C18   C21   1.398160 A    
N4    O11   1.301287 A    
O3    C1    1.279471 A    
O8    Cu1   1.971269 S    
C31   C33   1.395756 A    
C9    C11   1.422620 A    
C10   C12   1.422523 A    
C7    H5    1.080893 S    
C17   C22   1.398168 A    
C12   C14   1.407505 A    
C19   C21   1.413960 A    
C20   C22   1.413939 A    
C46   C47   1.396430 A    
C55   H29   1.079958 S    
C50   H25   1.081000 S    
C18   C20   1.412265 A    
C51   C52   1.403975 A    
C5    H3    1.082663 S    
C41   N4    1.445761 S    
C6    H4    1.082626 S    
C53   C54   1.397660 A    
O2    Cu2   1.962206 S    
C11   N5    1.443313 S    
C26   C28   1.406551 A    
C13   H7    1.081245 S    
C8    C10   1.404708 A    
C54   C55   1.397914 A    
C38   C40   1.412505 A    
C37   C39   1.412558 A    
C45   C46   1.402288 A    
C23   C25   1.398692 A    
C49   H24   1.082176 S    
H1    C15   1.081898 S    
C24   C26   1.398723 A    
