data_mof_unit_61385.cif
_audit_creation_date              2012-10-26T17:49:38-0400
_audit_creation_method            fapswitch 2.2
_symmetry_space_group_name_H-M    P1
_symmetry_Int_Tables_number       1
_space_group_crystal_system       triclinic
_cell_length_a                    21.766341
_cell_length_b                    21.772758
_cell_length_c                    22.45825
_cell_angle_alpha                 119.405451
_cell_angle_beta                  119.91949
_cell_angle_gamma                 90.196093
_cell_volume                      7589.32582837

loop_
_atom_site_label
_atom_site_type_symbol
_atom_type_description
_atom_site_fract_x
_atom_site_fract_y
_atom_site_fract_z
_atom_type_partial_charge
C1    C     C_R   0.498035 0.116716 0.496095 0.536264
C2    C     C_3   0.207941 0.712124 0.916986 -0.066766
C3    C     C_3   0.780850 0.202830 0.047953 -0.093768
C4    C     C_3   0.219176 0.797172 0.952048 -0.093770
C5    C     C_3   0.726386 0.154122 0.949383 -0.064718
C6    C     C_3   0.273640 0.845878 0.050618 -0.064722
C7    C     C_1   0.838728 0.335427 0.175583 0.033911
C8    C     C_1   0.161273 0.664571 0.824416 0.033912
C9    C     C_1   0.664277 0.160946 0.824525 0.020096
C10   C     C_1   0.335723 0.839053 0.175475 0.020096
C11   C     C_1   0.626518 0.124065 0.749279 0.040290
C12   C     C_R   0.501964 0.883284 0.503904 0.536265
C13   C     C_1   0.373482 0.875934 0.250721 0.040289
C14   C     C_R   0.357302 0.130009 0.386531 -0.068077
C15   C     C_R   0.642696 0.869993 0.613473 -0.068071
C16   C     C_R   0.580482 0.079855 0.659752 0.547222
C17   C     C_R   0.419518 0.920144 0.340248 0.547223
C18   C     C_R   0.289954 0.141237 0.344909 -0.096937
C19   C     C_R   0.710045 0.858766 0.655097 -0.096929
C20   C     C_R   0.290193 0.210702 0.358239 -0.103573
C21   C     C_R   0.709807 0.789302 0.641767 -0.103571
C22   C     C_R   0.358017 0.268203 0.410294 -0.089436
C23   C     C_1   0.876185 0.374154 0.250821 0.049840
C24   C     C_R   0.641983 0.731799 0.589710 -0.089436
C25   C     C_R   0.427146 0.257208 0.450272 -0.008015
C26   C     C_R   0.572854 0.742793 0.549729 -0.008016
C27   C     C_R   0.426556 0.188767 0.442799 0.021108
C28   C     C_R   0.573444 0.811234 0.557202 0.021105
C29   C     C_R   0.495323 0.180958 0.490879 -0.034673
C30   C     C_R   0.504676 0.819042 0.509120 -0.034672
C31   C     C_R   0.563259 0.237273 0.538683 -0.099315
C32   C     C_R   0.436741 0.762725 0.461315 -0.099313
C33   C     C_R   0.564470 0.302461 0.541801 0.213157
C34   C     C_1   0.123815 0.625846 0.749179 0.049840
C35   C     C_R   0.435530 0.697538 0.458197 0.213159
C36   C     C_R   0.496692 0.313176 0.498298 0.013233
C37   C     C_R   0.503308 0.686824 0.501701 0.013232
C38   C     C_R   0.749461 0.447051 0.436563 -0.127486
C39   C     C_R   0.250540 0.552946 0.563439 -0.127488
C40   C     C_R   0.768813 0.628581 0.648812 -0.099976
C41   C     C_R   0.231186 0.371421 0.351185 -0.099976
C42   C     C_R   0.818095 0.502754 0.505255 0.017167
C43   C     C_R   0.181905 0.497246 0.494745 0.017169
C44   C     C_R   0.881497 0.499743 0.499663 0.531920
C45   C     C_3   0.709162 0.205679 0.916705 -0.030879
C46   C     C_R   0.118503 0.500257 0.500337 0.531920
C47   C     C_R   0.920388 0.419813 0.340275 0.537927
C48   C     C_R   0.079611 0.580187 0.659725 0.537928
C49   C     C_R   0.620179 0.503863 0.501547 0.545824
C50   C     C_R   0.379821 0.496137 0.498453 0.545822
C51   C     C_R   0.499235 0.380790 0.499621 0.576731
C52   C     C_R   0.500764 0.619210 0.500378 0.576730
C53   C     C_R   0.760191 0.566097 0.577246 0.035325
C54   C     C_R   0.239808 0.433905 0.422752 0.035324
C55   C     C_R   0.895519 0.616914 0.647806 -0.088498
C56   C     C_3   0.290839 0.794320 0.083295 -0.030878
C57   C     C_R   0.104479 0.383091 0.352190 -0.088502
C58   C     C_R   0.902049 0.676324 0.717432 -0.107642
C59   C     C_R   0.097948 0.323683 0.282562 -0.107621
C60   C     C_R   0.838810 0.682389 0.717682 -0.120622
C61   C     C_R   0.161188 0.317616 0.282314 -0.120608
C62   C     C_R   0.686137 0.449729 0.436729 -0.118811
C63   C     C_R   0.313864 0.550268 0.563272 -0.118814
C64   C     C_R   0.689895 0.508082 0.505819 0.009075
C65   C     C_R   0.310105 0.491918 0.494181 0.009074
C66   C     C_R   0.824975 0.562009 0.576675 0.033422
C67   C     C_3   0.711677 0.296309 0.045855 -0.043158
C68   C     C_R   0.175024 0.437993 0.423323 0.033418
C69   C     C_3   0.670393 0.259925 0.950582 0.098643
C70   C     C_3   0.329594 0.740053 0.049417 0.098643
C71   C     C_3   0.786194 0.255912 0.953105 -0.296155
C72   C     C_3   0.213795 0.744108 0.046895 -0.296154
C73   C     C_3   0.830919 0.310565 0.050046 -0.078587
C74   C     C_3   0.169069 0.689453 0.949954 -0.078584
C75   C     C_2   0.760766 0.175034 0.088578 0.593822
C76   C     C_2   0.239277 0.824953 0.911423 0.593826
C77   C     C_2   0.711720 0.375986 0.090677 0.580147
C78   C     C_3   0.288314 0.703666 0.954144 -0.043160
C79   C     C_2   0.288250 0.623981 0.909321 0.580147
C80   C     C_2   0.913834 0.319103 0.093033 0.558859
C81   C     C_2   0.086158 0.680936 0.906968 0.558854
C82   C     C_2   0.656220 0.095133 0.911074 0.646510
C83   C     C_2   0.343821 0.904848 0.088926 0.646511
C84   C     C_3   0.792060 0.287874 0.083014 -0.066768
Cl1   Cl    Cl    0.571141 0.218909 0.895050 -0.487618
Cl2   Cl    Cl    0.428851 0.781042 0.104949 -0.487619
Cl3   Cl    Cl    0.652688 0.368859 0.599614 -0.540798
Cl4   Cl    Cl    0.347312 0.631139 0.400382 -0.540798
Cu1   Cu    Cu3+1 0.438180 0.999990 0.500010 1.017395
Cu2   Cu    Cu3+1 0.561820 0.000010 0.499990 1.017397
Cu3   Cu    Cu3+1 0.000200 0.561800 0.499990 1.022923
Cu4   Cu    Cu3+1 0.999800 0.438200 0.500010 1.022926
Cu5   Cu    Cu3+1 0.541330 0.541310 0.582630 1.034515
Cu6   Cu    Cu3+1 0.458670 0.458690 0.417370 1.034520
H1    H     H_    0.843878 0.729322 0.771561 0.136001
H2    H     H_    0.384049 0.769126 0.425310 0.174534
H3    H     H_    0.354231 0.074625 0.372767 0.142962
H4    H     H_    0.645767 0.925377 0.627236 0.142965
H5    H     H_    0.237346 0.096034 0.302727 0.129082
H6    H     H_    0.762652 0.903970 0.697280 0.129085
H7    H     H_    0.237701 0.219789 0.327477 0.121804
H8    H     H_    0.762299 0.780216 0.672530 0.121804
H9    H     H_    0.356012 0.321560 0.420062 0.109059
H10   H     H_    0.643989 0.678442 0.579941 0.109060
H11   H     H_    0.723089 0.638954 0.654085 0.140552
H12   H     H_    0.156119 0.270684 0.228434 0.136001
H13   H     H_    0.276910 0.361046 0.345914 0.140551
H14   H     H_    0.633801 0.404990 0.382404 0.160866
H15   H     H_    0.366200 0.595006 0.617599 0.160865
H16   H     H_    0.744737 0.401622 0.381951 0.144860
H17   H     H_    0.255265 0.598374 0.618053 0.144856
H18   H     H_    0.946378 0.614366 0.650579 0.131265
H19   H     H_    0.053621 0.385641 0.349417 0.131257
H20   H     H_    0.956322 0.718087 0.771137 0.165629
H21   H     H_    0.043674 0.281923 0.228855 0.165617
H22   H     H_    0.674845 0.304211 0.940071 0.177663
H23   H     H_    0.758236 0.121721 0.926582 0.124859
H24   H     H_    0.325124 0.695770 0.059927 0.177662
H25   H     H_    0.818084 0.220081 0.934428 0.172755
H26   H     H_    0.181915 0.779955 0.065573 0.172752
H27   H     H_    0.777845 0.288882 0.925949 0.136941
H28   H     H_    0.222127 0.711140 0.074052 0.136941
H29   H     H_    0.828475 0.366647 0.064298 0.196011
H30   H     H_    0.171495 0.633368 0.935703 0.196012
H31   H     H_    0.727231 0.192330 0.163091 0.362155
H32   H     H_    0.272818 0.807631 0.836908 0.362153
H33   H     H_    0.738909 0.479995 0.119397 0.365354
H34   H     H_    0.241799 0.878295 0.073420 0.124859
H35   H     H_    0.261028 0.519976 0.880600 0.365353
H36   H     H_    0.020377 0.389819 0.175175 0.354029
H37   H     H_    0.979605 0.610243 0.824832 0.354022
H38   H     H_    0.591538 0.986663 0.827711 0.358142
H39   H     H_    0.408528 0.013310 0.172288 0.358145
H40   H     H_    0.678712 0.264600 0.052891 0.231540
H41   H     H_    0.321292 0.735363 0.947109 0.231540
H42   H     H_    0.836340 0.195711 0.064600 0.153085
H43   H     H_    0.163692 0.804308 0.935402 0.153092
H44   H     H_    0.615951 0.230872 0.574686 0.174534
O1    O     O_R   0.447780 0.090160 0.499990 -0.512204
O2    O     O_R   0.447800 0.909820 0.500020 -0.502807
O3    O     O_R   0.508070 0.060270 0.620570 -0.472095
O4    O     O_R   0.491930 0.939730 0.379430 -0.472094
O5    O     O_R   0.612490 0.060290 0.620560 -0.523366
O6    O     O_R   0.387510 0.939710 0.379440 -0.523368
O7    O     O_R   0.910000 0.552200 0.500000 -0.509125
O8    O     O_R   0.090000 0.447800 0.500000 -0.509122
O9    O     O_R   0.909970 0.447830 0.500020 -0.496425
O10   O     O_R   0.090030 0.552170 0.499980 -0.496426
O11   O     O_R   0.939920 0.491910 0.379430 -0.487934
O12   O     O_R   0.552220 0.909840 0.500010 -0.512201
O13   O     O_R   0.060080 0.508090 0.620570 -0.487934
O14   O     O_R   0.939890 0.387530 0.379440 -0.509902
O15   O     O_R   0.060110 0.612470 0.620560 -0.509905
O16   O     O_R   0.625100 0.534890 0.569750 -0.509394
O17   O     O_R   0.374900 0.465110 0.430250 -0.509393
O18   O     O_2   0.764991 0.114302 0.075991 -0.469817
O19   O     O_R   0.738500 0.217758 0.140389 -0.681127
O20   O     O_2   0.235071 0.885689 0.924009 -0.469808
O21   O     O_R   0.261536 0.782211 0.859610 -0.681130
O22   O     O_2   0.683914 0.393442 0.130004 -0.453958
O23   O     O_R   0.555310 0.465120 0.430190 -0.510430
O24   O     O_R   0.742584 0.429243 0.086833 -0.705704
O25   O     O_2   0.316057 0.606508 0.869995 -0.453953
O26   O     O_R   0.257366 0.570735 0.913164 -0.705704
O27   O     O_2   0.934523 0.264408 0.077910 -0.542754
O28   O     O_R   0.966915 0.390659 0.150052 -0.669448
O29   O     O_2   0.065485 0.735641 0.922089 -0.542761
O30   O     O_R   0.033062 0.609389 0.849953 -0.669450
O31   O     O_2   0.615324 0.111241 0.934885 -0.412804
O32   O     O_R   0.639292 0.021250 0.848656 -0.687424
O33   O     O_2   0.384715 0.888719 0.065115 -0.412806
O34   O     O_R   0.444690 0.534880 0.569810 -0.510431
O35   O     O_R   0.360765 0.978737 0.151344 -0.687412
O36   O     O_R   0.534910 0.444720 0.569790 -0.457359
O37   O     O_R   0.465090 0.555280 0.430210 -0.457356
O38   O     O_R   0.465120 0.374940 0.430230 -0.524912
O39   O     O_R   0.534880 0.625060 0.569770 -0.524913
O40   O     O_R   0.552200 0.090180 0.499980 -0.502809

loop_
_geom_bond_atom_site_label_1
_geom_bond_atom_site_label_2
_ccdc_geom_bond_type
C74   H30   S    
C48   O15   A    
C63   C65   A    
C76   O21   S    
C9    C45   S    
Cu5   Cu6   S    
C40   C60   A    
C55   H18   S    
C70   C78   S    
C14   C18   A    
C67   C77   S    
C41   C61   A    
C79   O26   S    
Cu2   O12   S    
C44   O9    A    
C82   O32   S    
C15   C28   A    
Cu5   O34   S    
C54   C65   A    
H32   O21   S    
C15   C19   A    
C76   O20   D    
H38   O32   S    
C17   O6    A    
C58   H20   S    
Cu5   O16   S    
C35   C37   A    
C24   C26   A    
Cu3   O15   S    
C53   C64   A    
H31   O19   S    
C57   C59   A    
C62   H14   S    
C58   C60   A    
Cu5   O36   S    
C33   C36   A    
C27   C29   A    
C3    H42   S    
C35   Cl4   S    
C52   O39   A    
C62   C64   A    
C4    H43   S    
C75   O18   D    
C73   C80   S    
C46   O10   A    
C47   O11   A    
Cu6   O17   S    
C56   C72   S    
C22   C25   A    
C83   O33   D    
Cu4   O14   S    
C12   O2    A    
C14   C27   A    
C38   H16   S    
C3    C75   S    
C78   H41   S    
C73   C84   S    
C49   O23   A    
Cu2   O5    S    
C2    C74   S    
Cu6   O37   S    
C72   H28   S    
C75   O19   S    
C39   H17   S    
C7    C84   S    
C82   O31   D    
C67   C84   S    
C49   C64   S    
Cu4   O9    S    
C42   C44   S    
C80   O28   S    
Cu3   O10   S    
C50   C65   S    
C59   C61   A    
C23   C47   S    
C45   C69   S    
C32   C35   A    
C12   O12   A    
C49   O16   A    
C67   H40   S    
C4    C6    S    
C6    C56   S    
Cu3   Cu4   S    
Cu3   O11   S    
C37   C52   S    
Cu5   O39   S    
C78   C79   S    
C43   C68   A    
C57   H19   S    
C20   H7    S    
C77   O22   D    
C73   H29   S    
Cu4   O8    S    
C22   H9    S    
H35   O26   S    
C5    H23   S    
C17   O4    A    
C24   H10   S    
C63   H15   S    
C51   O36   A    
C2    C4    S    
C19   C21   A    
C2    C78   S    
C11   C16   S    
H36   O28   S    
C52   O37   A    
C50   O17   A    
Cu1   O2    S    
C72   H26   S    
Cu4   O13   S    
C31   C33   A    
C44   O7    A    
C81   O29   D    
C8    C34   T    
C31   H44   S    
C61   H12   S    
C9    C11   T    
Cu6   O23   S    
Cu2   O4    S    
C36   C51   S    
C21   H8    S    
C72   C74   S    
C10   C56   S    
C32   H2    S    
C20   C22   A    
H37   O30   S    
H33   O24   S    
C56   C70   S    
C83   O35   S    
C15   H4    S    
C48   O13   A    
C34   C48   S    
C18   H5    S    
C21   C24   A    
C57   C68   A    
C70   Cl2   S    
C80   O27   D    
Cu3   O7    S    
C55   C66   A    
C69   Cl1   S    
C45   C71   S    
C14   H3    S    
Cu1   O1    S    
C77   O24   S    
C6    C83   S    
C41   H13   S    
C12   C30   S    
C71   H27   S    
C2    C8    S    
C69   H22   S    
C79   O25   D    
C3    C5    S    
C10   C13   T    
C1    O1    A    
C39   C43   A    
C19   H6    S    
C26   C37   A    
C38   C42   A    
C13   C17   S    
C25   C27   A    
Cu1   O6    S    
C39   C63   A    
C26   C28   A    
C71   H25   S    
C28   C30   A    
C16   O3    A    
C33   Cl3   S    
C1    O40   A    
C29   C31   A    
C53   C66   A    
C30   C32   A    
C5    C82   S    
C1    C29   S    
C46   O8    A    
C7    C23   T    
C5    C45   S    
C70   H24   S    
Cu1   O3    S    
C16   O5    A    
C81   O30   S    
C18   C20   A    
C51   O38   A    
C43   C46   S    
C41   C54   A    
C4    C76   S    
C25   C36   A    
C6    H34   S    
C60   H1    S    
C54   C68   A    
C47   O14   A    
C59   H21   S    
C40   C53   A    
C55   C58   A    
C71   C73   S    
C3    C84   S    
C42   C66   A    
C50   O34   A    
C74   C81   S    
C67   C69   S    
Cu1   Cu2   S    
H39   O35   S    
Cu2   O40   S    
Cu6   O38   S    
C40   H11   S    
C38   C62   A    
