data_mof_unit_10205.cif
_audit_creation_date              2012-12-11T17:12:40-0500
_audit_creation_method            fapswitch 2.2
_symmetry_space_group_name_H-M    P1
_symmetry_Int_Tables_number       1
_space_group_crystal_system       triclinic
_cell_length_a                    17.204717
_cell_length_b                    6.884472
_cell_length_c                    14.365887
_cell_angle_alpha                 90.017811
_cell_angle_beta                  110.089353
_cell_angle_gamma                 89.947332
_cell_volume                      1598.04550072

loop_
_atom_site_label
_atom_site_type_symbol
_atom_type_description
_atom_site_fract_x
_atom_site_fract_y
_atom_site_fract_z
_atom_type_partial_charge
O1    O     O_R   0.314130 0.635770 0.168990 -0.532193
O2    O     O_R   0.685870 0.364230 0.831010 -0.527834
O3    O     O_R   0.185870 0.135770 0.331010 -0.529777
O4    O     O_R   0.814130 0.864230 0.668990 -0.533733
O5    O     O_R   0.146800 0.302460 0.139760 -0.533424
O6    O     O_R   0.853200 0.697540 0.860240 -0.527573
O7    O     O_R   0.353200 0.802460 0.360240 -0.537023
O8    O     O_R   0.646800 0.197540 0.639760 -0.539105
C1    C     C_R   0.113968 0.475931 0.112889 0.749924
C2    C     C_R   0.885692 0.524110 0.887701 0.734653
C3    C     C_R   0.385976 0.975808 0.387239 0.728581
C4    C     C_R   0.614028 0.024194 0.612756 0.727937
O9    O     O_R   0.311100 0.305780 0.157130 -0.540973
O10   O     O_R   0.688900 0.694220 0.842870 -0.534279
O11   O     O_R   0.188900 0.805780 0.342870 -0.533147
O12   O     O_R   0.811100 0.194220 0.657130 -0.556588
O13   O     O_R   0.351340 0.139640 0.348510 -0.544149
O14   O     O_R   0.648660 0.860360 0.651490 -0.541095
O15   O     O_R   0.148660 0.639640 0.151490 -0.542533
O16   O     O_R   0.851340 0.360360 0.848510 -0.537400
C5    C     C_R   0.333297 0.474150 0.136471 0.791542
C6    C     C_R   0.666876 0.525845 0.863709 0.781651
C7    C     C_R   0.166682 0.974120 0.363478 0.770521
C8    C     C_R   0.832428 0.025521 0.635140 0.749506
C9    C     C_1   0.533595 0.008935 0.533033 -0.195425
C10   C     C_1   0.466411 0.991078 0.466963 -0.192206
C11   C     C_1   0.966068 0.509096 0.967566 -0.187473
C12   C     C_1   0.033389 0.491493 0.033433 -0.182086
O17   O     O_3   0.263010 0.470920 0.312770 -0.369719
O18   O     O_3   0.736990 0.529080 0.687230 -0.384344
O19   O     O_3   0.236990 0.970920 0.187230 -0.369801
O20   O     O_3   0.763010 0.029080 0.812770 -0.359577
V1    V     V_3+5 0.247590 0.194450 0.238360 1.479286
V2    V     V_3+5 0.752410 0.805550 0.761640 1.465048
V3    V     V_3+5 0.252410 0.694450 0.261640 1.481353
V4    V     V_3+5 0.747590 0.305550 0.738360 1.424574
C13   C     C_R   0.115706 0.977073 0.427693 -0.153776
C14   C     C_R   0.881456 0.020882 0.568127 -0.206658
C15   C     C_R   0.384094 0.478245 0.072024 -0.134379
C16   C     C_R   0.616490 0.521746 0.928636 -0.157688
C17   C     C_R   0.907821 0.144080 0.422649 -0.135152
C18   C     C_R   0.089772 0.856528 0.573408 -0.181862
C19   C     C_R   0.597785 0.611383 0.083464 -0.180311
C20   C     C_R   0.402907 0.388979 0.917282 -0.205197
C21   C     C_R   0.857234 0.134581 0.480511 0.113721
C22   C     C_R   0.142872 0.876136 0.518638 0.139421
C23   C     C_R   0.648111 0.602069 0.024606 0.140551
C24   C     C_R   0.352887 0.398081 0.976224 0.120080
C25   C     C_R   0.956117 0.914153 0.594598 0.342459
C26   C     C_R   0.035896 0.060315 0.393102 0.333334
C27   C     C_R   0.533985 0.455148 0.891247 0.333456
C28   C     C_R   0.466606 0.544986 0.109514 0.320560
C29   C     C_R   0.010293 0.939369 0.540278 -0.031766
C30   C     C_R   0.984683 0.049415 0.451806 -0.060284
C31   C     C_R   0.484323 0.460335 0.952007 -0.019073
C32   C     C_R   0.516368 0.539858 0.048751 -0.027201
H1    H     H_    0.887274 0.230532 0.355547 0.177979
H2    H     H_    0.111282 0.777366 0.642676 0.162057
H3    H     H_    0.622763 0.674490 0.156828 0.162981
H4    H     H_    0.377346 0.325758 0.843976 0.164460
O21   O     O_3   0.007445 0.147515 0.300565 -0.558393
C33   C     C_3   0.963198 0.007290 0.230317 0.066334
H5    H     H_    0.907455 0.956891 0.246027 0.124071
H6    H     H_    0.002823 0.879305 0.229910 0.112047
C34   C     C_3   0.934545 0.096593 0.127265 -0.666652
H7    H     H_    0.989007 0.135852 0.106656 0.221602
H8    H     H_    0.896359 0.990174 0.072429 0.190052
H9    H     H_    0.896913 0.228680 0.125428 0.209559
O22   O     O_3   0.978780 0.795112 0.677392 -0.556964
C35   C     C_3   0.960259 0.599732 0.646493 0.092934
H10   H     H_    0.968742 0.565802 0.574544 0.113695
H11   H     H_    0.895111 0.566968 0.638660 0.147604
C36   C     C_3   0.016913 0.464547 0.724209 -0.684641
H12   H     H_    0.012272 0.495450 0.797801 0.219864
H13   H     H_    0.998967 0.311191 0.704122 0.184736
H14   H     H_    0.082086 0.485102 0.728618 0.202592
O23   O     O_3   0.497877 0.617985 0.205123 -0.559633
C37   C     C_3   0.534103 0.463759 0.270750 0.068382
H15   H     H_    0.588347 0.402869 0.255120 0.134419
H16   H     H_    0.488738 0.345076 0.265229 0.111225
C38   C     C_3   0.563769 0.539187 0.376763 -0.670962
H17   H     H_    0.510479 0.595269 0.395624 0.221732
H18   H     H_    0.593583 0.419691 0.428747 0.176406
H19   H     H_    0.609434 0.657813 0.385368 0.212613
O24   O     O_3   0.502606 0.382201 0.795631 -0.557803
C39   C     C_3   0.466240 0.536405 0.730055 0.065461
H20   H     H_    0.511387 0.655714 0.735833 0.115268
H21   H     H_    0.411768 0.596420 0.745492 0.120594
C40   C     C_3   0.437015 0.461287 0.623999 -0.665651
H22   H     H_    0.391621 0.341960 0.615149 0.212659
H23   H     H_    0.407020 0.580693 0.572052 0.185470
H24   H     H_    0.490552 0.406225 0.605329 0.221434
N1    N     N_3   0.224189 0.790841 0.554033 -0.655240
H25   H     H_    0.267139 0.904362 0.571475 0.207044
H26   H     H_    0.233541 0.713908 0.619752 0.220417
N2    N     N_3   0.780145 0.237918 0.446563 -0.676039
H27   H     H_    0.732424 0.142916 0.445380 0.216500
H28   H     H_    0.782386 0.351713 0.495504 0.238437
N3    N     N_3   0.269719 0.326278 0.938358 -0.667943
H29   H     H_    0.271929 0.179920 0.919944 0.238159
H30   H     H_    0.238169 0.401993 0.873191 0.223538
N4    N     N_3   0.731539 0.674707 0.061626 -0.658768
H31   H     H_    0.771365 0.555783 0.071042 0.207624
H32   H     H_    0.744391 0.737353 0.131633 0.225388

loop_
_geom_bond_atom_site_label_1
_geom_bond_atom_site_label_2
_ccdc_geom_bond_type
C2    C11   S    
C16   C23   A    
C31   C32   A    
O1    C5    A    
N1    H25   S    
C36   H12   S    
O3    C7    A    
C37   C38   S    
C18   H2    S    
C38   H17   S    
C14   C25   A    
O24   C39   S    
O7    C3    A    
C26   C30   A    
O20   V4    S    
C18   C29   A    
O8    V4    S    
O4    C8    A    
C37   H16   S    
O3    V1    S    
O17   V1    S    
C18   C22   A    
C14   C21   A    
C33   H6    S    
C1    O15   A    
C2    O16   A    
C34   H8    S    
N2    H28   S    
O2    C6    A    
C8    C14   S    
O19   V1    S    
C35   H10   S    
C40   H23   S    
C27   C31   A    
O21   C33   S    
C19   H3    S    
O11   C7    A    
C15   C28   A    
O12   C8    A    
C23   N4    S    
C25   O22   S    
C36   H13   S    
C27   O24   S    
N4    H31   S    
O13   V1    S    
O11   V3    S    
C38   H18   S    
O4    V2    S    
O18   V2    S    
C39   H20   S    
C3    C10   S    
C9    C10   T    
O23   C37   S    
O6    V2    S    
O5    V1    S    
O20   V2    S    
O5    C1    A    
C33   H5    S    
C7    C13   S    
N3    H29   S    
C5    C15   S    
O8    C4    A    
C34   H9    S    
C6    C16   S    
N2    H27   S    
C35   C36   S    
O9    C5    A    
C40   H24   S    
N4    H32   S    
O14   V2    S    
N3    H30   S    
C34   H7    S    
C36   H14   S    
O19   V3    S    
C28   O23   S    
C38   H19   S    
O1    V3    S    
O2    V4    S    
C24   N3    S    
C3    O13   A    
C33   C34   S    
C37   H15   S    
O7    V3    S    
C39   C40   S    
O10   V2    S    
C29   C30   A    
C16   C27   A    
O17   V3    S    
O18   V4    S    
C4    C9    S    
O10   C6    A    
C13   C22   A    
C17   H1    S    
O15   V3    S    
O12   V4    S    
C13   C26   A    
C20   C31   A    
C22   N1    S    
C20   H4    S    
C25   C29   A    
C39   H21   S    
O22   C35   S    
C17   C30   A    
O6    C2    A    
O16   V4    S    
C28   C32   A    
C19   C32   A    
N1    H26   S    
O9    V1    S    
C4    O14   A    
C11   C12   T    
C26   O21   S    
C17   C21   A    
C35   H11   S    
C40   H22   S    
C21   N2    S    
C19   C23   A    
C20   C24   A    
C1    C12   S    
C15   C24   A    
