data_mof_unit_51929.cif
_audit_creation_date              2012-12-11T16:08:26-0500
_audit_creation_method            fapswitch 2.2
_symmetry_space_group_name_H-M    P1
_symmetry_Int_Tables_number       1
_space_group_crystal_system       triclinic
_cell_length_a                    7.278618
_cell_length_b                    21.381765
_cell_length_c                    23.486633
_cell_angle_alpha                 89.998837
_cell_angle_beta                  89.985205
_cell_angle_gamma                 90.003775
_cell_volume                      3655.21750787

loop_
_atom_site_label
_atom_site_type_symbol
_atom_type_description
_atom_site_fract_x
_atom_site_fract_y
_atom_site_fract_z
_atom_type_partial_charge
O1    O     O_R   0.365470 0.806380 0.442440 -0.529328
O2    O     O_R   0.134530 0.193620 0.942440 -0.527975
O3    O     O_R   0.865470 0.693620 0.557560 -0.527931
O4    O     O_R   0.634530 0.306380 0.057560 -0.529400
O5    O     O_R   0.035730 0.813790 0.557160 -0.537052
O6    O     O_R   0.464270 0.186210 0.057160 -0.536616
O7    O     O_R   0.535730 0.686210 0.442840 -0.536418
O8    O     O_R   0.964270 0.313790 0.942840 -0.535740
C1    C     C_R   0.204013 0.828600 0.575749 0.712325
C2    C     C_R   0.295961 0.171402 0.075745 0.716488
C3    C     C_R   0.704033 0.671401 0.424255 0.717337
C4    C     C_R   0.795994 0.328600 0.924247 0.711241
O9    O     O_R   0.035760 0.813790 0.442850 -0.529452
O10   O     O_R   0.464240 0.186210 0.942850 -0.529837
O11   O     O_R   0.535760 0.686210 0.557150 -0.529805
O12   O     O_R   0.964240 0.313790 0.057150 -0.529411
O13   O     O_R   0.865450 0.693620 0.442430 -0.531993
O14   O     O_R   0.634550 0.306380 0.942430 -0.532319
O15   O     O_R   0.365450 0.806380 0.557570 -0.532394
O16   O     O_R   0.134550 0.193620 0.057570 -0.532289
C5    C     C_R   0.204139 0.828594 0.424264 0.702655
C6    C     C_R   0.295897 0.171399 0.924264 0.703569
C7    C     C_R   0.704089 0.671396 0.575736 0.703692
C8    C     C_R   0.795867 0.328595 0.075737 0.702463
O17   O     O_3   0.198970 0.710570 0.500000 -0.373412
O18   O     O_3   0.301030 0.289430 0.000000 -0.374813
O19   O     O_3   0.698970 0.789430 0.500000 -0.375467
O20   O     O_3   0.801030 0.210570 0.000000 -0.373789
V1    V     V_3+5 0.924120 0.757310 0.500000 1.471758
V2    V     V_3+5 0.575880 0.242690 0.000000 1.473754
V3    V     V_3+5 0.424120 0.742690 0.500000 1.471898
V4    V     V_3+5 0.075880 0.257310 0.000000 1.476076
C9    C     C_3   0.939855 0.543906 0.732792 -0.180389
C10   C     C_3   0.570845 0.447409 0.239937 -0.200340
C11   C     C_3   0.429150 0.947415 0.260060 -0.200075
C12   C     C_3   0.059318 0.044501 0.767086 -0.162967
C13   C     C_3   0.604052 0.555589 0.755224 -0.314819
C14   C     C_3   0.913430 0.450797 0.250865 -0.268537
C15   C     C_3   0.086562 0.950795 0.249142 -0.268604
C16   C     C_3   0.395407 0.055482 0.744723 -0.318073
C17   C     C_3   0.623715 0.508761 0.805595 -0.395308
C18   C     C_3   0.892365 0.496820 0.301793 -0.399226
C19   C     C_3   0.107622 0.996818 0.198213 -0.399292
C20   C     C_3   0.375841 0.008546 0.694405 -0.394200
H1    H     H_    0.949493 0.592107 0.750821 0.161869
H2    H     H_    0.585893 0.399435 0.257520 0.189988
H3    H     H_    0.414085 0.899441 0.242479 0.189895
H4    H     H_    0.049927 0.093116 0.750641 0.189340
H5    H     H_    0.461145 0.553717 0.738957 0.223841
H6    H     H_    0.047204 0.459275 0.229926 0.236861
H7    H     H_    0.952799 0.959272 0.270086 0.236830
H8    H     H_    0.538189 0.053549 0.761084 0.212125
H9    H     H_    0.626852 0.604036 0.771027 0.171506
H10   H     H_    0.916270 0.401917 0.267112 0.173205
H11   H     H_    0.083705 0.901915 0.232897 0.172981
H12   H     H_    0.372989 0.103898 0.728794 0.181662
H13   H     H_    0.653203 0.534882 0.845377 0.151494
H14   H     H_    0.881467 0.470009 0.342172 0.170291
H15   H     H_    0.118505 0.970008 0.157834 0.170052
H16   H     H_    0.345830 0.034435 0.654456 0.170398
H17   H     H_    0.488793 0.485687 0.813239 0.228244
H18   H     H_    0.019564 0.524958 0.306252 0.216003
H19   H     H_    0.980426 0.024954 0.193756 0.215983
H20   H     H_    0.510538 0.985271 0.686918 0.207179
C21   C     C_1   0.788213 0.374336 0.878635 -0.159596
C22   C     C_1   0.711773 0.625565 0.378740 -0.161017
C23   C     C_1   0.288212 0.125566 0.121260 -0.160882
C24   C     C_1   0.211747 0.874359 0.621336 -0.165203
C25   C     C_3   0.742175 0.540343 0.706439 0.010887
C26   C     C_3   0.755024 0.458929 0.206895 0.048876
C27   C     C_3   0.244983 0.958931 0.293106 0.048849
C28   C     C_3   0.256810 0.040482 0.793488 0.016428
C29   C     C_3   0.965858 0.494357 0.782903 0.377323
C30   C     C_3   0.544342 0.496987 0.290424 0.363446
C31   C     C_3   0.455648 0.996994 0.209573 0.363888
C32   C     C_3   0.033912 0.995425 0.716221 0.365327
C33   C     C_3   0.774174 0.458485 0.792440 0.058634
C34   C     C_3   0.723592 0.540810 0.292947 0.080996
C35   C     C_3   0.276405 0.040812 0.207053 0.080907
C36   C     C_3   0.224529 0.958667 0.707468 0.086305
C37   C     C_3   0.701652 0.426179 0.737097 -0.303433
C38   C     C_3   0.765248 0.574591 0.235198 -0.313843
C39   C     C_3   0.234771 0.074592 0.264803 -0.313553
C40   C     C_3   0.294918 0.926227 0.762969 -0.307357
C41   C     C_3   0.705503 0.471918 0.685365 -0.127743
C42   C     C_3   0.757303 0.527831 0.184361 -0.106560
C43   C     C_3   0.242721 0.027831 0.315640 -0.107231
C44   C     C_3   0.292058 0.972001 0.814614 -0.128919
C45   C     C_1   0.782233 0.412236 0.840090 -0.055963
C46   C     C_1   0.717108 0.587476 0.340344 -0.077322
C47   C     C_1   0.282881 0.087478 0.159657 -0.077371
C48   C     C_1   0.217356 0.912306 0.659848 -0.073289
C49   C     C_1   0.723473 0.587256 0.659357 -0.032033
C50   C     C_1   0.775414 0.412422 0.159572 -0.027412
C51   C     C_1   0.224599 0.912423 0.340430 -0.027634
C52   C     C_1   0.276117 0.087321 0.840610 -0.034530
C53   C     C_1   0.712944 0.625453 0.621150 -0.118942
C54   C     C_1   0.786750 0.374421 0.121233 -0.124234
C55   C     C_1   0.213265 0.874421 0.378769 -0.124736
C56   C     C_1   0.286942 0.125480 0.878837 -0.115966
H21   H     H_    0.818856 0.457834 0.656510 0.116178
H22   H     H_    0.627555 0.536495 0.160974 0.057930
H23   H     H_    0.372477 0.036498 0.339024 0.058296
H24   H     H_    0.178459 0.958106 0.843458 0.116182
H25   H     H_    0.770999 0.381742 0.726465 0.144246
H26   H     H_    0.678163 0.615855 0.226727 0.124318
H27   H     H_    0.321867 0.115858 0.273270 0.124677
H28   H     H_    0.223676 0.882107 0.773529 0.143265
H29   H     H_    0.558330 0.410505 0.745233 0.173672
H30   H     H_    0.903838 0.596009 0.238180 0.180555
H31   H     H_    0.096184 0.096007 0.261823 0.180679
H32   H     H_    0.437701 0.909941 0.755037 0.172239
C57   C     C_2   0.012050 0.530468 0.837091 0.405689
H33   H     H_    0.943439 0.520330 0.877052 0.025841
O21   O     O_2   0.137670 0.568401 0.837552 -0.519078
C58   C     C_2   0.530254 0.463641 0.348022 0.405396
H34   H     H_    0.515351 0.491721 0.386255 0.063301
O22   O     O_2   0.530944 0.406792 0.353130 -0.530239
C59   C     C_2   0.469716 0.963650 0.151975 0.404347
H35   H     H_    0.484607 0.991731 0.113741 0.063289
O23   O     O_2   0.469023 0.906801 0.146868 -0.530987
C60   C     C_2   0.992938 0.029265 0.660121 0.381221
H36   H     H_    0.972958 0.001496 0.621922 0.063325
O24   O     O_2   0.978250 0.086010 0.656233 -0.536219
C61   C     C_2   0.088769 0.541215 0.687733 0.419206
H37   H     H_    0.110453 0.499553 0.662523 0.054449
O25   O     O_2   0.183122 0.587213 0.677972 -0.542943
C62   C     C_2   0.407158 0.442842 0.200290 0.413253
H38   H     H_    0.363692 0.482473 0.175145 0.107481
O26   O     O_2   0.324289 0.393483 0.195182 -0.531315
C63   C     C_2   0.592844 0.942850 0.299704 0.412859
H39   H     H_    0.636334 0.982483 0.324844 0.107454
O27   O     O_2   0.675689 0.893491 0.304817 -0.531429
C64   C     C_2   0.910268 0.041055 0.812124 0.388116
H40   H     H_    0.888442 0.999037 0.836807 0.063143
O28   O     O_2   0.815774 0.086863 0.822490 -0.543652
O29   O     O_3   0.128281 0.457163 0.775306 -0.562136
C65   C     C_3   0.110901 0.400118 0.746023 -0.231745
H41   H     H_    0.054497 0.406258 0.702757 0.136325
H42   H     H_    0.036063 0.365009 0.771801 0.152223
H43   H     H_    0.250301 0.380553 0.739943 0.172964
O30   O     O_3   0.368226 0.526830 0.287001 -0.577708
C66   C     C_3   0.357355 0.584745 0.258836 -0.231066
H44   H     H_    0.396638 0.580982 0.213543 0.159574
H45   H     H_    0.430705 0.622026 0.282304 0.148279
H46   H     H_    0.212095 0.599708 0.258829 0.171150
O31   O     O_3   0.631771 0.026841 0.212991 -0.577791
C67   C     C_3   0.642662 0.084756 0.241154 -0.230876
H47   H     H_    0.603390 0.080991 0.286448 0.159773
H48   H     H_    0.569313 0.122035 0.217687 0.148293
H49   H     H_    0.787926 0.099722 0.241157 0.171212
O32   O     O_3   0.869819 0.959063 0.723561 -0.580105
C68   C     C_3   0.884939 0.901401 0.752003 -0.252135
H50   H     H_    0.940078 0.906607 0.795536 0.141112
H51   H     H_    0.959781 0.866500 0.726022 0.155345
H52   H     H_    0.744973 0.882089 0.757346 0.173789
C69   C     C_2   0.531783 0.465640 0.650503 0.379703
H53   H     H_    0.443918 0.505609 0.642858 0.090110
O33   O     O_2   0.490122 0.415304 0.629631 -0.518684
C70   C     C_2   0.907285 0.540251 0.141143 0.378991
H54   H     H_    0.872797 0.542013 0.096215 0.055301
O34   O     O_2   0.067225 0.546684 0.155493 -0.553266
C71   C     C_2   0.092750 0.040246 0.358861 0.379903
H55   H     H_    0.127242 0.041995 0.403790 0.056674
O35   O     O_2   0.932812 0.046688 0.344514 -0.553119
C72   C     C_2   0.465694 0.965367 0.849469 0.378237
H56   H     H_    0.554752 0.005086 0.856878 0.092115
O36   O     O_2   0.506044 0.915012 0.870547 -0.520019

loop_
_geom_bond_atom_site_label_1
_geom_bond_atom_site_label_2
_ccdc_geom_bond_type
O17   V3    S    
C66   H46   S    
C15   H7    S    
C14   C26   S    
O1    C5    A    
C69   H53   S    
C13   C25   S    
O19   V1    S    
O13   V1    S    
C43   C71   S    
O31   C67   S    
C67   H49   S    
C17   H17   S    
C36   C40   S    
O15   V3    S    
C62   H38   S    
C18   H14   S    
C19   H19   S    
C22   C46   T    
C2    C23   S    
C20   H20   S    
O7    C3    A    
C71   O35   D    
C11   C31   S    
C40   H32   S    
C8    C54   S    
C38   H30   S    
O9    V1    S    
C26   C50   S    
C67   H48   S    
C14   C18   S    
C25   C49   S    
C17   C33   S    
O4    C8    A    
C51   C55   T    
C27   C51   S    
C50   C54   T    
C19   C35   S    
C66   H44   S    
O1    V3    S    
C29   C57   S    
C58   H34   S    
O2    V4    S    
O3    V1    S    
C41   H21   S    
C12   C32   S    
C44   H24   S    
O3    C7    A    
C1    O15   A    
C15   H11   S    
C71   H55   S    
C2    O16   A    
C16   H12   S    
O2    C6    A    
C10   H2    S    
C68   H51   S    
C10   C26   S    
C16   C20   S    
C35   C47   S    
C3    C22   S    
C19   H15   S    
C13   H9    S    
O11   C7    A    
C30   O30   S    
O29   C65   S    
C11   C27   S    
O12   C8    A    
C15   C27   S    
C72   O36   D    
C41   C69   S    
O10   V2    S    
C9    C61   S    
C28   C44   S    
O5    V1    S    
C59   O23   D    
C37   H25   S    
O7    V3    S    
O8    V4    S    
C32   C36   S    
C20   C36   S    
C6    C56   S    
C67   H47   S    
C58   O22   D    
O18   V4    S    
C15   C19   S    
C31   O31   S    
C38   C42   S    
C34   C46   S    
C12   C64   S    
C70   O34   D    
C36   C48   S    
C21   C45   T    
O5    C1    A    
C9    H1    S    
C33   C45   S    
C13   H5    S    
C34   C38   S    
C14   H10   S    
C33   C37   S    
O8    C4    A    
C30   C58   S    
C23   C47   T    
O9    C5    A    
C68   H52   S    
C65   H42   S    
C10   C30   S    
C43   H23   S    
C9    C29   S    
O6    V2    S    
C37   H29   S    
C18   C34   S    
C44   C72   S    
C72   H56   S    
C27   C43   S    
C31   C35   S    
C60   O24   D    
C63   H39   S    
C26   C42   S    
C49   C53   T    
C25   C41   S    
C57   H33   S    
O16   V4    S    
C66   H45   S    
C18   H18   S    
C3    O13   A    
C29   C33   S    
C16   C28   S    
C7    C53   S    
C40   C44   S    
C63   O27   D    
C65   H43   S    
C62   O26   D    
C39   C43   S    
O6    C2    A    
C64   O28   D    
C59   H35   S    
C10   C62   S    
O11   V3    S    
C64   H40   S    
C14   H6    S    
C9    C25   S    
O12   V4    S    
C4    C21   S    
C32   C60   S    
C70   H54   S    
O10   C6    A    
O20   V2    S    
C60   H36   S    
C11   C63   S    
C17   H13   S    
C31   C59   S    
C16   H8    S    
C35   C39   S    
C61   H37   S    
C29   O29   S    
C20   H16   S    
C5    C55   S    
C52   C56   T    
C24   C48   T    
C39   H27   S    
C12   H4    S    
C39   H31   S    
C38   H26   S    
C13   C17   S    
O4    V2    S    
C1    C24   S    
C65   H41   S    
O14   V2    S    
C28   C52   S    
C40   H28   S    
O32   C68   S    
C69   O33   D    
C30   C34   S    
C4    O14   A    
C61   O25   D    
C32   O32   S    
O30   C66   S    
C57   O21   D    
C11   H3    S    
C42   C70   S    
C37   C41   S    
C12   C28   S    
C68   H50   S    
C42   H22   S    
