data_mof_unit_28186.cif
_audit_creation_date              2012-12-10T19:04:46-0500
_audit_creation_method            fapswitch 2.2
_symmetry_space_group_name_H-M    P1
_symmetry_Int_Tables_number       1
_space_group_crystal_system       triclinic
_cell_length_a                    15.861881
_cell_length_b                    10.81857
_cell_length_c                    9.579051
_cell_angle_alpha                 89.91215
_cell_angle_beta                  89.42501
_cell_angle_gamma                 90.613595
_cell_volume                      1643.61340092

loop_
_atom_site_label
_atom_site_type_symbol
_atom_type_description
_atom_site_fract_x
_atom_site_fract_y
_atom_site_fract_z
_atom_type_partial_charge
C1    C     C_R   0.498017 0.262441 0.500051 0.787138
C2    C     C_3   0.082877 0.496042 0.503594 0.148784
C3    C     C_3   0.971706 0.609254 0.526874 -0.189019
C4    C     C_3   0.917218 0.493312 0.500561 0.164354
C5    C     C_3   0.029659 0.572487 0.402620 -0.162947
C6    C     C_3   0.974265 0.456840 0.378049 0.189471
C7    C     C_1   0.174560 0.497661 0.503560 -0.065758
C8    C     C_1   0.825442 0.492973 0.500005 -0.031753
C9    C     C_R   0.491800 0.063678 0.625508 0.119143
C10   C     C_R   0.488822 0.129304 0.500359 -0.093096
C11   C     C_R   0.472979 0.064381 0.376100 -0.204264
C12   C     C_R   0.339899 0.499775 0.500646 0.819014
C13   C     C_R   0.472698 0.935392 0.376350 -0.223323
C14   C     C_R   0.489070 0.870729 0.500484 -0.091607
C15   C     C_R   0.492006 0.936538 0.625652 0.130474
C16   C     C_3   0.553819 0.931723 0.742104 -0.482026
C17   C     C_3   0.553534 0.071985 0.741772 -0.440500
C18   C     C_R   0.573324 0.521452 0.071019 0.229977
C19   C     C_R   0.429758 0.468117 0.075383 -0.092537
C20   C     C_R   0.429635 0.468799 0.927084 -0.071906
C21   C     C_R   0.573002 0.517368 0.923986 0.148365
C22   C     C_3   0.631833 0.622359 0.904333 -0.498731
C23   C     C_R   0.498187 0.737634 0.499994 0.802293
C24   C     C_3   0.631250 0.635094 0.062921 0.489256
C25   C     C_R   0.660089 0.498081 0.499693 0.859772
C26   C     C_3   0.970791 0.417084 0.601485 -0.187935
C27   C     C_3   0.028764 0.379830 0.477340 -0.167754
C28   C     C_1   0.250148 0.498805 0.502366 -0.183984
C29   C     C_1   0.749846 0.494512 0.499698 -0.073904
C30   C     C_3   0.026626 0.533086 0.627877 -0.135877
Cu1   Cu    Cu3+1 0.500000 0.499980 0.640670 0.943669
Cu2   Cu    Cu3+1 0.500000 0.500020 0.359330 0.975903
H1    H     H_    0.053182 0.285826 0.456244 0.136060
H2    H     H_    0.615396 0.892337 0.709383 0.204532
H3    H     H_    0.525133 0.111961 0.837961 0.202033
H4    H     H_    0.614830 0.114060 0.708627 0.202526
H5    H     H_    0.372410 0.443135 0.130735 0.149455
H6    H     H_    0.372130 0.444898 0.873514 0.145002
H7    H     H_    0.692025 0.590701 0.856933 0.230399
H8    H     H_    0.602472 0.699417 0.846785 0.188813
H9    H     H_    0.945508 0.353522 0.683188 0.148725
H10   H     H_    0.054746 0.635795 0.320484 0.139876
H11   H     H_    0.947123 0.703271 0.547285 0.146466
H12   H     H_    0.049617 0.564600 0.731091 0.144021
H13   H     H_    0.464640 0.112563 0.278088 0.167189
H14   H     H_    0.463387 0.887183 0.278767 0.166134
H15   H     H_    0.525365 0.891369 0.838599 0.197628
N1    N     N_R   0.500530 0.500930 0.147930 -0.206477
N2    N     N_R   0.500530 0.500890 0.852020 -0.176744
O1    O     O_R   0.500000 0.319640 0.618810 -0.577479
O2    O     O_R   0.500010 0.319680 0.381230 -0.582588
O3    O     O_R   0.379070 0.499970 0.618770 -0.585554
O4    O     O_R   0.379080 0.500010 0.381190 -0.588267
O5    O     O_R   0.499990 0.680320 0.618770 -0.579081
O6    O     O_R   0.500000 0.680360 0.381190 -0.587982
O7    O     O_R   0.620920 0.499990 0.618810 -0.599528
O8    O     O_R   0.620930 0.500030 0.381230 -0.508851
S1    S     S_3+6 0.734942 0.612347 0.133136 -0.019193
O9    O     O_2   0.748499 0.477111 0.159827 -0.315832
O10   O     O_2   0.800638 0.658663 0.030905 -0.322899
O11   O     O_3   0.745409 0.691862 0.282810 -0.553472
H16   H     H_    0.807014 0.699502 0.297101 0.363322
C31   C     C_3   0.592088 0.757656 0.109182 -0.790795
H17   H     H_    0.524079 0.760570 0.082805 0.183451
H18   H     H_    0.599916 0.771665 0.222473 0.280891
H19   H     H_    0.624946 0.835963 0.055858 0.227089
C32   C     C_3   0.945522 0.413820 0.235207 -0.788644
H20   H     H_    0.000915 0.384114 0.172569 0.212498
H21   H     H_    0.900607 0.335054 0.246950 0.248910
H22   H     H_    0.914517 0.491145 0.180554 0.287672

loop_
_geom_bond_atom_site_label_1
_geom_bond_atom_site_label_2
_ccdc_geom_bond_type
C14   C23   S    
C15   C16   S    
C3    C30   S    
C4    C26   S    
C5    H10   S    
C31   H18   S    
Cu2   O2    S    
C23   O6    A    
C20   N2    A    
C17   H4    S    
Cu1   O7    S    
C18   C21   A    
C1    O2    A    
C1    O1    A    
Cu2   O6    S    
C19   C20   A    
C14   C15   A    
C25   O7    A    
C2    C30   S    
Cu1   O3    S    
C4    C8    S    
C32   H22   S    
C22   H8    S    
S1    O11   S    
C21   N2    A    
C9    C15   A    
C31   H19   S    
C13   C14   A    
C27   H1    S    
C5    C6    S    
Cu2   N1    S    
C30   H12   S    
C26   C27   S    
C2    C27   S    
C12   O4    A    
C25   O8    A    
Cu2   O8    S    
C12   C28   S    
C18   C24   S    
C22   H7    S    
C3    H11   S    
C16   H15   S    
C4    C6    S    
C6    C32   S    
C12   O3    A    
Cu1   N2    S    
C26   C30   S    
C24   C31   S    
Cu1   O5    S    
C25   C29   S    
O11   H16   S    
C22   C24   S    
C11   H13   S    
C2    C5    S    
C19   H5    S    
C10   C11   A    
C8    C29   T    
Cu1   O1    S    
S1    O10   D    
C32   H20   S    
C3    C5    S    
Cu2   O4    S    
C11   C13   A    
C20   H6    S    
C3    C4    S    
C23   O5    A    
C24   S1    S    
C9    C10   A    
C9    C17   S    
C13   H14   S    
C16   C17   S    
C17   H3    S    
C2    C7    S    
C16   H2    S    
S1    O9    D    
C21   C22   S    
C1    C10   S    
Cu1   Cu2   S    
C7    C28   T    
C6    C27   S    
C26   H9    S    
C19   N1    A    
C31   H17   S    
C32   H21   S    
C18   N1    A    
