data_mof_unit_33497.cif
_audit_creation_date              2012-12-10T17:08:43-0500
_audit_creation_method            fapswitch 2.2
_symmetry_space_group_name_H-M    P1
_symmetry_Int_Tables_number       1
_space_group_crystal_system       triclinic
_cell_length_a                    27.881186
_cell_length_b                    11.294989
_cell_length_c                    10.18924
_cell_angle_alpha                 110.969124
_cell_angle_beta                  99.883682
_cell_angle_gamma                 94.17208
_cell_volume                      2920.22712422

loop_
_atom_site_label
_atom_site_type_symbol
_atom_type_description
_atom_site_fract_x
_atom_site_fract_y
_atom_site_fract_z
_atom_type_partial_charge
C1    C     C_R   0.498548 0.255104 0.440189 0.717331
C2    C     C_R   0.504453 0.745368 0.559810 0.727445
C3    C     C_R   0.101309 0.475950 0.509076 -0.117868
C4    C     C_R   0.900012 0.472207 0.526979 -0.122843
C5    C     C_R   0.121020 0.359751 0.464449 -0.133515
C6    C     C_R   0.884130 0.576478 0.626397 -0.141707
C7    C     C_R   0.089280 0.242850 0.418807 0.430129
C8    C     C_R   0.918553 0.685820 0.714358 0.436426
C9    C     C_R   0.132147 0.592701 0.549518 -0.074471
C10   C     C_R   0.865227 0.369174 0.428540 -0.050469
C11   C     C_R   0.354160 0.496165 0.496493 -0.257701
C12   C     C_R   0.646155 0.492210 0.507419 -0.234858
C13   C     C_R   0.966953 0.359465 0.438684 -0.002292
C14   C     C_R   0.032854 0.592504 0.578716 -0.035078
C15   C     C_R   0.984127 0.586274 0.602672 -0.001582
C16   C     C_R   0.018535 0.358152 0.454400 0.024807
C17   C     C_R   0.950471 0.472464 0.523040 0.010623
C18   C     C_R   0.050779 0.475635 0.513770 0.013414
C19   C     C_R   0.931457 0.253927 0.340637 0.416249
C20   C     C_R   0.064299 0.709681 0.613889 0.401591
C21   C     C_R   0.881056 0.263362 0.333413 -0.261941
C22   C     C_R   0.113121 0.708053 0.599144 -0.217681
C23   C     C_R   0.407709 0.500837 0.498949 0.884849
C24   C     C_R   0.592389 0.497480 0.501571 0.914976
C25   C     C_R   0.039109 0.243662 0.416885 -0.243063
C26   C     C_R   0.967895 0.688820 0.703665 -0.265827
C27   C     C_2   0.500705 0.115103 0.405899 0.162709
C28   C     C_2   0.509514 0.886637 0.594712 0.142985
C29   C     C_2   0.510960 0.071278 0.514760 0.281242
C30   C     C_2   0.500837 0.931225 0.486112 0.335247
C31   C     C_2   0.505329 0.506260 0.078718 0.549862
C32   C     C_2   0.492423 0.493922 0.918273 0.511936
C33   C     C_R   0.172075 0.364827 0.469439 0.637089
C34   C     C_R   0.833929 0.568748 0.632517 0.614355
C35   C     C_R   0.181427 0.591700 0.537062 0.563467
C36   C     C_R   0.814918 0.377099 0.422552 0.540666
C37   C     C_R   0.287385 0.564007 0.617911 -0.320710
C38   C     C_R   0.715865 0.374584 0.499365 -0.302277
C39   C     C_R   0.337061 0.583493 0.611410 0.418265
C40   C     C_R   0.664211 0.373028 0.475903 0.354185
C41   C     C_R   0.319705 0.399283 0.384135 0.208478
C42   C     C_R   0.679463 0.607415 0.550025 0.241097
C43   C     C_R   0.268677 0.405617 0.375795 0.370513
C44   C     C_R   0.728879 0.597149 0.529332 0.376989
C45   C     C_R   0.252604 0.481920 0.497909 0.153618
C46   C     C_R   0.747836 0.482510 0.518595 0.146858
Cu1   Cu    Cu3+1 0.508480 0.521810 0.644910 0.987864
Cu2   Cu    Cu3+1 0.491520 0.478190 0.355090 0.993525
H1    H     H_    0.732552 0.290760 0.496616 0.174341
H2    H     H_    0.275195 0.619267 0.714111 0.180547
H3    H     H_    0.017134 0.153088 0.391746 0.194404
H4    H     H_    0.993115 0.771840 0.778591 0.211024
N1    N     N_R   0.200850 0.479081 0.500093 -0.427114
N2    N     N_R   0.799878 0.475083 0.525434 -0.441781
N3    N     N_2   0.478780 0.445430 0.137360 -0.077383
N4    N     N_2   0.521220 0.554570 0.862640 -0.086531
O1    O     O_R   0.504520 0.332330 0.577400 -0.580427
O2    O     O_R   0.495480 0.667670 0.422600 -0.508372
O3    O     O_R   0.490210 0.295500 0.332650 -0.601704
O4    O     O_R   0.509790 0.704500 0.667350 -0.603849
O5    O     O_R   0.437420 0.518430 0.622370 -0.485914
O6    O     O_R   0.562580 0.481570 0.377630 -0.564058
O7    O     O_R   0.423110 0.481600 0.377610 -0.631332
O8    O     O_R   0.576890 0.518400 0.622390 -0.638164
O9    O     O_2   0.193024 0.257204 0.446247 -0.486832
O10   O     O_2   0.819132 0.654196 0.743678 -0.481836
O11   O     O_2   0.781467 0.288554 0.313190 -0.572537
O12   O     O_2   0.209690 0.702744 0.561346 -0.570310
O13   O     O_3   0.336382 0.297972 0.286971 -0.612895
C47   C     C_3   0.313525 0.178993 0.280969 0.149322
H5    H     H_    0.278811 0.145917 0.197901 0.207341
H6    H     H_    0.305469 0.184211 0.386403 0.161797
C48   C     C_3   0.346834 0.077370 0.238368 -0.934368
H7    H     H_    0.382849 0.109070 0.315034 0.233801
H8    H     H_    0.329831 0.986385 0.240849 0.220169
H9    H     H_    0.352292 0.059116 0.127950 0.247718
O14   O     O_3   0.660714 0.722348 0.609842 -0.620180
C49   C     C_3   0.691648 0.834689 0.629933 0.156314
H10   H     H_    0.698257 0.833151 0.525031 0.194049
H11   H     H_    0.726374 0.848158 0.709519 0.212961
C50   C     C_3   0.666183 0.949961 0.688013 -0.932790
H12   H     H_    0.663888 0.967399 0.800750 0.252894
H13   H     H_    0.687400 0.036232 0.686124 0.214515
H14   H     H_    0.628959 0.931822 0.618899 0.250165
O15   O     O_3   0.517097 0.974475 0.736695 -0.567624
C51   C     C_3   0.554658 0.949699 0.831430 0.106503
H15   H     H_    0.582371 0.898564 0.776428 0.135984
H16   H     H_    0.537957 0.891603 0.883386 0.198577
C52   C     C_3   0.580923 0.074424 0.950678 -0.784518
H17   H     H_    0.554504 0.142447 0.984131 0.264649
H18   H     H_    0.599104 0.056046 0.045347 0.205866
H19   H     H_    0.610296 0.117896 0.914587 0.237797
O16   O     O_3   0.500674 0.027189 0.268119 -0.570430
C53   C     C_3   0.474560 0.051800 0.152103 0.085261
H20   H     H_    0.499030 0.115966 0.123011 0.203003
H21   H     H_    0.440725 0.093052 0.175053 0.137925
C54   C     C_3   0.459132 0.925926 0.024022 -0.723094
H22   H     H_    0.424895 0.875985 0.032710 0.226150
H23   H     H_    0.452615 0.944354 0.923001 0.226063
H24   H     H_    0.487827 0.862545 0.021644 0.295161
O17   O     O_3   0.444359 0.439485 0.840159 -0.571812
C55   C     C_3   0.440019 0.305925 0.759117 0.152166
H25   H     H_    0.428095 0.246513 0.814046 0.203993
H26   H     H_    0.474757 0.275540 0.740328 0.211316
C56   C     C_3   0.399869 0.262771 0.622751 -0.801527
H27   H     H_    0.412798 0.284046 0.536419 0.238542
H28   H     H_    0.388942 0.157223 0.581906 0.181488
H29   H     H_    0.366926 0.309564 0.645626 0.254043
O18   O     O_3   0.544332 0.596024 0.169743 -0.520232
C57   C     C_3   0.588450 0.543587 0.152937 0.099422
H30   H     H_    0.596789 0.526442 0.046736 0.135504
H31   H     H_    0.587699 0.449408 0.164661 0.140636
C58   C     C_3   0.629801 0.638792 0.264201 -0.733347
H32   H     H_    0.618549 0.671137 0.368271 0.286946
H33   H     H_    0.663939 0.594971 0.268617 0.179886
H34   H     H_    0.635956 0.725375 0.240479 0.236341
O19   O     O_3   0.551595 0.661222 0.958674 -0.515174
C59   C     C_3   0.592800 0.682285 0.901510 0.218646
H35   H     H_    0.581783 0.707742 0.808419 0.203717
H36   H     H_    0.612722 0.598345 0.874071 0.140848
C60   C     C_3   0.629768 0.796041 0.006581 -0.928808
H37   H     H_    0.659055 0.765360 0.069905 0.235255
H38   H     H_    0.648619 0.843925 0.947423 0.230961
H39   H     H_    0.610390 0.865447 0.076285 0.271829
O20   O     O_3   0.450907 0.334898 0.045959 -0.591659
C61   C     C_3   0.406343 0.321837 0.090398 0.268627
H40   H     H_    0.390704 0.413112 0.121924 0.162982
H41   H     H_    0.412251 0.285523 0.178103 0.220970
C62   C     C_3   0.367477 0.223264 0.968631 -0.940801
H42   H     H_    0.381973 0.131282 0.924547 0.240746
H43   H     H_    0.334243 0.205625 0.008911 0.254342
H44   H     H_    0.355702 0.259719 0.882286 0.257030
O21   O     O_3   0.234212 0.329882 0.253618 -0.567135
C63   C     C_3   0.235833 0.379645 0.145406 0.045524
H45   H     H_    0.272055 0.374100 0.113139 0.167213
H46   H     H_    0.228761 0.481100 0.182463 0.148109
C64   C     C_3   0.196087 0.300855 0.013695 -0.761376
H47   H     H_    0.159325 0.305311 0.041924 0.244664
H48   H     H_    0.196767 0.339232 0.927650 0.209711
H49   H     H_    0.202555 0.199370 0.972981 0.251340
O22   O     O_3   0.758953 0.698617 0.524663 -0.603450
C65   C     C_3   0.772476 0.666009 0.389298 0.057258
H50   H     H_    0.747693 0.583678 0.301162 0.142054
H51   H     H_    0.810370 0.641164 0.398803 0.157508
C66   C     C_3   0.772695 0.781294 0.345168 -0.852903
H52   H     H_    0.796291 0.866041 0.431964 0.248863
H53   H     H_    0.787374 0.759899 0.245767 0.225478
H54   H     H_    0.734731 0.803622 0.323347 0.234253
O23   O     O_3   0.106880 0.126517 0.379534 -0.546147
C67   C     C_3   0.098497 0.071299 0.227881 0.102868
H55   H     H_    0.119160 0.133072 0.185824 0.170166
H56   H     H_    0.058605 0.056435 0.178068 0.140243
C68   C     C_3   0.116295 0.941400 0.182863 -0.739741
H57   H     H_    0.095947 0.877250 0.222239 0.234082
H58   H     H_    0.109833 0.897020 0.063718 0.203132
H59   H     H_    0.156288 0.952916 0.228443 0.267432
O24   O     O_3   0.904207 0.793253 0.807656 -0.555814
C69   C     C_3   0.892073 0.875139 0.733500 0.087711
H60   H     H_    0.862389 0.825585 0.635729 0.169624
H61   H     H_    0.924869 0.909434 0.701254 0.124936
C70   C     C_3   0.873624 0.991123 0.831111 -0.740557
H62   H     H_    0.903435 0.047942 0.925308 0.260244
H63   H     H_    0.861945 0.052760 0.771142 0.190208
H64   H     H_    0.841695 0.959775 0.868778 0.264832
O25   O     O_3   0.630344 0.260092 0.424119 -0.597732
C71   C     C_3   0.652963 0.147850 0.401912 -0.005019
H65   H     H_    0.675381 0.151108 0.505043 0.142501
H66   H     H_    0.675739 0.136013 0.319489 0.191029
C72   C     C_3   0.614998 0.028889 0.346620 -0.743677
H67   H     H_    0.588281 0.026790 0.251941 0.290359
H68   H     H_    0.634176 0.943711 0.317909 0.199665
H69   H     H_    0.595497 0.024081 0.430057 0.226966
O26   O     O_3   0.369440 0.682736 0.720947 -0.552118
C73   C     C_3   0.353477 0.802892 0.735730 0.082230
H70   H     H_    0.366934 0.870502 0.847988 0.150759
H71   H     H_    0.312957 0.801633 0.716224 0.170661
C74   C     C_3   0.373946 0.857622 0.637232 -0.863271
H72   H     H_    0.356475 0.797311 0.523842 0.231284
H73   H     H_    0.365601 0.956801 0.660118 0.218039
H74   H     H_    0.414375 0.859297 0.654547 0.260742
H75   H     H_    0.854006 0.187698 0.252279 0.181254
H76   H     H_    0.136141 0.798847 0.627781 0.207234
O27   O     O_3   0.946173 0.153770 0.236020 -0.598829
C75   C     C_3   0.922558 0.032949 0.221444 0.016748
H77   H     H_    0.886007 0.009417 0.147158 0.178384
H78   H     H_    0.917864 0.029801 0.326759 0.128568
C76   C     C_3   0.953209 0.929585 0.156018 -0.741819
H79   H     H_    0.987761 0.939196 0.233859 0.210186
H80   H     H_    0.932072 0.833367 0.127084 0.229129
H81   H     H_    0.962698 0.937640 0.057827 0.281131
O28   O     O_3   0.048336 0.827864 0.659061 -0.598971
C77   C     C_3   0.024955 0.850350 0.537564 0.061669
H82   H     H_    0.988729 0.787863 0.488505 0.142929
H83   H     H_    0.047926 0.833111 0.454795 0.153950
C78   C     C_3   0.016304 0.989514 0.584783 -0.778639
H84   H     H_    0.051941 0.053585 0.616180 0.265633
H85   H     H_    0.992233 0.004507 0.495288 0.187882
H86   H     H_    0.998178 0.014771 0.678014 0.243730
O29   O     O_3   0.482933 0.845795 0.345313 -0.506475
C79   C     C_3   0.430959 0.833838 0.313930 0.096106
H87   H     H_    0.419089 0.915694 0.287740 0.156486
H88   H     H_    0.414846 0.830088 0.404741 0.097458
C80   C     C_3   0.410017 0.710321 0.185632 -0.714495
H89   H     H_    0.414223 0.628124 0.219061 0.242952
H90   H     H_    0.370274 0.709639 0.146216 0.178684
H91   H     H_    0.429720 0.699567 0.097167 0.270249
O30   O     O_3   0.529566 0.154943 0.655393 -0.578093
C81   C     C_3   0.580157 0.195681 0.675690 0.118067
H92   H     H_    0.588298 0.224736 0.588784 0.197887
H93   H     H_    0.601354 0.119014 0.683416 0.153169
C82   C     C_3   0.596696 0.312908 0.812869 -0.849340
H94   H     H_    0.637490 0.334377 0.841929 0.206834
H95   H     H_    0.581695 0.394337 0.794682 0.255221
H96   H     H_    0.582441 0.299957 0.902335 0.234324

loop_
_geom_bond_atom_site_label_1
_geom_bond_atom_site_label_2
_ccdc_geom_bond_type
Cu2   N3    S    
C69   H61   S    
C80   H89   S    
O25   C71   S    
C78   H85   S    
C50   H14   S    
C35   N1    A    
C55   H25   S    
C8    C26   A    
C72   H67   S    
C14   C18   A    
C39   O26   S    
C34   O10   S    
C20   O28   S    
C25   H3    S    
C70   H62   S    
C36   O11   S    
C33   O9    S    
C38   H1    S    
O14   C49   S    
C21   H75   S    
C80   H90   S    
O16   C53   S    
C3    C18   A    
C19   C21   A    
C62   H42   S    
C1    O1    A    
C1    O3    A    
O15   C51   S    
C14   C15   A    
C73   H70   S    
C51   H16   S    
C9    C22   A    
C27   C29   D    
C54   H22   S    
C75   H77   S    
C60   H38   S    
C55   C56   S    
N4    O19   S    
C59   H36   S    
C43   O21   S    
C59   H35   S    
C60   H39   S    
C12   C42   A    
C69   C70   S    
C66   H53   S    
Cu1   O4    S    
C7    O23   S    
O22   C65   S    
O24   C69   S    
Cu1   Cu2   S    
C79   H87   S    
C74   H73   S    
C67   C68   S    
C5    C33   A    
C24   O6    A    
C10   C36   A    
C47   H5    S    
C52   H18   S    
C41   C43   A    
C29   O30   S    
C62   H44   S    
C56   H28   S    
C23   O7    A    
C30   O29   S    
C45   N1    S    
O29   C79   S    
C24   O8    A    
C71   H66   S    
C72   H68   S    
C65   C66   S    
C53   H20   S    
C2    O4    A    
C42   C44   A    
C63   C64   S    
C8    O24   S    
C70   H63   S    
C44   C46   A    
C66   H52   S    
C73   H71   S    
C10   C21   A    
C33   N1    A    
C64   H49   S    
C38   C46   A    
C13   C19   A    
C9    C35   A    
O30   C81   S    
C76   H81   S    
O17   C55   S    
N3    O20   S    
C80   H91   S    
C4    C6    A    
C54   H23   S    
C19   O27   S    
C57   H30   S    
C5    C7    A    
C49   H10   S    
C44   O22   S    
Cu2   O7    S    
C6    C8    A    
C53   C54   S    
C3    C5    A    
O26   C73   S    
C47   H6    S    
C50   H12   S    
O28   C77   S    
C58   H33   S    
C68   H59   S    
C59   C60   S    
C77   H83   S    
C69   H60   S    
C12   C40   A    
C53   H21   S    
O27   C75   S    
C77   C78   S    
C82   H94   S    
C29   C30   S    
C3    C9    A    
C26   H4    S    
Cu1   O1    S    
O21   C63   S    
C64   H48   S    
C50   H13   S    
Cu2   O6    S    
C31   C32   S    
C57   C58   S    
C74   H74   S    
C46   N2    S    
C47   C48   S    
C31   O18   S    
C56   H29   S    
C52   H19   S    
C11   C39   A    
C43   C45   A    
C73   C74   S    
C81   H92   S    
C40   O25   S    
C42   O14   S    
C4    C17   A    
C22   H76   S    
C81   H93   S    
C82   H95   S    
C20   C22   A    
C34   N2    A    
C81   C82   S    
C71   H65   S    
C48   H9    S    
C67   H56   S    
C27   O16   S    
C68   H58   S    
C48   H8    S    
C4    C10   A    
C48   H7    S    
Cu1   O8    S    
C70   H64   S    
C66   H54   S    
C51   H15   S    
Cu2   O3    S    
C41   O13   S    
C58   H32   S    
C64   H47   S    
C14   C20   A    
C16   C25   A    
C15   C17   A    
C61   H41   S    
C54   H24   S    
C65   H50   S    
C15   C26   A    
C51   C52   S    
C7    C25   A    
Cu1   O5    S    
C63   H46   S    
C2    O2    A    
Cu2   O2    S    
C63   H45   S    
C13   C17   A    
C56   H27   S    
C12   C24   S    
C61   C62   S    
C75   C76   S    
C55   H26   S    
C31   N3    D    
C77   H82   S    
C58   H34   S    
C28   C30   D    
C52   H17   S    
C76   H79   S    
C37   C39   A    
O19   C59   S    
C38   C40   A    
C37   H2    S    
C49   C50   S    
O20   C61   S    
C35   O12   S    
C61   H40   S    
C11   C23   S    
C72   H69   S    
C75   H78   S    
C11   C41   A    
C49   H11   S    
O13   C47   S    
C57   H31   S    
C76   H80   S    
C60   H37   S    
C36   N2    A    
C78   H84   S    
C78   H86   S    
C6    C34   A    
C23   O5    A    
C82   H96   S    
C71   C72   S    
C16   C18   A    
C74   H72   S    
C13   C16   A    
O18   C57   S    
C28   O15   S    
C1    C27   S    
C32   O17   S    
Cu1   N4    S    
C2    C28   S    
C79   C80   S    
C68   H57   S    
O23   C67   S    
C37   C45   A    
C32   N4    D    
C79   H88   S    
C65   H51   S    
C67   H55   S    
C62   H43   S    
