data_mof_unit_18794.cif
_audit_creation_date              2013-03-05T15:41:28-0500
_audit_creation_method            fapswitch 2.2
_symmetry_space_group_name_H-M    P1
_symmetry_Int_Tables_number       1
_space_group_crystal_system       triclinic
_cell_length_a                    11.692167
_cell_length_b                    18.745023
_cell_length_c                    10.097712
_cell_angle_alpha                 90.243065
_cell_angle_beta                  109.332888
_cell_angle_gamma                 90.010672
_cell_volume                      2088.298006

loop_
_atom_site_label
_atom_site_type_symbol
_atom_site_description
_atom_site_fract_x
_atom_site_fract_y
_atom_site_fract_z
_atom_type_partial_charge
O1    O     O_R   0.267710 0.668200 0.902110 -0.520379
O2    O     O_R   0.732290 0.331800 0.097890 -0.490676
O3    O     O_R   0.732290 0.168200 0.097890 -0.563813
O4    O     O_R   0.267710 0.831800 0.902110 -0.534742
O5    O     O_R   0.099480 0.674460 0.038850 -0.467771
O6    O     O_R   0.900520 0.325540 0.961150 -0.440617
O7    O     O_R   0.900520 0.174460 0.961150 -0.480048
O8    O     O_R   0.099480 0.825540 0.038850 -0.470979
C1    C     C_R   0.131576 0.639299 0.155509 0.556420
C2    C     C_R   0.927512 0.353348 0.860589 0.545560
C3    C     C_R   0.870348 0.138990 0.844263 0.531572
C4    C     C_R   0.069562 0.851657 0.140263 0.542517
O9    O     O_R   0.116720 0.669210 0.267660 -0.581288
O10   O     O_R   0.883280 0.330790 0.732340 -0.557055
O11   O     O_R   0.883280 0.169210 0.732340 -0.581044
O12   O     O_R   0.116720 0.830790 0.267660 -0.568139
O13   O     O_R   0.366710 0.675440 0.427590 -0.523494
O14   O     O_R   0.633290 0.324560 0.572410 -0.493854
O15   O     O_R   0.633290 0.175440 0.572410 -0.530375
O16   O     O_R   0.366710 0.824560 0.427590 -0.493274
C5    C     C_R   0.440610 0.637198 0.383600 0.573374
C6    C     C_R   0.563224 0.361652 0.628391 0.599292
C7    C     C_R   0.559044 0.137324 0.612406 0.591876
C8    C     C_R   0.436081 0.861184 0.369517 0.599472
O17   O     O_R   0.534870 0.669390 0.371760 -0.459486
O18   O     O_R   0.465130 0.330610 0.628240 -0.492126
O19   O     O_R   0.465130 0.169390 0.628240 -0.485380
O20   O     O_R   0.534870 0.830610 0.371760 -0.475422
O21   O     O_R   0.453080 0.674480 0.075160 -0.493381
O22   O     O_R   0.546920 0.325520 0.924840 -0.471042
O23   O     O_R   0.546920 0.174480 0.924840 -0.496420
O24   O     O_R   0.453080 0.825520 0.075160 -0.467981
C9    C     C_R   0.373155 0.643689 0.967067 0.545432
C10   C     C_R   0.625297 0.355407 0.034944 0.570094
C11   C     C_R   0.646063 0.138224 0.996426 0.579901
C12   C     C_R   0.374803 0.856315 0.968333 0.555530
Cr1   Cr    Cr6+3 0.187610 0.750000 0.979860 0.996225
Cr2   Cr    Cr6+3 0.812390 0.250000 0.020140 1.002881
Cr3   Cr    Cr6+3 0.245810 0.750000 0.341640 0.977858
Cr4   Cr    Cr6+3 0.754190 0.250000 0.658360 0.979552
Cr5   Cr    Cr6+3 0.485760 0.750000 0.219910 1.052542
Cr6   Cr    Cr6+3 0.514240 0.250000 0.780090 1.030714
O25   O     O_3   0.306390 0.750000 0.180470 -0.324392
O26   O     O_3   0.693610 0.250000 0.819530 -0.328771
C13   C     C_R   0.542373 0.439238 0.598052 0.004039
C14   C     C_R   0.463901 0.563490 0.438254 0.000264
C15   C     C_R   0.457507 0.938956 0.396126 0.009308
C16   C     C_R   0.538839 0.064016 0.553311 0.027286
C17   C     C_R   0.356250 0.443638 0.664638 0.424854
C18   C     C_R   0.648487 0.548982 0.363486 0.411206
C19   C     C_R   0.649949 0.940661 0.333679 0.390540
C20   C     C_R   0.376416 0.043665 0.650946 0.380745
C21   C     C_R   0.232289 0.454140 0.619007 0.357214
C22   C     C_R   0.769791 0.527529 0.399763 0.315605
C23   C     C_R   0.774324 0.954045 0.379341 0.315829
C24   C     C_R   0.253814 0.028162 0.627956 0.313635
C25   C     C_R   0.188391 0.513192 0.537334 -0.166304
C26   C     C_R   0.816767 0.482824 0.513513 -0.187975
C27   C     C_R   0.814669 0.014752 0.458031 -0.167561
C28   C     C_R   0.195120 0.985413 0.511941 -0.162302
C29   C     C_R   0.266342 0.552134 0.486116 -0.197700
C30   C     C_R   0.742882 0.459643 0.587190 -0.148255
C31   C     C_R   0.734302 0.054737 0.502936 -0.191471
C32   C     C_R   0.259673 0.959781 0.426820 -0.151081
C33   C     C_R   0.387056 0.530377 0.504932 -0.070396
C34   C     C_R   0.620288 0.476110 0.544222 -0.069553
C35   C     C_R   0.614383 0.031592 0.484755 -0.061310
C36   C     C_R   0.382143 0.976075 0.454988 -0.066937
C37   C     C_R   0.430319 0.471277 0.591552 -0.015503
C38   C     C_R   0.575963 0.530094 0.446413 -0.019249
C39   C     C_R   0.571928 0.970443 0.401652 -0.000344
C40   C     C_R   0.432391 0.028631 0.552266 0.010041
H1    H     H_    0.094202 0.528317 0.511208 0.128663
H2    H     H_    0.910818 0.466992 0.546567 0.142673
H3    H     H_    0.908632 0.030959 0.485938 0.131896
H4    H     H_    0.100460 0.971863 0.487849 0.138925
H5    H     H_    0.226229 0.595407 0.424370 0.197046
H6    H     H_    0.779831 0.432549 0.683507 0.174371
H7    H     H_    0.773289 0.100168 0.560346 0.199613
H8    H     H_    0.214804 0.932217 0.332914 0.168010
H9    H     H_    0.473707 0.064426 0.056635 0.116233
H10   H     H_    0.578396 0.920897 0.975619 0.177067
H11   H     H_    0.572248 0.569058 0.003418 0.175140
H12   H     H_    0.422532 0.428645 0.011943 0.180224
C41   C     C_2   0.395255 0.932307 0.954146 0.354162
C42   C     C_2   0.636264 0.061061 0.013636 0.364954
C43   C     C_2   0.610783 0.430595 0.061853 0.360092
C44   C     C_2   0.384597 0.567773 0.943017 0.337574
C45   C     C_2   0.507220 0.957198 0.980398 0.042301
C46   C     C_2   0.538160 0.031383 0.028329 0.026766
C47   C     C_2   0.502850 0.461026 0.025690 -0.012081
C48   C     C_2   0.491725 0.536657 0.986720 0.001404
C49   C     C_2   0.001554 0.918675 0.117327 -0.014937
C50   C     C_2   0.891705 0.062181 0.863808 -0.029257
C51   C     C_2   0.996065 0.420762 0.893912 -0.104029
C52   C     C_2   0.108471 0.562895 0.131393 -0.047689
C53   C     C_2   0.966726 0.952555 0.993573 0.289044
C54   C     C_2   0.957201 0.031937 0.987921 0.289987
C55   C     C_2   0.996265 0.460349 0.006669 0.246769
C56   C     C_2   0.026413 0.536662 0.012827 0.281864
H13   H     H_    0.838587 0.028690 0.777844 0.103574
H14   H     H_    0.000061 0.945240 0.210728 0.105501
H15   H     H_    0.168172 0.527001 0.206736 -0.002360
H16   H     H_    0.037362 0.440951 0.820203 0.138461
O27   O     O_3   0.155141 0.407663 0.655497 -0.561558
C57   C     C_3   0.178477 0.336531 0.620990 -0.012602
H17   H     H_    0.262618 0.315168 0.698020 0.214289
H18   H     H_    0.185854 0.332929 0.513744 0.105121
C58   C     C_3   0.078513 0.286748 0.626488 -0.378189
H19   H     H_    0.988185 0.304929 0.559094 0.176702
H20   H     H_    0.094401 0.233163 0.589148 0.078667
H21   H     H_    0.080759 0.283504 0.736668 0.178832
O28   O     O_3   0.840907 0.544554 0.318960 -0.524818
C59   C     C_3   0.851768 0.619149 0.306300 0.022634
H22   H     H_    0.949101 0.632451 0.353740 0.143847
H23   H     H_    0.803300 0.652195 0.362997 0.124253
C60   C     C_3   0.808554 0.640030 0.151345 -0.277392
H24   H     H_    0.811980 0.593647 0.084397 0.271474
H25   H     H_    0.714167 0.660187 0.119374 0.156419
H26   H     H_    0.866235 0.682782 0.131482 0.114332
O29   O     O_3   0.856990 0.911065 0.343386 -0.583327
C61   C     C_3   0.826794 0.837288 0.341114 0.020179
H27   H     H_    0.775572 0.820713 0.231609 0.196481
H28   H     H_    0.771304 0.824374 0.408966 0.158283
C62   C     C_3   0.940604 0.791905 0.393752 -0.397382
H29   H     H_    0.021308 0.825383 0.442770 0.201886
H30   H     H_    0.933277 0.753187 0.473219 0.059577
H31   H     H_    0.953700 0.761727 0.305846 0.166204
O30   O     O_3   0.188806 0.053151 0.712672 -0.560546
C63   C     C_3   0.242531 0.114685 0.791571 0.042358
H32   H     H_    0.266151 0.155673 0.725175 0.143237
H33   H     H_    0.321374 0.100342 0.881995 0.251424
C64   C     C_3   0.159188 0.147770 0.858365 -0.382914
H34   H     H_    0.134254 0.107815 0.923629 0.239176
H35   H     H_    0.202962 0.194346 0.924074 0.099404
H36   H     H_    0.080777 0.165346 0.772759 0.189945
F1    F     F_    0.401453 0.404685 0.779354 -0.653497
F2    F     F_    0.601146 0.583978 0.242457 -0.652748
F3    F     F_    0.608727 0.898009 0.222647 -0.666192
F4    F     F_    0.447023 0.069928 0.772297 -0.694576
F5    F     F_    0.720427 0.018546 0.988498 -0.697842
F6    F     F_    0.306338 0.977721 0.958298 -0.678990
F7    F     F_    0.281738 0.527426 0.906190 -0.665567
F8    F     F_    0.710870 0.472267 0.089289 -0.594564
O31   O     O_3   0.039947 0.072873 0.092752 -0.584663
C65   C     C_3   0.998698 0.086537 0.207499 0.029972
H37   H     H_    0.036118 0.047019 0.290355 0.115135
H38   H     H_    0.898718 0.085647 0.178734 0.200973
C66   C     C_3   0.048585 0.157716 0.276368 -0.342430
H39   H     H_    0.017396 0.202814 0.202886 0.178074
H40   H     H_    0.017420 0.166973 0.367587 0.077667
H41   H     H_    0.149272 0.156633 0.314115 0.151753
O32   O     O_3   0.936579 0.912393 0.871089 -0.575368
C67   C     C_3   0.020594 0.925741 0.801252 0.016910
H42   H     H_    0.114048 0.930369 0.875269 0.249687
H43   H     H_    0.997881 0.974955 0.737458 0.149265
C68   C     C_3   0.016701 0.864176 0.703623 -0.332276
H44   H     H_    0.033508 0.812891 0.761269 0.178662
H45   H     H_    0.925503 0.862223 0.623530 0.154363
H46   H     H_    0.087633 0.872399 0.654691 0.122749
O33   O     O_3   0.940806 0.581659 0.924245 -0.556226
C69   C     C_3   0.966911 0.591509 0.798943 0.016638
H47   H     H_    0.948639 0.542431 0.736349 0.117052
H48   H     H_    0.062968 0.606533 0.818314 0.209267
C70   C     C_3   0.885924 0.649923 0.713438 -0.353919
H49   H     H_    0.901878 0.700629 0.774141 0.170183
H50   H     H_    0.906845 0.658106 0.615327 0.065048
H51   H     H_    0.789146 0.634346 0.686218 0.167915
O34   O     O_3   0.931271 0.437258 0.091036 -0.447615
C71   C     C_3   0.008542 0.430966 0.230652 0.039782
H52   H     H_    0.021041 0.484048 0.281298 0.166667
H53   H     H_    0.098038 0.406916 0.239136 0.080645
C72   C     C_3   0.949070 0.384755 0.311142 -0.298871
H54   H     H_    0.952718 0.327609 0.283486 0.126077
H55   H     H_    0.997327 0.393267 0.422842 0.104127
H56   H     H_    0.854695 0.401729 0.293187 0.245284

loop_
_geom_bond_atom_site_label_1
_geom_bond_atom_site_label_2
_geom_bond_distance
_ccdc_geom_bond_type
C26   C30   1.384468 A    
O4    C12   1.291894 A    
C70   H49   1.110507 S    
O23   Cr6   1.983525 S    
C23   C27   1.375779 A    
C60   H24   1.107940 S    
Cr5   O25   2.000984 S    
O34   C71   1.405634 S    
O15   C7    1.289008 A    
C23   O29   1.394728 S    
C53   C54   1.492118 S    
O1    C9    1.276189 A    
C31   H7    1.043915 S    
C72   H54   1.110233 S    
O7    C3    1.295060 A    
H11   C48   1.085144 S    
C26   H2    1.080121 S    
C18   C22   1.401764 A    
H10   C45   1.088322 S    
C19   C39   1.423543 A    
O24   C12   1.298568 A    
C9    C44   1.456233 S    
C41   C45   1.330667 D    
O30   C63   1.421391 S    
C43   C47   1.322196 D    
C60   H25   1.109132 S    
C11   C42   1.466531 S    
C51   C55   1.355757 D    
O5    Cr1   1.958233 S    
C50   C54   1.359868 D    
C65   C66   1.525560 S    
C22   O28   1.382132 S    
O21   C9    1.310293 A    
O20   Cr5   2.088331 S    
O13   Cr3   1.975740 S    
C25   H1    1.082210 S    
O14   Cr4   1.975739 S    
C57   C58   1.510962 S    
C1    O9    1.323599 A    
C3    O11   1.318932 A    
C68   H44   1.109365 S    
C71   H52   1.104134 S    
C44   C48   1.319216 D    
C50   H13   1.082406 S    
C29   H5    1.038017 S    
C62   H31   1.103240 S    
O24   Cr5   1.983523 S    
O6    Cr2   1.958231 S    
C56   O33   1.388271 S    
H12   C47   1.087360 S    
C7    O19   1.307001 A    
C43   F8    1.356298 S    
C44   F7    1.363006 S    
C67   H43   1.108333 S    
C24   O30   1.398627 S    
O1    Cr1   2.078891 S    
O2    C10   1.280975 A    
C68   H45   1.105070 S    
C17   C37   1.410433 A    
C32   H8    1.052475 S    
C66   H40   1.110048 S    
C27   H3    1.082989 S    
Cr6   O26   2.000984 S    
C16   C40   1.407149 A    
O8    C4    1.282059 A    
Cr2   O26   2.041938 S    
O31   C65   1.417142 S    
C65   H38   1.107380 S    
C72   H55   1.092282 S    
C31   C35   1.420040 A    
C14   C38   1.429920 A    
O22   C10   1.307539 A    
C13   C37   1.423098 A    
C4    O12   1.283205 A    
O3    Cr2   2.083543 S    
C67   C68   1.505438 S    
C2    O10   1.294279 A    
C60   H26   1.108156 S    
O17   Cr5   2.097879 S    
C47   C48   1.467158 S    
O16   Cr3   1.970149 S    
C30   C34   1.388401 A    
Cr3   O25   1.978265 S    
O12   Cr3   2.096070 S    
C19   C23   1.394703 A    
C28   H4    1.081552 S    
C69   H47   1.094112 S    
O13   C5    1.307446 A    
C24   C28   1.394620 A    
Cr1   O25   2.041938 S    
C63   H33   1.095742 S    
O5    C1    1.294943 A    
C20   C40   1.389285 A    
C29   C33   1.420507 A    
C64   H36   1.083554 S    
C69   C70   1.519265 S    
O2    Cr2   2.078891 S    
C49   C53   1.341887 D    
C55   C56   1.469350 S    
O3    C11   1.301096 A    
C36   C40   1.374793 A    
O29   C61   1.425459 S    
C25   C29   1.395006 A    
C1    C52   1.461769 S    
C15   C39   1.446120 A    
C67   H42   1.103972 S    
C65   H37   1.096879 S    
C14   C33   1.431697 A    
H9    C46   1.083765 S    
C66   H41   1.111120 S    
C3    C50   1.464305 S    
C5    C14   1.481483 S    
C68   H46   1.107989 S    
C53   O32   1.387104 S    
C42   C46   1.326793 D    
C62   H29   1.103224 S    
O23   C11   1.333335 A    
C4    C49   1.464575 S    
C58   H21   1.106076 S    
C63   C64   1.490285 S    
O8    Cr1   1.954852 S    
C61   H28   1.115635 S    
C45   C46   1.475488 S    
C32   C36   1.397876 A    
C15   C36   1.399056 A    
C6    O18   1.285545 A    
C51   H16   1.081950 S    
O18   Cr6   2.097878 S    
C64   H35   1.111084 S    
O28   C59   1.414181 S    
C22   C26   1.383421 A    
C72   H56   1.104481 S    
C33   C37   1.401314 A    
C5    O17   1.296412 A    
C21   C25   1.377163 A    
C7    C16   1.483181 S    
O21   Cr5   1.974552 S    
O14   C6    1.333274 A    
C8    C15   1.487346 S    
C30   H6    1.056670 S    
C8    O20   1.283032 A    
C41   F6    1.355047 S    
O6    C2    1.272415 A    
C59   H23   1.115600 S    
C18   F2    1.337662 S    
C59   H22   1.106654 S    
C55   O34   1.386449 S    
C54   O31   1.400044 S    
C12   C41   1.459843 S    
C70   H51   1.111070 S    
O27   C57   1.425778 S    
C34   C38   1.392052 A    
C27   C31   1.389198 A    
C28   C32   1.401961 A    
C61   C62   1.520818 S    
C58   H20   1.108543 S    
C63   H32   1.114897 S    
C61   H27   1.111959 S    
C69   H48   1.110373 S    
O33   C69   1.409182 S    
C66   H39   1.106544 S    
O19   Cr6   2.088333 S    
C64   H34   1.100698 S    
C57   H18   1.116233 S    
C2    C51   1.473105 S    
C17   C21   1.382197 A    
C52   C56   1.352779 D    
C20   F4    1.323007 S    
O7    Cr2   1.954853 S    
C35   C39   1.407225 A    
C10   C43   1.454801 S    
C16   C35   1.424871 A    
C18   C38   1.420618 A    
O11   Cr4   2.096072 S    
O9    Cr3   2.091080 S    
C59   C60   1.529244 S    
O15   Cr4   1.970151 S    
C17   F1    1.325248 S    
O10   Cr4   2.091079 S    
C21   O27   1.389583 S    
Cr4   O26   1.978266 S    
C6    C13   1.490933 S    
O4    Cr1   2.083541 S    
C49   H14   1.069905 S    
C70   H50   1.107501 S    
C57   H17   1.108760 S    
C52   H15   1.082428 S    
C13   C34   1.390644 A    
C62   H30   1.108326 S    
O22   Cr6   1.974551 S    
C71   H53   1.116550 S    
O32   C67   1.408873 S    
C58   H19   1.104938 S    
O16   C8    1.338348 A    
C20   C24   1.404342 A    
C42   F5    1.353465 S    
C71   C72   1.508110 S    
C19   F3    1.327773 S    
