data_mof_unit_57108.cif
_audit_creation_date              2012-12-10T17:17:29-0500
_audit_creation_method            fapswitch 2.2
_symmetry_space_group_name_H-M    P1
_symmetry_Int_Tables_number       1
_space_group_crystal_system       triclinic
_cell_length_a                    10.217786
_cell_length_b                    10.557329
_cell_length_c                    12.103733
_cell_angle_alpha                 90.109171
_cell_angle_beta                  109.065741
_cell_angle_gamma                 96.029381
_cell_volume                      1226.29965633

loop_
_atom_site_label
_atom_site_type_symbol
_atom_type_description
_atom_site_fract_x
_atom_site_fract_y
_atom_site_fract_z
_atom_type_partial_charge
C1    C     C_R   0.050036 0.734225 0.488916 0.813763
C2    C     C_R   0.416322 0.484704 0.996046 0.056935
C3    C     C_R   0.317367 0.439184 0.888693 0.094690
C4    C     C_R   0.553079 0.449086 0.024865 0.088821
C5    C     C_R   0.584688 0.356636 0.954570 0.106073
C6    C     C_R   0.475999 0.296828 0.859563 -0.297386
C7    C     C_R   0.341735 0.332083 0.830338 -0.000531
C8    C     C_R   0.659694 0.506474 0.120521 -0.252041
C9    C     C_R   0.826321 0.376746 0.086727 -0.066514
C10   C     C_R   0.199961 0.505846 0.841615 -0.066669
C11   C     C_2   0.071056 0.869401 0.467785 -0.180229
C12   C     C_R   0.132522 0.507572 0.715138 0.912326
C13   C     C_2   0.954579 0.926601 0.418995 -0.099149
C14   C     C_2   0.905500 0.128254 0.490464 -0.195274
C15   C     C_2   0.954578 0.063732 0.418754 -0.147291
C16   C     C_2   0.428183 0.520472 0.502069 -0.066782
C17   C     C_2   0.564059 0.494608 0.486486 -0.097005
C18   C     C_R   0.945163 0.265413 0.502547 0.874079
C19   C     C_R   0.865915 0.486694 0.284396 0.854949
C20   C     C_R   0.723478 0.324948 0.982353 -0.062112
C21   C     C_R   0.789011 0.461794 0.159273 -0.119567
C22   C     C_R   0.161090 0.587642 0.913844 -0.159112
C23   C     C_R   0.245433 0.612379 0.029161 -0.054761
C24   C     C_R   0.374038 0.564841 0.069536 -0.174979
H1    H     H_    0.558664 0.425256 0.418401 0.147557
H2    H     H_    0.492372 0.218907 0.809389 0.128439
H3    H     H_    0.642691 0.583120 0.171446 0.153123
H4    H     H_    0.010772 0.114473 0.366893 0.190023
N1    N     N_2   0.313640 0.446500 0.454900 -0.186044
N2    N     N_2   0.686360 0.553430 0.545150 -0.152030
O1    O     O_R   0.936910 0.692950 0.509080 -0.600336
O2    O     O_R   0.138320 0.658600 0.480130 -0.612599
O3    O     O_R   0.002900 0.525670 0.675280 -0.597223
O4    O     O_R   0.204310 0.491320 0.646330 -0.607213
O5    O     O_R   0.861680 0.341400 0.519870 -0.603009
O6    O     O_R   0.063090 0.307050 0.490920 -0.586980
O7    O     O_R   0.795690 0.508680 0.353670 -0.624732
O8    O     O_R   0.997100 0.474330 0.324720 -0.562400
Zn1   Zn    Zn3+2 0.865520 0.522940 0.519330 0.969112
Zn2   Zn    Zn3+2 0.134480 0.477060 0.480670 0.984842
C25   C     C_2   0.967852 0.334725 0.120989 0.515042
H5    H     H_    0.979861 0.234036 0.117247 0.044450
O9    O     O_2   0.071316 0.412447 0.146483 -0.547851
H6    H     H_    0.852765 0.870984 0.389725 0.190835
C26   C     C_2   0.822662 0.069380 0.561929 0.462757
H7    H     H_    0.798066 0.128896 0.624069 0.118437
O10   O     O_2   0.780079 0.956150 0.552377 -0.605827
C27   C     C_2   0.215909 0.934986 0.506458 0.391589
H8    H     H_    0.301406 0.882759 0.554847 0.071157
O11   O     O_2   0.242335 0.045518 0.484240 -0.585882
H9    H     H_    0.423895 0.603801 0.552622 0.194025
C28   C     C_2   0.705794 0.632492 0.646283 0.575260
H10   H     H_    0.787571 0.711701 0.668632 0.089907
O12   O     O_2   0.641522 0.606500 0.714036 -0.611840
H11   H     H_    0.319870 0.367814 0.407075 0.194572
C29   C     C_2   0.761543 0.238019 0.903335 0.364073
H12   H     H_    0.696680 0.149823 0.867719 0.056055
O13   O     O_2   0.866227 0.265185 0.876697 -0.511151
H13   H     H_    0.068579 0.636193 0.879919 0.156234
H14   H     H_    0.436532 0.590381 0.158942 0.133786
H15   H     H_    0.214736 0.674254 0.085558 0.155503
C30   C     C_2   0.227485 0.244026 0.750253 0.408248
H16   H     H_    0.248188 0.183199 0.686914 0.107620
O14   O     O_2   0.111125 0.233302 0.758913 -0.569763

loop_
_geom_bond_atom_site_label_1
_geom_bond_atom_site_label_2
_ccdc_geom_bond_type
C1    O1    A    
C2    C4    A    
C23   C24   A    
C7    C30   S    
C6    C7    A    
C19   O8    A    
C9    C25   S    
C19   O7    A    
C18   O5    A    
C14   C18   S    
C9    C20   A    
O5    Zn1   S    
C1    C11   S    
C16   H9    S    
C20   C29   S    
C4    C8    A    
C17   H1    S    
C28   O12   D    
C27   O11   D    
C2    C3    A    
C11   C27   S    
O7    Zn1   S    
C3    C10   A    
O3    Zn1   S    
C26   H7    S    
C10   C22   A    
O8    Zn2   S    
C17   N2    D    
C11   C13   D    
C9    C21   A    
C15   H4    S    
C30   H16   S    
C10   C12   S    
C28   H10   S    
O4    Zn2   S    
N1    Zn2   S    
C22   C23   A    
C27   H8    S    
C19   C21   S    
C29   O13   D    
N2    Zn1   S    
C8    C21   A    
C14   C26   S    
C3    C7    A    
O2    Zn2   S    
C13   C15   S    
C2    C24   A    
C5    C6    A    
C12   O4    A    
C23   H15   S    
C29   H12   S    
C16   N1    D    
C25   H5    S    
C26   O10   D    
C22   H13   S    
C5    C20   A    
C8    H3    S    
N2    C28   S    
C6    H2    S    
C16   C17   S    
O6    Zn2   S    
C30   O14   D    
C24   H14   S    
N1    H11   S    
C12   O3    A    
C14   C15   D    
C18   O6    A    
C13   H6    S    
C1    O2    A    
C25   O9    D    
O1    Zn1   S    
C4    C5    A    
