data_mof_unit_30198.cif
_audit_creation_date              2012-12-10T18:57:12-0500
_audit_creation_method            fapswitch 2.2
_symmetry_space_group_name_H-M    P1
_symmetry_Int_Tables_number       1
_space_group_crystal_system       triclinic
_cell_length_a                    8.73148
_cell_length_b                    10.833806
_cell_length_c                    9.55645
_cell_angle_alpha                 90.376878
_cell_angle_beta                  97.826703
_cell_angle_gamma                 90.167534
_cell_volume                      895.546717688

loop_
_atom_site_label
_atom_site_type_symbol
_atom_type_description
_atom_site_fract_x
_atom_site_fract_y
_atom_site_fract_z
_atom_type_partial_charge
C1    C     C_R   0.496501 0.262415 0.499092 0.796007
C2    C     C_R   0.468978 0.934810 0.368313 -0.218131
C3    C     C_R   0.481855 0.871004 0.497255 -0.096443
C4    C     C_R   0.471252 0.937802 0.620981 0.132110
C5    C     C_3   0.570072 0.934427 0.761354 -0.488616
C6    C     C_3   0.568227 0.074372 0.760463 -0.454104
C7    C     C_R   0.632167 0.525568 0.090261 0.259470
C8    C     C_R   0.373887 0.462230 0.058301 -0.088806
C9    C     C_R   0.373831 0.462335 0.909712 -0.086613
C10   C     C_R   0.632562 0.524471 0.943059 0.260771
C11   C     C_3   0.727018 0.639436 0.949086 -0.512344
C12   C     C_R   0.203928 0.499294 0.463894 0.882318
C13   C     C_3   0.724643 0.641907 0.107592 -0.497587
C14   C     C_R   0.497361 0.737762 0.499870 0.798006
C15   C     C_R   0.796095 0.500021 0.536163 0.883531
C16   C     C_2   0.038147 0.497297 0.444193 -0.370015
C17   C     C_2   0.961951 0.500779 0.556122 -0.372642
C18   C     C_R   0.470298 0.064887 0.620141 0.126053
C19   C     C_R   0.480102 0.129437 0.495907 -0.096254
C20   C     C_R   0.468124 0.063554 0.367641 -0.218893
Cu1   Cu    Cu3+1 0.499990 0.499980 0.640670 0.937132
Cu2   Cu    Cu3+1 0.500010 0.500020 0.359330 0.936893
H1    H     H_    0.978604 0.492308 0.336864 0.164073
H2    H     H_    0.270840 0.433021 0.841860 0.139951
H3    H     H_    0.843933 0.622662 0.919283 0.193312
H4    H     H_    0.663145 0.716694 0.893565 0.213701
H5    H     H_    0.840734 0.628201 0.168752 0.193001
H6    H     H_    0.658429 0.720810 0.143604 0.211649
H7    H     H_    0.021568 0.504831 0.663626 0.163685
H8    H     H_    0.467342 0.886073 0.268795 0.163419
H9    H     H_    0.507455 0.894867 0.844512 0.197358
H10   H     H_    0.686636 0.895474 0.754950 0.196224
H11   H     H_    0.504255 0.114992 0.842478 0.197922
H12   H     H_    0.683503 0.116257 0.754054 0.198579
H13   H     H_    0.270941 0.432879 0.100190 0.142317
N1    N     N_R   0.500980 0.500930 0.148050 -0.186669
N2    N     N_R   0.500990 0.500890 0.852140 -0.185465
O1    O     O_R   0.500000 0.319640 0.618810 -0.581281
O2    O     O_R   0.500020 0.319680 0.381230 -0.586881
O3    O     O_R   0.274830 0.499980 0.591380 -0.584387
O4    O     O_R   0.274850 0.500020 0.353800 -0.597246
O5    O     O_R   0.499980 0.680320 0.618770 -0.578443
O6    O     O_R   0.500000 0.680360 0.381190 -0.586086
O7    O     O_R   0.725150 0.499980 0.646200 -0.591167
O8    O     O_R   0.725170 0.500020 0.408620 -0.575531
H14   H     H_    0.466192 0.110754 0.267858 0.166121

loop_
_geom_bond_atom_site_label_1
_geom_bond_atom_site_label_2
_ccdc_geom_bond_type
C12   O3    A    
C7    C10   A    
C13   H6    S    
C12   O4    A    
Cu1   O7    S    
C17   H7    S    
C7    N1    A    
C1    O2    A    
C19   C20   A    
C6    H11   S    
C2    H8    S    
C14   O5    A    
C5    H10   S    
C4    C18   A    
C14   O6    A    
C9    N2    A    
C2    C3    A    
C9    H2    S    
Cu1   Cu2   S    
C4    C5    S    
C11   C13   S    
C16   C17   D    
C3    C14   S    
C1    O1    A    
C10   N2    A    
Cu2   O2    S    
C15   O7    A    
C16   H1    S    
C5    C6    S    
C6    C18   S    
C20   H14   S    
C1    C19   S    
Cu2   O4    S    
C10   C11   S    
C15   O8    A    
C2    C20   A    
C3    C4    A    
C12   C16   S    
C7    C13   S    
Cu2   O8    S    
Cu1   N2    S    
C18   C19   A    
C8    N1    A    
C15   C17   S    
C11   H3    S    
C13   H5    S    
Cu1   O5    S    
C11   H4    S    
Cu2   O6    S    
Cu2   N1    S    
Cu1   O1    S    
C6    H12   S    
C8    C9    A    
C5    H9    S    
C8    H13   S    
Cu1   O3    S    
