data_mof_unit_7147.cif
_audit_creation_date              2012-12-10T21:29:39-0500
_audit_creation_method            fapswitch 2.2
_symmetry_space_group_name_H-M    P1
_symmetry_Int_Tables_number       1
_space_group_crystal_system       triclinic
_cell_length_a                    10.62199
_cell_length_b                    16.055713
_cell_length_c                    16.873706
_cell_angle_alpha                 88.056998
_cell_angle_beta                  89.887821
_cell_angle_gamma                 92.039422
_cell_volume                      2874.21224178

loop_
_atom_site_label
_atom_site_type_symbol
_atom_type_description
_atom_site_fract_x
_atom_site_fract_y
_atom_site_fract_z
_atom_type_partial_charge
C1    C     C_R   0.496383 0.489127 0.652961 0.871437
C2    C     C_R   0.497825 0.510908 0.347049 0.869873
C3    C     C_R   0.476577 0.483036 0.738045 -0.036378
C4    C     C_R   0.479627 0.517215 0.261932 -0.032437
C5    C     C_R   0.451062 0.555337 0.778431 -0.234056
C6    C     C_R   0.445249 0.445190 0.221496 -0.227891
C7    C     C_R   0.426908 0.550561 0.858849 -0.159696
C8    C     C_R   0.422230 0.450198 0.141081 -0.161605
C9    C     C_R   0.429663 0.473067 0.900411 0.326501
C10   C     C_R   0.434951 0.527656 0.099543 0.326313
C11   C     C_R   0.451192 0.400666 0.859663 -0.188066
C12   C     C_R   0.465817 0.599777 0.140296 -0.187113
C13   C     C_R   0.474740 0.405383 0.778631 -0.216201
C14   C     C_R   0.488242 0.594829 0.221341 -0.217034
C15   C     C_R   0.423835 0.762606 0.475104 -0.032857
C16   C     C_R   0.575973 0.237358 0.525057 -0.031769
C17   C     C_R   0.429841 0.849737 0.476718 -0.307065
C18   C     C_R   0.569913 0.150231 0.523426 -0.306965
C19   C     C_R   0.532144 0.891339 0.513907 0.324638
C20   C     C_R   0.467752 0.108668 0.486050 0.325003
C21   C     C_R   0.626495 0.842094 0.549364 -0.113199
C22   C     C_R   0.373589 0.157957 0.450432 -0.112391
C23   C     C_R   0.739875 0.500556 0.487934 0.898732
C24   C     C_R   0.260288 0.499417 0.512367 0.895096
C25   C     C_R   0.614681 0.754624 0.546486 -0.118392
C26   C     C_R   0.385457 0.245423 0.453331 -0.119837
C27   C     C_R   0.882475 0.347869 0.456636 -0.139788
C28   C     C_R   0.117968 0.651923 0.544571 -0.139134
C29   C     C_R   0.935291 0.271920 0.477339 -0.162951
C30   C     C_R   0.065278 0.727926 0.523945 -0.162302
C31   C     C_R   0.042817 0.270537 0.524101 -0.161638
C32   C     C_R   0.957816 0.729424 0.477128 -0.161522
C33   C     C_R   0.102670 0.345314 0.544821 -0.134607
C34   C     C_R   0.897876 0.654707 0.456292 -0.135762
C35   C     C_R   0.055419 0.422915 0.518555 0.088826
C36   C     C_R   0.944912 0.577028 0.482539 0.088981
C37   C     C_R   0.936810 0.423931 0.482956 0.091841
C38   C     C_R   0.063489 0.575949 0.518167 0.092973
C39   C     C_R   0.124419 0.499222 0.525338 -0.262385
C40   C     C_R   0.875909 0.500703 0.475570 -0.264591
H1    H     H_    0.919174 0.788387 0.458456 0.150285
H2    H     H_    0.081620 0.211622 0.542766 0.150678
H3    H     H_    0.644520 0.116047 0.551675 0.205526
H4    H     H_    0.355080 0.883894 0.448608 0.205677
H5    H     H_    0.685760 0.716175 0.573320 0.147390
H6    H     H_    0.314538 0.283912 0.426365 0.144824
H7    H     H_    0.800170 0.346559 0.418965 0.156785
H8    H     H_    0.200405 0.653085 0.582145 0.154310
H9    H     H_    0.891358 0.214118 0.458324 0.153642
H10   H     H_    0.109318 0.785678 0.542998 0.152939
H11   H     H_    0.185732 0.342027 0.581709 0.154866
H12   H     H_    0.815010 0.658135 0.419254 0.153670
H13   H     H_    0.435404 0.384782 0.251916 0.166346
H14   H     H_    0.449145 0.615778 0.747979 0.167160
H15   H     H_    0.396969 0.393198 0.111509 0.151674
H16   H     H_    0.408723 0.607731 0.888445 0.151682
H17   H     H_    0.453371 0.340901 0.891311 0.143538
H18   H     H_    0.475823 0.659501 0.108668 0.143611
H19   H     H_    0.492490 0.348714 0.748051 0.165845
H20   H     H_    0.513085 0.651292 0.251940 0.164943
H21   H     H_    0.653614 0.268609 0.554621 0.153420
H22   H     H_    0.346080 0.731324 0.445680 0.154817
N1    N     N_2   0.422160 0.466226 0.983686 -0.205905
N2    N     N_2   0.428122 0.534647 0.016283 -0.205498
N3    N     N_R   0.515300 0.716920 0.509720 -0.086029
N4    N     N_R   0.484700 0.283080 0.490280 -0.084931
N5    N     N_2   0.543221 0.980650 0.516588 -0.126047
N6    N     N_2   0.456636 0.019357 0.483358 -0.126060
O1    O     O_R   0.494530 0.422540 0.612660 -0.622584
O2    O     O_R   0.505470 0.577460 0.387340 -0.622517
O3    O     O_R   0.504350 0.561840 0.618900 -0.622250
O4    O     O_R   0.495650 0.438160 0.381100 -0.623018
O5    O     O_R   0.678310 0.430340 0.496890 -0.621944
O6    O     O_R   0.321690 0.569660 0.503110 -0.623518
O7    O     O_R   0.688140 0.569650 0.503130 -0.619784
O8    O     O_R   0.311860 0.430350 0.496870 -0.621481
Zn1   Zn    Zn3+2 0.493440 0.406980 0.495830 0.938347
Zn2   Zn    Zn3+2 0.506560 0.593020 0.504170 0.938263
C41   C     C_2   0.739017 0.878445 0.589420 0.384566
H23   H     H_    0.808366 0.837443 0.615035 0.061663
O9    O     O_2   0.756572 0.953616 0.594452 -0.561017
C42   C     C_2   0.261217 0.121655 0.410181 0.383523
H24   H     H_    0.191965 0.162687 0.384500 0.060739
O10   O     O_2   0.243689 0.046492 0.405054 -0.560727

loop_
_geom_bond_atom_site_label_1
_geom_bond_atom_site_label_2
_ccdc_geom_bond_type
C31   H2    S    
O2    Zn2   S    
O1    Zn1   S    
C29   H9    S    
C1    O3    A    
C22   C42   S    
C35   C37   A    
C37   C40   A    
C35   C39   A    
C27   C29   A    
C23   C40   S    
C15   N3    A    
C24   C39   S    
C15   C17   A    
C17   C19   A    
C32   H1    S    
C31   C33   A    
C19   N5    S    
C34   C36   A    
C3    C13   A    
C12   H18   S    
C30   H10   S    
C7    H16   S    
C23   O5    A    
C2    O4    A    
C8    H15   S    
N5    N6    D    
C26   N4    A    
C5    H14   S    
C36   C40   A    
C25   N3    A    
O8    Zn1   S    
C4    C6    A    
C23   O7    A    
C5    C7    A    
C24   O8    A    
C6    C8    A    
C1    O1    A    
C41   H23   S    
C1    C3    S    
C32   C34   A    
C2    C4    S    
O4    Zn1   S    
C28   C38   A    
C21   C41   S    
C9    C11   A    
C10   C12   A    
C8    C10   A    
C12   C14   A    
C42   O10   D    
C22   C26   A    
C16   N4    A    
C16   H21   S    
C6    H13   S    
C25   H5    S    
C41   O9    D    
C27   H7    S    
C7    C9    A    
N4    Zn1   S    
C21   C25   A    
C28   H8    S    
N3    Zn2   S    
C19   C21   A    
C9    N1    S    
C20   N6    S    
C10   N2    S    
C20   C22   A    
C3    C5    A    
C13   H19   S    
C33   H11   S    
C14   H20   S    
C34   H12   S    
C28   C30   A    
C17   H4    S    
C29   C31   A    
C2    O2    A    
C18   H3    S    
C30   C32   A    
C11   C13   A    
C24   O6    A    
C38   C39   A    
C27   C37   A    
C36   C38   A    
C33   C35   A    
C15   H22   S    
C18   C20   A    
C4    C14   A    
O7    Zn2   S    
C26   H6    S    
N1    N2    D    
C16   C18   A    
C42   H24   S    
O6    Zn2   S    
O5    Zn1   S    
C11   H17   S    
O3    Zn2   S    
