data_mof_unit_29299.cif
_audit_creation_date              2012-10-26T20:40:18-0400
_audit_creation_method            fapswitch 2.2
_symmetry_space_group_name_H-M    P1
_symmetry_Int_Tables_number       1
_space_group_crystal_system       triclinic
_cell_length_a                    15.003817
_cell_length_b                    10.927166
_cell_length_c                    9.697542
_cell_angle_alpha                 92.157603
_cell_angle_beta                  94.016731
_cell_angle_gamma                 93.105555
_cell_volume                      1582.29836679

loop_
_atom_site_label
_atom_site_type_symbol
_atom_type_description
_atom_site_fract_x
_atom_site_fract_y
_atom_site_fract_z
_atom_type_partial_charge
Br1   Br    Br    0.665350 0.257722 0.752092 -0.520763
Br2   Br    Br    0.330705 0.361577 0.122617 -0.457365
Br3   Br    Br    0.747579 0.863496 0.223609 -0.581670
Br4   Br    Br    0.127058 0.874675 0.570589 -0.430504
Br5   Br    Br    0.909455 0.868433 0.603009 -0.422711
Br6   Br    Br    0.439583 0.112044 0.205334 -0.475985
C1    C     C_R   0.503952 0.262652 0.498880 0.574195
C2    C     C_R   0.181659 0.385227 0.479533 0.263633
C3    C     C_R   0.232612 0.497010 0.488710 0.024052
C4    C     C_R   0.329252 0.498513 0.496286 0.559075
C5    C     C_R   0.191940 0.608310 0.503747 -0.137777
C6    C     C_R   0.571341 0.130522 0.749722 0.207711
C7    C     C_R   0.557700 0.083738 0.878755 0.330323
C8    C     C_R   0.511055 0.970263 0.886126 -0.119627
C9    C     C_R   0.487789 0.898783 0.765833 -0.138133
C10   C     C_R   0.503679 0.943979 0.634337 -0.007896
C11   C     C_R   0.530643 0.069389 0.626711 -0.038762
C12   C     C_R   0.912161 0.606154 0.531782 -0.017003
C13   C     C_R   0.510008 0.128195 0.499667 -0.004527
C14   C     C_R   0.482972 0.054422 0.379471 0.114669
C15   C     C_R   0.481140 0.928445 0.383961 -0.108405
C16   C     C_R   0.495974 0.737033 0.502820 0.534942
C17   C     C_R   0.491436 0.871087 0.509363 -0.007780
C18   C     C_R   0.613405 0.670235 0.166204 -0.069565
C19   C     C_R   0.661484 0.763465 0.108036 0.045001
C20   C     C_R   0.660296 0.767330 0.966468 -0.124105
C21   C     C_R   0.627265 0.663269 0.886898 0.288789
C22   C     C_R   0.560099 0.580559 0.937440 0.119021
C23   C     C_R   0.943667 0.282125 0.417088 -0.104184
C24   C     C_R   0.557244 0.582284 0.085844 0.060235
C25   C     C_R   0.438291 0.432868 0.060932 0.312769
C26   C     C_R   0.440871 0.429523 0.915100 0.078708
C27   C     C_R   0.670782 0.497272 0.503055 0.602132
C28   C     C_R   0.819495 0.600524 0.543167 -0.143386
C29   C     C_R   0.767588 0.492856 0.506966 0.025438
C30   C     C_R   0.806500 0.387558 0.455861 0.273278
C31   C     C_R   0.900592 0.387950 0.455655 0.029240
C32   C     C_R   0.953131 0.497679 0.493447 -0.015955
C33   C     C_3   0.648960 0.100176 0.077512 -0.042616
C34   C     C_R   0.035947 0.279826 0.431952 -0.081859
C35   C     C_3   0.753353 0.556168 0.879083 -0.066145
C36   C     C_3   0.751388 0.184938 0.458595 -0.095246
C37   C     C_3   0.251150 0.219177 0.395594 -0.061406
C38   C     C_R   0.088349 0.387446 0.467290 0.048960
C39   C     C_R   0.046787 0.498992 0.489834 -0.011303
C40   C     C_R   0.099043 0.610421 0.512143 -0.011513
C41   C     C_R   0.057468 0.720257 0.542805 0.203663
C42   C     C_R   0.964415 0.717604 0.555948 0.216248
Cu1   Cu    Cu3+1 0.499990 0.499990 0.640660 1.045456
Cu2   Cu    Cu3+1 0.500010 0.500010 0.359340 1.052520
H1    H     H_    0.785554 0.680743 0.574460 0.198458
H2    H     H_    0.234491 0.691737 0.515658 0.162653
H3    H     H_    0.680338 0.168883 0.155523 0.211437
H4    H     H_    0.703101 0.066470 0.015435 0.151389
H5    H     H_    0.617486 0.024970 0.134156 0.165417
H6    H     H_    0.798242 0.618956 0.949092 0.147823
H7    H     H_    0.721372 0.483452 0.939588 0.167429
H8    H     H_    0.795913 0.509935 0.806677 0.162453
H9    H     H_    0.795620 0.188172 0.556162 0.166053
H10   H     H_    0.771079 0.109740 0.389216 0.176745
H11   H     H_    0.682418 0.159345 0.482324 0.169677
H12   H     H_    0.495572 0.935037 0.984991 0.153924
H13   H     H_    0.320016 0.254946 0.381208 0.197106
H14   H     H_    0.206392 0.228089 0.300257 0.153150
H15   H     H_    0.254352 0.119817 0.413671 0.188037
H16   H     H_    0.451794 0.812315 0.778315 0.166001
H17   H     H_    0.466432 0.874793 0.287964 0.169898
H18   H     H_    0.623938 0.672581 0.275013 0.220213
H19   H     H_    0.707419 0.831398 0.923365 0.181098
H20   H     H_    0.391133 0.373287 0.851608 0.171806
H21   H     H_    0.907681 0.198514 0.378936 0.163070
H22   H     H_    0.066024 0.194091 0.409720 0.179680
N1    N     N_R   0.500860 0.501210 0.147910 -0.225411
N2    N     N_R   0.500890 0.501290 0.852040 -0.257351
O1    O     O_R   0.499990 0.319640 0.618810 -0.479213
O2    O     O_3   0.689662 0.622572 0.802057 -0.544616
O3    O     O_3   0.751509 0.295063 0.386716 -0.576655
O4    O     O_3   0.220600 0.277138 0.513785 -0.563931
O5    O     O_R   0.500000 0.319660 0.381240 -0.430236
O6    O     O_R   0.370250 0.499960 0.618800 -0.505714
O7    O     O_R   0.370260 0.499980 0.381230 -0.473901
O8    O     O_R   0.500000 0.680340 0.618760 -0.513755
O9    O     O_R   0.500010 0.680360 0.381190 -0.546854
O10   O     O_R   0.629740 0.500020 0.618770 -0.408665
O11   O     O_R   0.629750 0.500040 0.381200 -0.506715
O12   O     O_3   0.583407 0.156957 0.995779 -0.504367

loop_
_geom_bond_atom_site_label_1
_geom_bond_atom_site_label_2
_ccdc_geom_bond_type
C13   C14   A    
C22   N2    A    
Cu2   O5    S    
C37   H13   S    
C39   C40   A    
C37   O4    S    
C20   C21   A    
C16   O8    A    
Cu1   O10   S    
C30   C31   A    
C35   H8    S    
C30   O3    S    
C26   N2    A    
C25   N1    A    
C33   H4    S    
C9    C10   A    
C8    H12   S    
C28   C29   A    
C27   O11   A    
C32   C39   A    
C5    H2    S    
Cu2   O11   S    
C27   C29   S    
C33   H5    S    
C25   C26   A    
C2    C3    A    
C7    O12   S    
C37   H14   S    
Cu1   O1    S    
C3    C4    S    
Cu1   N2    S    
C7    C8    A    
C15   H17   S    
C2    O4    S    
Br1   C6    S    
Cu2   O9    S    
Br5   C42   S    
Br3   C19   S    
C18   C19   A    
Cu2   N1    S    
C36   H10   S    
C24   N1    A    
C4    O6    A    
C10   C11   A    
C1    O1    A    
C19   C20   A    
C9    H16   S    
Br2   C25   S    
C29   C30   A    
Cu1   O8    S    
C6    C11   A    
C35   H6    S    
C31   C32   A    
C3    C5    A    
C41   C42   A    
C37   H15   S    
C28   H1    S    
C6    C7    A    
C12   C28   A    
C36   H11   S    
C10   C17   A    
C1    C13   S    
C15   C17   A    
C21   O2    S    
C38   C39   A    
C1    O5    A    
C40   C41   A    
C34   H22   S    
C16   C17   S    
C2    C38   A    
C12   C42   A    
C36   H9    S    
C26   H20   S    
Br6   C14   S    
C4    O7    A    
Cu1   O6    S    
C16   O9    A    
C22   C24   A    
C12   C32   A    
C35   H7    S    
C35   O2    S    
C33   H3    S    
C23   C34   A    
C11   C13   A    
C27   O10   A    
C18   C24   A    
C18   H18   S    
C34   C38   A    
C14   C15   A    
C36   O3    S    
Cu1   Cu2   S    
C23   C31   A    
C21   C22   A    
C20   H19   S    
C8    C9    A    
C5    C40   A    
C33   O12   S    
Cu2   O7    S    
C23   H21   S    
Br4   C41   S    
