data_mof_unit_42106.cif
_audit_creation_date              2012-12-10T18:50:21-0500
_audit_creation_method            fapswitch 2.2
_symmetry_space_group_name_H-M    P1
_symmetry_Int_Tables_number       1
_space_group_crystal_system       triclinic
_cell_length_a                    15.871878
_cell_length_b                    19.458549
_cell_length_c                    18.128643
_cell_angle_alpha                 89.986045
_cell_angle_beta                  90.778959
_cell_angle_gamma                 90.030662
_cell_volume                      5598.39907864

loop_
_atom_site_label
_atom_site_type_symbol
_atom_type_description
_atom_site_fract_x
_atom_site_fract_y
_atom_site_fract_z
_atom_type_partial_charge
C1    C     C_R   0.499975 0.367507 0.500030 0.788532
C2    C     C_R   0.500003 0.632498 0.499972 0.785381
C3    C     C_R   0.500332 0.815946 0.433144 -0.171390
C4    C     C_R   0.498523 0.184092 0.566885 -0.170561
C5    C     C_R   0.499849 0.852252 0.500008 0.108631
C6    C     C_R   0.499917 0.147794 0.500044 0.107882
C7    C     C_R   0.499393 0.815891 0.566856 -0.171207
C8    C     C_R   0.501343 0.184116 0.433202 -0.170497
C9    C     C_R   0.499447 0.744329 0.566864 -0.186754
C10   C     C_R   0.501420 0.255676 0.433171 -0.184989
C11   C     C_R   0.499947 0.707982 0.499977 -0.029816
C12   C     C_R   0.499963 0.292033 0.500038 -0.029592
C13   C     C_R   0.551474 0.964266 0.549949 -0.179433
C14   C     C_R   0.448281 0.035831 0.450108 -0.179084
C15   C     C_R   0.551465 0.035827 0.549977 -0.176777
C16   C     C_R   0.448235 0.964269 0.450118 -0.177037
C17   C     C_R   0.499885 0.072143 0.500045 0.099137
C18   C     C_R   0.499848 0.927931 0.500027 0.099169
C19   C     C_R   0.455578 0.451145 0.720476 -0.042686
C20   C     C_R   0.545074 0.451598 0.279468 -0.041540
C21   C     C_R   0.456255 0.448895 0.798125 0.399511
C22   C     C_R   0.544968 0.449840 0.201796 0.394493
C23   C     C_R   0.339662 0.500214 0.499506 0.828558
C24   C     C_R   0.660331 0.500285 0.500495 0.828468
C25   C     C_R   0.500421 0.499842 0.838597 0.046753
C26   C     C_R   0.500537 0.500664 0.161440 0.042446
C27   C     C_R   0.546258 0.549070 0.799035 -0.387396
C28   C     C_R   0.453973 0.549331 0.201026 -0.386406
C29   C     C_R   0.545474 0.548126 0.721611 0.071002
C30   C     C_R   0.454347 0.547996 0.278442 0.066533
C31   C     C_R   0.576052 0.503450 0.961487 -0.373352
C32   C     C_R   0.424885 0.502452 0.038602 -0.378822
C33   C     C_R   0.577621 0.504609 0.039105 0.525054
C34   C     C_R   0.423324 0.502686 0.960955 0.503408
C35   C     C_R   0.501341 0.502807 0.078682 -0.035677
C36   C     C_R   0.499599 0.501995 0.921391 -0.031811
C37   C     C_3   0.975401 0.500086 0.569642 0.413801
C38   C     C_3   0.024536 0.505886 0.430214 0.402298
C39   C     C_3   0.028890 0.443706 0.532567 -0.459704
C40   C     C_3   0.970919 0.562274 0.467419 -0.475388
C41   C     C_1   0.250099 0.500969 0.498339 -0.176944
C42   C     C_1   0.749875 0.501557 0.501655 -0.176061
C43   C     C_3   0.029504 0.557320 0.536292 0.399458
C44   C     C_3   0.970514 0.448651 0.463631 0.402847
C45   C     C_3   0.083159 0.501959 0.498497 -0.033476
C46   C     C_3   0.916786 0.503893 0.501408 -0.033739
C47   C     C_1   0.174653 0.501599 0.497814 0.067476
C48   C     C_1   0.825306 0.502771 0.502147 0.068502
C49   C     C_R   0.500374 0.744382 0.433105 -0.188345
C50   C     C_R   0.498491 0.255653 0.566909 -0.186012
Cu1   Cu    Cu3+1 0.499980 0.500000 0.573360 0.944854
Cu2   Cu    Cu3+1 0.500020 0.500000 0.426640 0.942873
H1    H     H_    0.053661 0.396239 0.558937 0.159699
H2    H     H_    0.945986 0.609927 0.441546 0.155560
H3    H     H_    0.420162 0.413018 0.689634 0.139040
H4    H     H_    0.580701 0.413586 0.310268 0.145129
H5    H     H_    0.581699 0.588580 0.827893 0.158311
H6    H     H_    0.418252 0.588673 0.172198 0.159343
H7    H     H_    0.581097 0.586279 0.691842 0.132834
H8    H     H_    0.418290 0.585797 0.308258 0.136992
H9    H     H_    0.635199 0.502713 0.932373 0.175953
H10   H     H_    0.365764 0.500712 0.067719 0.178798
H11   H     H_    0.500968 0.717647 0.380719 0.145592
H12   H     H_    0.497073 0.282397 0.619275 0.142616
H13   H     H_    0.501727 0.842928 0.380915 0.125155
H14   H     H_    0.496401 0.157093 0.619080 0.125520
H15   H     H_    0.497966 0.842827 0.619096 0.125537
H16   H     H_    0.503449 0.157139 0.381009 0.125626
H17   H     H_    0.498880 0.717554 0.619242 0.146172
H18   H     H_    0.502857 0.282439 0.380802 0.142648
H19   H     H_    0.592733 0.937315 0.588215 0.126743
H20   H     H_    0.407089 0.062815 0.411810 0.127179
H21   H     H_    0.592674 0.062808 0.588278 0.128474
H22   H     H_    0.406969 0.937319 0.411842 0.128042
N1    N     N_R   0.499990 0.500020 0.683620 -0.189008
N2    N     N_R   0.500010 0.499980 0.316380 -0.191416
O1    O     O_R   0.499960 0.400180 0.561980 -0.591317
O2    O     O_R   0.500040 0.599820 0.438020 -0.591438
O3    O     O_R   0.500000 0.400190 0.438070 -0.590853
O4    O     O_R   0.500000 0.599810 0.561930 -0.590046
O5    O     O_R   0.379060 0.499990 0.561940 -0.571887
O6    O     O_R   0.620940 0.500010 0.438060 -0.572655
O7    O     O_R   0.379100 0.500000 0.438040 -0.572229
O8    O     O_R   0.620900 0.500000 0.561960 -0.571821
O9    O     O_3   0.411956 0.397871 0.833687 -0.550034
C51   C     C_3   0.467301 0.342736 0.848866 0.059901
H23   H     H_    0.525859 0.360240 0.877964 0.141376
H24   H     H_    0.484510 0.316279 0.796727 0.125755
C52   C     C_3   0.423538 0.291436 0.898726 -0.760135
H25   H     H_    0.365336 0.271836 0.871285 0.247816
H26   H     H_    0.466259 0.247536 0.910713 0.187664
H27   H     H_    0.406743 0.316578 0.951546 0.253966
O10   O     O_3   0.590067 0.399463 0.166044 -0.548643
C53   C     C_3   0.535647 0.343664 0.150903 0.059828
H28   H     H_    0.476510 0.360521 0.122285 0.140774
H29   H     H_    0.519397 0.316698 0.203009 0.126131
C54   C     C_3   0.579925 0.293237 0.100453 -0.758133
H30   H     H_    0.638716 0.274261 0.127398 0.249504
H31   H     H_    0.537929 0.248838 0.088487 0.187130
H32   H     H_    0.595785 0.318895 0.047664 0.252957
O11   O     O_3   0.654727 0.503048 0.075521 -0.573036
C55   C     C_3   0.675970 0.569443 0.101703 0.065076
H33   H     H_    0.703554 0.563493 0.158006 0.172567
H34   H     H_    0.621094 0.605005 0.107007 0.113964
C56   C     C_3   0.742161 0.601597 0.051755 -0.357167
H35   H     H_    0.797080 0.566424 0.047730 0.236543
H36   H     H_    0.714838 0.609026 0.995560 0.207868
C57   C     C_3   0.772149 0.670832 0.081645 -0.928398
H37   H     H_    0.718489 0.707283 0.084856 0.254956
H38   H     H_    0.820124 0.692687 0.044295 0.257604
H39   H     H_    0.801021 0.664472 0.137387 0.253482
O12   O     O_3   0.346545 0.498226 0.924499 -0.567140
C58   C     C_3   0.319808 0.564854 0.904427 0.042544
H40   H     H_    0.368247 0.591674 0.870965 0.138242
H41   H     H_    0.306577 0.595769 0.954695 0.129977
C59   C     C_3   0.239040 0.558700 0.858061 -0.293522
H42   H     H_    0.251295 0.526381 0.808781 0.233260
H43   H     H_    0.189598 0.533255 0.891248 0.219576
C60   C     C_3   0.207063 0.628844 0.832696 -0.941677
H44   H     H_    0.193486 0.661889 0.881048 0.254124
H45   H     H_    0.148110 0.622144 0.799802 0.253570
H46   H     H_    0.254637 0.654471 0.797688 0.263353
O13   O     O_3   0.944099 0.498627 0.642099 -0.612016
C61   C     C_3   0.011034 0.495109 0.694375 0.083706
H47   H     H_    0.001849 0.536937 0.735198 0.157832
H48   H     H_    0.075064 0.502727 0.670920 0.157905
C62   C     C_3   0.008222 0.425995 0.734352 -0.351100
H49   H     H_    0.945704 0.419480 0.760369 0.232048
H50   H     H_    0.016874 0.383766 0.693926 0.218167
C63   C     C_3   0.076983 0.421222 0.793796 -0.912484
H51   H     H_    0.140202 0.426708 0.768889 0.261854
H52   H     H_    0.073528 0.370446 0.821542 0.262497
H53   H     H_    0.068300 0.462085 0.835767 0.252293
O14   O     O_3   0.055484 0.506378 0.357593 -0.609457
C64   C     C_3   0.988956 0.521402 0.307696 0.069518
H54   H     H_    0.970827 0.576428 0.312740 0.143748
H55   H     H_    0.932806 0.488461 0.317852 0.175648
C65   C     C_3   0.018266 0.508282 0.229047 -0.329044
H56   H     H_    0.074244 0.540752 0.217616 0.226351
H57   H     H_    0.036664 0.453434 0.223366 0.223017
C66   C     C_3   0.948797 0.524735 0.172661 -0.926218
H58   H     H_    0.892586 0.492050 0.182282 0.268925
H59   H     H_    0.971923 0.514601 0.116169 0.258831
H60   H     H_    0.930444 0.579690 0.176468 0.254439
O15   O     O_3   0.933054 0.393859 0.424182 -0.574784
C67   C     C_3   0.995585 0.346220 0.404121 0.080365
H61   H     H_    0.019321 0.318215 0.453704 0.144199
H62   H     H_    0.049319 0.371647 0.376146 0.169705
C68   C     C_3   0.957370 0.294204 0.350781 -0.788540
H63   H     H_    0.933878 0.320778 0.300312 0.250440
H64   H     H_    0.005829 0.256011 0.334937 0.195631
H65   H     H_    0.904190 0.266925 0.377186 0.254960
O16   O     O_3   0.067041 0.611968 0.575928 -0.575973
C69   C     C_3   0.004823 0.660312 0.594792 0.076785
H66   H     H_    0.950313 0.635526 0.622298 0.162598
H67   H     H_    0.982252 0.688144 0.544696 0.147332
C70   C     C_3   0.042867 0.712475 0.648060 -0.797702
H68   H     H_    0.097002 0.738898 0.622147 0.257136
H69   H     H_    0.994726 0.751349 0.662740 0.197298
H70   H     H_    0.064944 0.686213 0.699150 0.241603

loop_
_geom_bond_atom_site_label_1
_geom_bond_atom_site_label_2
_ccdc_geom_bond_type
C64   C65   S    
C38   C40   S    
O10   C53   S    
C49   H11   S    
C27   C29   A    
C34   O12   S    
C31   H9    S    
C20   H4    S    
C53   H29   S    
Cu1   O1    S    
C54   H30   S    
C3    C49   A    
C64   H54   S    
O9    C51   S    
C57   H37   S    
C40   C46   S    
C56   H36   S    
C70   H68   S    
C23   O7    A    
C13   C18   A    
C16   H22   S    
C50   H12   S    
C19   C21   A    
Cu1   N1    S    
C58   H40   S    
C68   H64   S    
C51   H24   S    
C1    O1    A    
C59   H42   S    
C20   N2    A    
C55   C56   S    
C64   H55   S    
C24   O6    A    
Cu1   O4    S    
C38   C45   S    
C37   O13   S    
C40   C43   S    
O16   C69   S    
C29   H7    S    
C57   H38   S    
C30   H8    S    
C31   C33   A    
Cu2   O6    S    
C52   H26   S    
Cu2   O3    S    
Cu1   O5    S    
C69   H67   S    
C39   C45   S    
C58   C59   S    
C45   C47   S    
C70   H69   S    
C14   C17   A    
C3    H13   S    
C1    C12   S    
Cu2   O2    S    
C2    C11   S    
O12   C58   S    
C54   H31   S    
O11   C55   S    
C44   C46   S    
O15   C67   S    
C67   H62   S    
C60   H45   S    
C37   C39   S    
C56   C57   S    
C21   O9    S    
Cu1   Cu2   S    
C32   C35   A    
O13   C61   S    
C69   C70   S    
C4    C6    A    
C27   H5    S    
C68   H65   S    
C5    C7    A    
C51   H23   S    
C6    C8    A    
C5    C18   S    
C13   H19   S    
C53   C54   S    
C3    C5    A    
C65   C66   S    
C4    C50   A    
C32   C34   A    
C37   C43   S    
Cu2   O7    S    
C63   H52   S    
C62   H50   S    
C38   C44   S    
C11   C49   A    
C67   C68   S    
C30   N2    A    
C44   O15   S    
C41   C47   T    
C53   H28   S    
C42   C48   T    
C52   H27   S    
C55   H34   S    
C24   C42   S    
C9    C11   A    
C69   H66   S    
O14   C64   S    
C10   C12   A    
C61   C62   S    
C29   N1    A    
C10   H18   S    
C16   C18   A    
C15   H21   S    
C20   C22   A    
C8    H16   S    
C70   H70   S    
C40   H2    S    
C13   C15   A    
C1    O3    A    
C22   O10   S    
C14   C16   A    
C66   H60   S    
C63   H53   S    
C62   H49   S    
C52   H25   S    
C54   H32   S    
C2    O2    A    
C61   H48   S    
C67   H61   S    
C60   H46   S    
C19   H3    S    
C15   C17   A    
C6    C17   S    
C21   C25   A    
C23   O5    A    
C14   H20   S    
C9    H17   S    
Cu2   N2    S    
C51   C52   S    
C12   C50   A    
C60   H44   S    
C57   H39   S    
C39   C44   S    
C65   H57   S    
C28   H6    S    
C25   C27   A    
C56   H35   S    
C26   C28   A    
C23   C41   S    
C59   C60   S    
C33   O11   S    
C66   H59   S    
C63   H51   S    
C24   O8    A    
C62   C63   S    
C32   H10   S    
C43   C45   S    
C43   O16   S    
C66   H58   S    
C4    H14   S    
C39   H1    S    
C19   N1    A    
C28   C30   A    
C33   C35   A    
C59   H43   S    
C34   C36   A    
C38   O14   S    
C55   H33   S    
C2    O4    A    
C65   H56   S    
C25   C36   S    
C7    H15   S    
C46   C48   S    
C7    C9    A    
C26   C35   S    
C8    C10   A    
C22   C26   A    
C31   C36   A    
C37   C46   S    
C68   H63   S    
Cu1   O8    S    
C61   H47   S    
C58   H41   S    
