data_mof_unit_65767.cif
_audit_creation_date              2012-12-10T16:42:47-0500
_audit_creation_method            fapswitch 2.2
_symmetry_space_group_name_H-M    P1
_symmetry_Int_Tables_number       1
_space_group_crystal_system       triclinic
_cell_length_a                    18.902419
_cell_length_b                    18.681528
_cell_length_c                    19.51216
_cell_angle_alpha                 109.941715
_cell_angle_beta                  110.50825
_cell_angle_gamma                 108.626183
_cell_volume                      5259.19147229

loop_
_atom_site_label
_atom_site_type_symbol
_atom_type_description
_atom_site_fract_x
_atom_site_fract_y
_atom_site_fract_z
_atom_type_partial_charge
C1    C     C_R   0.387553 0.381558 0.503554 0.862321
C2    C     C_R   0.762539 0.567478 0.738468 -0.115229
C3    C     C_R   0.807866 0.496049 0.812150 -0.093129
C4    C     C_R   0.732347 0.413636 0.744612 -0.021487
C5    C     C_R   0.664627 0.410773 0.680762 -0.087372
C6    C     C_R   0.681283 0.489895 0.678064 -0.100475
C7    C     C_R   0.722535 0.333649 0.739732 -0.250536
C8    C     C_R   0.641191 0.258307 0.693518 0.027932
C9    C     C_R   0.568252 0.257116 0.636346 0.368486
C10   C     C_R   0.584944 0.328355 0.621606 0.334056
C11   C     C_2   0.263738 0.253934 0.580237 -0.001408
C12   C     C_R   0.614717 0.495227 0.616477 0.882992
C13   C     C_2   0.183134 0.195283 0.509381 0.196416
C14   C     C_2   0.329485 0.325408 0.581720 0.435889
C15   C     C_2   0.334206 0.311785 0.511195 -0.340739
C16   C     C_2   0.184586 0.516625 0.258465 0.197375
C17   C     C_2   0.185339 0.510544 0.187860 -0.330356
C18   C     C_2   0.258904 0.526696 0.328627 -0.172026
C19   C     C_2   0.308966 0.493426 0.314524 -0.363921
C20   C     C_2   0.733852 0.758711 0.428568 -0.279082
C21   C     C_2   0.820075 0.791447 0.473683 0.054309
C22   C     C_2   0.672733 0.680852 0.423102 0.394242
C23   C     C_R   0.612176 0.618889 0.496341 0.820838
C24   C     C_2   0.670371 0.691398 0.494114 0.237168
C25   C     C_R   0.994426 0.380991 0.878384 0.822501
C26   C     C_R   0.877794 0.499485 0.879061 0.831874
C27   C     C_R   0.999585 0.618549 0.115923 0.914983
C28   C     C_R   0.115710 0.503509 0.117601 0.874246
C29   C     C_R   0.003618 0.121949 0.616226 0.861699
C30   C     C_R   0.117825 0.121638 0.504195 0.832105
C31   C     C_R   0.001736 0.882949 0.384193 0.893257
C32   C     C_R   0.882731 0.876574 0.493528 0.783653
C33   C     C_2   0.976901 0.245499 0.670408 0.499196
C34   C     C_R   0.380011 0.498724 0.382070 0.831056
C35   C     C_2   0.015455 0.198466 0.683316 -0.337791
C36   C     C_2   0.994059 0.319403 0.746292 -0.335400
C37   C     C_2   0.982887 0.308654 0.807178 -0.024920
C38   C     C_2   0.071929 0.831984 0.309875 0.153899
C39   C     C_2   0.003236 0.815392 0.321024 -0.353341
C40   C     C_2   0.074962 0.760586 0.248803 0.182292
C41   C     C_2   0.000968 0.687154 0.181401 -0.367698
C42   C     C_R   0.792821 0.638205 0.725540 0.107448
C43   C     C_R   0.857764 0.722221 0.794586 0.408569
C44   C     C_R   0.896424 0.733671 0.875946 -0.352264
C45   C     C_R   0.878293 0.660217 0.885901 0.432549
C46   C     C_R   0.816818 0.574500 0.813477 -0.075165
Cu1   Cu    Cu3+1 0.500390 0.438990 0.439360 0.994260
Cu2   Cu    Cu3+1 0.499610 0.561010 0.560640 0.985454
Cu3   Cu    Cu3+1 0.935830 0.439030 0.996840 1.044918
Cu4   Cu    Cu3+1 0.057850 0.561040 0.996790 1.017149
Cu5   Cu    Cu3+1 0.061410 0.000010 0.561410 1.021159
Cu6   Cu    Cu3+1 0.938590 0.999990 0.438590 0.969778
H1    H     H_    0.300267 0.245419 0.457631 0.178997
H2    H     H_    0.243372 0.519454 0.184450 0.129198
H3    H     H_    0.269546 0.557987 0.392291 0.191345
H4    H     H_    0.294193 0.455509 0.250147 0.162417
H5    H     H_    0.708191 0.796323 0.407110 0.124510
H6    H     H_    0.059396 0.217577 0.748145 0.157107
H7    H     H_    0.011471 0.382292 0.749510 0.167523
H8    H     H_    0.948529 0.749795 0.288009 0.124933
H9    H     H_    0.937517 0.676700 0.170821 0.118134
H10   H     H_    0.942356 0.798972 0.930943 0.169251
H11   H     H_    0.777749 0.329117 0.774882 0.210878
O1    O     O_R   0.411310 0.359450 0.448800 -0.590921
O2    O     O_R   0.048900 0.462510 0.908320 -0.601821
O3    O     O_R   0.855710 0.448510 0.907250 -0.598238
O4    O     O_R   0.958760 0.551540 0.907200 -0.557963
O5    O     O_R   0.944780 0.537560 0.085320 -0.579747
O6    O     O_R   0.047820 0.640590 0.085270 -0.534959
O7    O     O_R   0.034920 0.448530 0.086440 -0.550411
O8    O     O_R   0.137970 0.551560 0.086390 -0.584435
O9    O     O_R   0.051300 0.089020 0.640330 -0.582519
O10   O     O_R   0.947570 0.089010 0.536620 -0.555369
O11   O     O_R   0.140880 0.089030 0.551840 -0.565756
O12   O     O_R   0.410660 0.462490 0.551220 -0.554025
O13   O     O_R   0.037150 0.089020 0.448130 -0.572458
O14   O     O_R   0.052430 0.910990 0.463380 -0.551344
O15   O     O_R   0.948700 0.910980 0.359670 -0.587852
O16   O     O_R   0.962850 0.910980 0.551870 -0.563987
O17   O     O_R   0.859120 0.910970 0.448160 -0.608549
O18   O     O_R   0.589930 0.448490 0.538390 -0.552715
O19   O     O_R   0.589280 0.551530 0.640800 -0.595328
O20   O     O_R   0.589340 0.537510 0.448780 -0.534130
O21   O     O_R   0.588690 0.640550 0.551200 -0.586921
O22   O     O_R   0.410720 0.448470 0.359200 -0.589337
O23   O     O_R   0.410070 0.551510 0.461610 -0.591044
O24   O     O_R   0.945860 0.359480 0.908360 -0.551741
O25   O     O_3   0.479477 0.196550 0.595802 -0.616145
C47   C     C_3   0.455434 0.111327 0.582546 0.117181
H12   H     H_    0.383837 0.077032 0.555225 0.194307
H13   H     H_    0.480643 0.111727 0.642901 0.181604
C48   C     C_3   0.471994 0.057732 0.516485 -0.396569
H14   H     H_    0.430894 0.048441 0.453788 0.227891
H15   H     H_    0.541019 0.092888 0.534875 0.231335
C49   C     C_3   0.449076 0.967286 0.506471 -0.813894
H16   H     H_    0.489692 0.973595 0.567646 0.269216
H17   H     H_    0.461321 0.930200 0.458124 0.253577
H18   H     H_    0.379184 0.929790 0.485146 0.279385
O26   O     O_3   0.157722 0.203957 0.438045 -0.613450
C50   C     C_3   0.127527 0.264861 0.448826 0.058880
H19   H     H_    0.174568 0.327234 0.511270 0.152837
H20   H     H_    0.063657 0.235950 0.444580 0.171262
C51   C     C_3   0.116001 0.286492 0.378194 -0.329805
H21   H     H_    0.179039 0.313065 0.380551 0.220490
H22   H     H_    0.067193 0.225497 0.315358 0.236374
C52   C     C_3   0.085828 0.354060 0.387354 -0.856394
H23   H     H_    0.022399 0.328682 0.384325 0.260483
H24   H     H_    0.077646 0.367642 0.334765 0.277471
H25   H     H_    0.134935 0.416471 0.448815 0.261926
O27   O     O_3   0.382595 0.406929 0.655963 -0.585560
C53   C     C_3   0.465836 0.416965 0.700016 0.121193
H26   H     H_    0.503230 0.432712 0.669428 0.152826
H27   H     H_    0.461754 0.356427 0.700989 0.169327
C54   C     C_3   0.515043 0.492440 0.791786 -0.312101
H28   H     H_    0.519912 0.553492 0.792180 0.229961
H29   H     H_    0.478443 0.476673 0.823314 0.241539
C55   C     C_3   0.606567 0.508143 0.841844 -0.931235
H30   H     H_    0.603821 0.447133 0.839881 0.273630
H31   H     H_    0.638663 0.560077 0.909212 0.252664
H32   H     H_    0.646164 0.530222 0.814992 0.258986
I1    I     I_    0.084248 0.524507 0.280869 -0.329951
I2    I     I_    0.873505 0.714975 0.505336 -0.274750
O28   O     O_3   0.621654 0.598589 0.349254 -0.591853
C56   C     C_3   0.574378 0.602981 0.277757 0.076033
H33   H     H_    0.547301 0.539391 0.220166 0.183254
H34   H     H_    0.616392 0.654302 0.271090 0.140338
C57   C     C_3   0.498015 0.614886 0.279040 -0.415733
H35   H     H_    0.457352 0.562369 0.285285 0.231359
H36   H     H_    0.523163 0.679431 0.334501 0.193325
C58   C     C_3   0.441444 0.610631 0.197977 -0.870719
H37   H     H_    0.480811 0.662895 0.190622 0.256309
H38   H     H_    0.387686 0.620593 0.201483 0.261591
H39   H     H_    0.412756 0.545466 0.141561 0.257099
I3    I     I_    0.784239 0.609200 0.607806 -0.276884
O29   O     O_3   0.719616 0.774635 0.566422 -0.595830
C59   C     C_3   0.670231 0.817938 0.563625 0.043292
H40   H     H_    0.630426 0.800873 0.592068 0.183303
H41   H     H_    0.625744 0.800183 0.497577 0.095821
C60   C     C_3   0.732105 0.917110 0.615319 -0.310613
H42   H     H_    0.776230 0.937182 0.681992 0.251926
H43   H     H_    0.772498 0.934784 0.587544 0.214588
C61   C     C_3   0.681580 0.966570 0.615116 -0.854537
H44   H     H_    0.636783 0.947149 0.548966 0.243651
H45   H     H_    0.727681 0.038221 0.651293 0.297791
H46   H     H_    0.643155 0.952355 0.645453 0.271275
O30   O     O_3   0.932853 0.232358 0.589408 -0.596023
C62   C     C_3   0.850223 0.224728 0.569358 0.079637
H47   H     H_    0.826727 0.233573 0.513729 0.166407
H48   H     H_    0.852768 0.277070 0.621085 0.137211
C63   C     C_3   0.784590 0.133157 0.544433 -0.331107
H49   H     H_    0.780573 0.082321 0.490362 0.233822
H50   H     H_    0.806477 0.122341 0.598857 0.234945
C64   C     C_3   0.694400 0.122899 0.518669 -0.936543
H51   H     H_    0.696969 0.172764 0.572201 0.269613
H52   H     H_    0.648521 0.056476 0.501588 0.265850
H53   H     H_    0.669882 0.130676 0.462571 0.263142
I4    I     I_    0.925153 0.182515 0.795928 -0.410584
I5    I     I_    0.178054 0.963658 0.378064 -0.339678
I6    I     I_    0.200106 0.774752 0.274742 -0.318896
O31   O     O_3   0.876210 0.793057 0.782209 -0.569185
C65   C     C_3   0.961645 0.829621 0.796998 0.072868
H54   H     H_    0.974016 0.777715 0.763228 0.162406
H55   H     H_    0.010108 0.866632 0.866408 0.134893
C66   C     C_3   0.972501 0.892933 0.763402 -0.281089
H56   H     H_    0.921184 0.857602 0.695132 0.269540
H57   H     H_    0.964402 0.947396 0.799226 0.227096
C67   C     C_3   0.061759 0.931207 0.772266 -0.869340
H58   H     H_    0.114210 0.967671 0.840140 0.249600
H59   H     H_    0.067412 0.977237 0.747891 0.273730
H60   H     H_    0.070098 0.877956 0.734757 0.267762
O32   O     O_3   0.914699 0.673609 0.967221 -0.591737
C68   C     C_3   0.859466 0.682540 0.999414 0.033085
H61   H     H_    0.849097 0.637656 0.024732 0.153822
H62   H     H_    0.793099 0.663463 0.950813 0.133030
C69   C     C_3   0.903130 0.777291 0.071312 -0.333482
H63   H     H_    0.969710 0.797531 0.119349 0.246089
H64   H     H_    0.909070 0.821732 0.045121 0.218673
C70   C     C_3   0.850668 0.787420 0.114574 -0.884841
H65   H     H_    0.784854 0.770607 0.068122 0.253937
H66   H     H_    0.884691 0.856492 0.166965 0.275867
H67   H     H_    0.843856 0.743956 0.141774 0.248927
I7    I     I_    0.649825 0.160746 0.724454 -0.427844
O33   O     O_3   0.521837 0.317091 0.549298 -0.610947
C71   C     C_3   0.506556 0.249945 0.473873 0.139228
H68   H     H_    0.458928 0.247465 0.418798 0.180372
H69   H     H_    0.474397 0.184323 0.465705 0.158299
C72   C     C_3   0.588699 0.265335 0.467507 -0.416237
H70   H     H_    0.621727 0.331494 0.476612 0.263876
H71   H     H_    0.635272 0.260846 0.517447 0.203115
C73   C     C_3   0.565319 0.196934 0.380884 -0.915281
H72   H     H_    0.532605 0.129786 0.370153 0.256841
H73   H     H_    0.625543 0.208432 0.378442 0.264276
H74   H     H_    0.521345 0.201832 0.329429 0.262162
I8    I     I_    0.297100 0.261333 0.700271 -0.351034

loop_
_geom_bond_atom_site_label_1
_geom_bond_atom_site_label_2
_ccdc_geom_bond_type
C19   H4    S    
O32   C68   S    
C73   H72   S    
Cu3   O5    S    
O28   C56   S    
Cu3   O24   S    
C40   I6    S    
C49   H16   S    
C61   H46   S    
C11   I8    S    
C41   H9    S    
C70   H67   S    
O33   C71   S    
C36   H7    S    
C57   H36   S    
C54   H28   S    
C49   H18   S    
O29   C59   S    
C69   H64   S    
C45   C46   A    
C2    C46   A    
C23   O20   A    
C35   H6    S    
C26   O4    A    
C15   H1    S    
C22   C24   D    
C36   C37   D    
C62   H48   S    
Cu4   O6    S    
C55   H31   S    
C9    O25   S    
C6    C12   S    
C5    C6    A    
C30   O11   A    
C11   C14   S    
C11   C13   D    
C29   O10   A    
C52   H23   S    
C25   O24   A    
C33   C36   S    
C71   H68   S    
C18   C19   D    
C34   O23   A    
C37   I4    S    
C21   I2    S    
O27   C53   S    
C50   H19   S    
C72   C73   S    
C27   O5    A    
C73   H74   S    
C25   C37   S    
C51   H22   S    
C62   H47   S    
C31   C39   S    
C16   C17   D    
C63   C64   S    
C23   C24   S    
Cu5   O11   S    
C1    C15   S    
Cu1   O20   S    
C64   H52   S    
C9    C10   A    
C27   O6    A    
C68   C69   S    
C29   O9    A    
C64   H51   S    
C10   O33   S    
Cu2   O12   S    
C53   C54   S    
C2    C6    A    
C4    C7    A    
Cu6   O15   S    
C45   O32   S    
C50   H20   S    
C65   H55   S    
C68   H62   S    
C31   O14   A    
C67   H60   S    
C3    C26   S    
C21   C32   S    
Cu3   O3    S    
Cu5   Cu6   S    
C26   O3    A    
Cu1   Cu2   S    
C70   H65   S    
C13   C30   S    
C22   O28   S    
C62   C63   S    
C25   O2    A    
C38   I5    S    
C67   H59   S    
Cu6   O10   S    
C23   O21   A    
C55   H32   S    
Cu1   O1    S    
C69   C70   S    
C8    C9    A    
C44   H10   S    
C48   C49   S    
Cu2   O21   S    
C47   C48   S    
C34   O22   A    
C59   C60   S    
C13   O26   S    
C58   H38   S    
C43   C44   A    
Cu5   O14   S    
C32   O17   A    
C30   O13   A    
C27   C41   S    
C70   H66   S    
O26   C50   S    
C14   C15   D    
C48   H15   S    
C12   O19   A    
C53   H27   S    
Cu4   O8    S    
C20   C21   D    
C64   H53   S    
C7    H11   S    
C1    O12   A    
C18   H3    S    
C56   C57   S    
C24   O29   S    
C59   H41   S    
C40   C41   D    
C20   C22   S    
C43   O31   S    
Cu3   O7    S    
C63   H50   S    
C28   O8    A    
C47   H13   S    
C42   C43   A    
C57   H35   S    
C1    O1    A    
Cu1   O22   S    
C67   H58   S    
C65   C66   S    
C68   H61   S    
C31   O15   A    
C56   H34   S    
O30   C62   S    
Cu4   O4    S    
C8    I7    S    
C14   O27   S    
C16   I1    S    
C66   H56   S    
C73   H73   S    
C53   H26   S    
C61   H44   S    
C17   C28   S    
C66   C67   S    
C28   O7    A    
C44   C45   A    
C4    C5    A    
Cu6   O13   S    
C19   C34   S    
C54   H29   S    
C60   H42   S    
C49   H17   S    
C29   C35   S    
C3    C46   A    
C71   H69   S    
C71   C72   S    
C42   I3    S    
O31   C65   S    
C66   H57   S    
C58   H37   S    
C20   H5    S    
C57   C58   S    
C72   H70   S    
C69   H63   S    
C65   H54   S    
C55   H30   S    
C32   O16   A    
C38   C40   S    
C60   H43   S    
C33   C35   D    
C38   C39   D    
C52   H24   S    
C2    C42   A    
C39   H8    S    
C48   H14   S    
C60   C61   S    
Cu2   O19   S    
C12   O18   A    
C51   C52   S    
Cu2   O23   S    
Cu1   O18   S    
C50   C51   S    
Cu4   O2    S    
Cu5   O16   S    
C72   H71   S    
C54   C55   S    
C7    C8    A    
C33   O30   S    
C58   H39   S    
C5    C10   A    
O25   C47   S    
C16   C18   S    
Cu3   Cu4   S    
Cu5   O9    S    
C51   H21   S    
C63   H49   S    
C59   H40   S    
C47   H12   S    
Cu6   O17   S    
C17   H2    S    
C61   H45   S    
C3    C4    A    
C56   H33   S    
C52   H25   S    
