data_mof_unit_58677.cif
_audit_creation_date              2013-03-05T16:04:00-0500
_audit_creation_method            fapswitch 2.2
_symmetry_space_group_name_H-M    P1
_symmetry_Int_Tables_number       1
_space_group_crystal_system       triclinic
_cell_length_a                    13.043251
_cell_length_b                    10.880916
_cell_length_c                    9.483313
_cell_angle_alpha                 89.248394
_cell_angle_beta                  95.903569
_cell_angle_gamma                 89.860123
_cell_volume                      1338.63268109

loop_
_atom_site_label
_atom_site_type_symbol
_atom_site_description
_atom_site_fract_x
_atom_site_fract_y
_atom_site_fract_z
_atom_type_partial_charge
O1    O     O_R   0.499990 0.319660 0.618740 -0.542682
O2    O     O_R   0.500010 0.680340 0.381260 -0.529571
O3    O     O_R   0.499990 0.319630 0.381170 -0.617743
O4    O     O_R   0.500010 0.680370 0.618830 -0.601822
C1    C     C_R   0.501783 0.261997 0.501620 0.804737
C2    C     C_R   0.498288 0.738024 0.498413 0.852599
O5    O     O_R   0.349000 0.499990 0.599490 -0.556238
O6    O     O_R   0.651000 0.500010 0.400510 -0.577036
O7    O     O_R   0.348990 0.499960 0.361920 -0.549530
O8    O     O_R   0.651010 0.500040 0.638080 -0.537300
C3    C     C_R   0.300393 0.499739 0.473450 0.851924
C4    C     C_R   0.699521 0.491308 0.526001 0.845974
Cu1   Cu    Cu3+1 0.500000 0.500020 0.640660 1.041085
Cu2   Cu    Cu3+1 0.500000 0.499980 0.359340 1.021568
C5    C     C_R   0.812170 0.472473 0.539246 -0.286892
C6    C     C_R   0.187534 0.495146 0.456488 -0.283535
C7    C     C_R   0.023843 0.519639 0.313115 -0.211384
C8    C     C_R   0.976248 0.439920 0.681247 -0.206665
C9    C     C_R   0.130423 0.532733 0.327875 0.250110
C10   C     C_R   0.869371 0.451501 0.672918 0.281421
C11   C     C_R   0.135384 0.448158 0.568952 0.431120
C12   C     C_R   0.864839 0.476762 0.415534 0.399865
C13   C     C_R   0.028158 0.458173 0.560862 -0.060960
C14   C     C_R   0.972098 0.484940 0.429375 -0.068464
H1    H     H_    0.981087 0.545422 0.212994 0.241364
H2    H     H_    0.018737 0.420528 0.783484 0.224197
C15   C     C_R   0.504334 0.067837 0.375150 -0.274287
C16   C     C_R   0.495770 0.932251 0.624990 -0.257857
H3    H     H_    0.506324 0.119281 0.276803 0.212417
H4    H     H_    0.494129 0.880729 0.723331 0.219926
C17   C     C_R   0.500205 0.940897 0.368762 0.359897
C18   C     C_R   0.500617 0.059184 0.631554 0.347660
C19   C     C_R   0.496595 0.871912 0.495605 -0.214725
C20   C     C_R   0.503557 0.128163 0.504531 -0.215438
C21   C     C_R   0.433442 0.427083 0.066289 0.039502
C22   C     C_R   0.566782 0.572789 0.933826 0.060120
H5    H     H_    0.380224 0.368631 0.116010 0.139641
H6    H     H_    0.620116 0.631058 0.884094 0.153695
C23   C     C_R   0.433614 0.427136 0.917388 0.093601
C24   C     C_R   0.566681 0.572848 0.082906 0.060444
H7    H     H_    0.380827 0.368770 0.854819 0.149936
H8    H     H_    0.619937 0.631165 0.146026 0.173974
N1    N     N_R   0.500030 0.500030 0.852080 -0.185450
N2    N     N_R   0.499970 0.499970 0.147920 -0.193129
O9    O     O_3   0.812866 0.477485 0.280174 -0.587939
C25   C     C_3   0.783622 0.355750 0.241902 0.143616
H9    H     H_    0.720105 0.362625 0.154582 0.201948
H10   H     H_    0.752049 0.303704 0.329832 0.114586
C26   C     C_3   0.872900 0.283447 0.188644 -0.404257
H11   H     H_    0.905696 0.336457 0.103240 0.280534
H12   H     H_    0.934664 0.268077 0.276848 0.202814
C27   C     C_3   0.836784 0.158580 0.131717 -0.761670
H13   H     H_    0.806070 0.102753 0.216742 0.252351
H14   H     H_    0.902718 0.108602 0.093584 0.257048
H15   H     H_    0.775717 0.170308 0.041912 0.308326
O10   O     O_3   0.188332 0.390091 0.685726 -0.592952
C28   C     C_3   0.212168 0.267616 0.649938 0.060508
H16   H     H_    0.282133 0.238334 0.718393 0.194422
H17   H     H_    0.231764 0.258441 0.538673 0.103625
C29   C     C_3   0.124613 0.179549 0.677335 -0.384435
H18   H     H_    0.104444 0.190975 0.787499 0.243886
H19   H     H_    0.055405 0.200973 0.602633 0.213846
C30   C     C_3   0.155774 0.046131 0.657053 -0.805208
H20   H     H_    0.175937 0.032541 0.547277 0.253658
H21   H     H_    0.090517 0.984660 0.675607 0.265133
H22   H     H_    0.223053 0.020621 0.733457 0.285785
N3    N     N_R   0.820772 0.437959 0.800867 0.127337
O11   O     O_R   0.849017 0.507309 0.908553 -0.372095
O12   O     O_R   0.762876 0.342987 0.818493 -0.339120
N4    N     N_R   0.178342 0.587744 0.213036 0.148994
O13   O     O_R   0.150321 0.555186 0.083232 -0.342617
O14   O     O_R   0.234271 0.685798 0.235120 -0.295108
N5    N     N_R   0.498662 0.885176 0.232416 0.131089
O15   O     O_R   0.414449 0.833929 0.176198 -0.275398
O16   O     O_R   0.571012 0.910989 0.152102 -0.354677
N6    N     N_R   0.505378 0.114700 0.768399 0.122781
O17   O     O_R   0.589962 0.168205 0.819587 -0.308870
O18   O     O_R   0.437154 0.085725 0.853968 -0.374014

loop_
_geom_bond_atom_site_label_1
_geom_bond_atom_site_label_2
_geom_bond_distance
_ccdc_geom_bond_type
O5    Cu1   1.968074 S    
C30   H21   1.110547 S    
C6    C11   1.413576 A    
C15   H3    1.084069 S    
N5    O15   1.300759 A    
C10   N3    1.431714 S    
C8    H2    1.084071 S    
C23   H7    1.075841 S    
O9    C25   1.420694 S    
O5    C3    1.294156 A    
C25   C26   1.535236 S    
C29   C30   1.526488 S    
O1    C1    1.285058 A    
C21   H5    1.081805 S    
N6    O18   1.301136 A    
C17   N5    1.433587 S    
O10   C28   1.421029 S    
C29   H19   1.110924 S    
O4    Cu1   1.970563 S    
C5    C12   1.419524 A    
C26   H12   1.110715 S    
C13   C14   1.405768 A    
C17   C19   1.414470 A    
N4    O13   1.301496 A    
C27   H15   1.110467 S    
C24   H8    1.081684 S    
C30   H22   1.111235 S    
Cu1   Cu2   2.667851 S    
N5    O16   1.301173 A    
O2    C2    1.285349 A    
C27   H14   1.110376 S    
C15   C20   1.400011 A    
C5    C10   1.418689 A    
C25   H10   1.115810 S    
C7    C14   1.398939 A    
C15   C17   1.384285 A    
C8    C13   1.398194 A    
C22   C24   1.413918 A    
N6    O17   1.300810 A    
O4    C2    1.293818 A    
C28   C29   1.532887 S    
C23   N1    1.365265 A    
N3    O11   1.300843 A    
C29   H18   1.111706 S    
N3    O12   1.300505 A    
C18   C20   1.414846 A    
C21   C23   1.412300 A    
O7    Cu2   1.972329 S    
C3    C6    1.465323 S    
C4    C5    1.475301 S    
C16   C18   1.384668 A    
O6    C4    1.291348 A    
C26   C27   1.526231 S    
C1    C20   1.456226 S    
C22   N1    1.366174 A    
C21   N2    1.364733 A    
O7    C3    1.287760 A    
O3    Cu2   1.970562 S    
O8    C4    1.296077 A    
C16   C19   1.400175 A    
C11   C13   1.396689 A    
C12   C14   1.394818 A    
O1    Cu1   1.976168 S    
Cu1   N1    2.004923 S    
C27   H13   1.111049 S    
Cu2   N2    2.004923 S    
C25   H9    1.111139 S    
O6    Cu2   1.968073 S    
O3    C1    1.293913 A    
O8    Cu1   1.972329 S    
C18   N6    1.434253 S    
C11   O10   1.387334 S    
C2    C19   1.456790 S    
C7    H1    1.083761 S    
C16   H4    1.083944 S    
C28   H16   1.107716 S    
C6    C9    1.417144 A    
C22   H6    1.081725 S    
C7    C9    1.390634 A    
C8    C10   1.393430 A    
O2    Cu2   1.976170 S    
C28   H17   1.116587 S    
C30   H20   1.111282 S    
C24   N2    1.366375 A    
C12   O9    1.388550 S    
C26   H11   1.109898 S    
C9    N4    1.435179 S    
N4    O14   1.300991 A    
