data_mof_unit_42580.cif
_audit_creation_date              2012-12-10T17:19:54-0500
_audit_creation_method            fapswitch 2.2
_symmetry_space_group_name_H-M    P1
_symmetry_Int_Tables_number       1
_space_group_crystal_system       triclinic
_cell_length_a                    9.606876
_cell_length_b                    10.870321
_cell_length_c                    15.457984
_cell_angle_alpha                 86.946166
_cell_angle_beta                  74.045817
_cell_angle_gamma                 92.069062
_cell_volume                      1547.72504452

loop_
_atom_site_label
_atom_site_type_symbol
_atom_type_description
_atom_site_fract_x
_atom_site_fract_y
_atom_site_fract_z
_atom_type_partial_charge
C1    C     C_R   0.998583 0.262830 0.497556 0.840996
C2    C     C_R   0.669974 0.474982 0.907637 0.072924
C3    C     C_R   0.759617 0.421085 0.956596 0.079847
C4    C     C_R   0.522054 0.495375 0.951936 0.019192
C5    C     C_R   0.474136 0.485160 0.047987 -0.014518
C6    C     C_R   0.577693 0.453484 0.095978 0.133890
C7    C     C_R   0.710756 0.410379 0.050390 -0.201829
C8    C     C_R   0.420222 0.522971 0.903027 0.071778
C9    C     C_R   0.286816 0.571032 0.946377 0.087645
C10   C     C_R   0.237851 0.564006 0.041384 0.113288
C11   C     C_R   0.326242 0.508213 0.091400 -0.006729
C12   C     C_R   0.917831 0.496017 0.672129 0.823487
C13   C     C_R   0.098680 0.602947 0.088379 0.174779
C14   C     C_R   0.047049 0.579520 0.181712 -0.270875
C15   C     C_R   0.261532 0.472808 0.182894 -0.244072
C16   C     C_R   0.246228 0.137946 0.395403 -0.158698
C17   C     C_R   0.384285 0.094062 0.381968 0.190074
C18   C     C_R   0.400994 0.981935 0.426276 0.155717
C19   C     C_R   0.276919 0.906510 0.470600 -0.236497
C20   C     C_R   0.135940 0.947005 0.477985 0.010240
C21   C     C_R   0.124371 0.071608 0.454043 -0.018252
C22   C     C_R   0.995320 0.128805 0.494745 -0.125392
C23   C     C_R   0.001217 0.737575 0.504957 0.821278
C24   C     C_R   0.872306 0.057777 0.546948 0.098829
C25   C     C_R   0.875411 0.928535 0.552397 0.105290
C26   C     C_R   0.005870 0.872064 0.513613 -0.123207
C27   C     C_R   0.706137 0.657588 0.373766 -0.135775
C28   C     C_R   0.665370 0.730849 0.309471 -0.172026
C29   C     C_R   0.521275 0.733070 0.310932 -0.173132
C30   C     C_R   0.417594 0.660504 0.375756 -0.169928
C31   C     C_R   0.455531 0.578740 0.438821 0.145069
C32   C     C_R   0.605137 0.577971 0.438329 0.200319
C33   C     C_R   0.545759 0.423857 0.557495 -0.117271
C34   C     C_R   0.081986 0.501359 0.327858 0.768411
C35   C     C_R   0.397567 0.422921 0.557308 0.254623
C36   C     C_R   0.870720 0.477421 0.770675 -0.101123
C37   C     C_R   0.127966 0.514494 0.229052 -0.064010
C38   C     C_R   0.900773 0.387193 0.911070 0.184159
C39   C     C_R   0.952996 0.412454 0.817535 -0.236042
C40   C     C_R   0.733919 0.513220 0.816640 -0.186390
Cu1   Cu    Cu3+1 0.140660 0.499990 0.500010 0.940967
Cu2   Cu    Cu3+1 0.859340 0.500010 0.499990 0.954569
H1    H     H_    0.782326 0.380628 0.089804 0.181059
H2    H     H_    0.236139 0.227017 0.363455 0.158056
H3    H     H_    0.293110 0.822309 0.505580 0.175882
H4    H     H_    0.817836 0.667933 0.370303 0.188719
H5    H     H_    0.312454 0.410887 0.219870 0.160892
H6    H     H_    0.943469 0.613082 0.216988 0.153560
N1    N     N_R   0.648320 0.501210 0.499140 -0.205471
N2    N     N_R   0.352470 0.501290 0.499110 -0.191896
O1    O     O_R   0.118810 0.319640 0.500010 -0.561269
O2    O     O_R   0.881240 0.319660 0.500000 -0.550243
O3    O     O_R   0.055570 0.499980 0.629840 -0.559451
O4    O     O_R   0.818000 0.500010 0.629830 -0.567068
O5    O     O_R   0.118760 0.680340 0.500000 -0.624487
O6    O     O_R   0.881190 0.680360 0.499990 -0.566362
O7    O     O_R   0.182000 0.499990 0.370170 -0.605209
O8    O     O_R   0.944430 0.500020 0.370160 -0.597149
N3    N     N_3   0.009548 0.668483 0.042947 -0.549968
H7    H     H_    0.910131 0.618673 0.055467 0.228573
H8    H     H_    0.989737 0.753790 0.070931 0.213746
N4    N     N_3   0.747722 0.117725 0.597593 -0.585090
H9    H     H_    0.656392 0.087561 0.578944 0.202021
H10   H     H_    0.731411 0.093881 0.666176 0.214429
N5    N     N_3   0.506587 0.168437 0.328010 -0.613256
H11   H     H_    0.566800 0.114803 0.278296 0.236762
H12   H     H_    0.571572 0.194123 0.368978 0.227781
N6    N     N_3   0.543341 0.945887 0.426078 -0.592433
H13   H     H_    0.588630 0.012384 0.458006 0.202379
H14   H     H_    0.536205 0.863495 0.465417 0.220085
N7    N     N_3   0.750090 0.854175 0.603398 -0.574502
H15   H     H_    0.663327 0.872170 0.577051 0.210848
H16   H     H_    0.723341 0.877888 0.670390 0.207591
H17   H     H_    0.578361 0.361504 0.604414 0.162739
H18   H     H_    0.745619 0.789609 0.260168 0.144746
H19   H     H_    0.488871 0.793667 0.262860 0.155346
H20   H     H_    0.309074 0.673991 0.374628 0.204798
N8    N     N_3   0.294616 0.337900 0.617756 -0.525331
H21   H     H_    0.298623 0.352479 0.683245 0.171457
H22   H     H_    0.327428 0.248711 0.603683 0.199254
N9    N     N_3   0.198140 0.620558 0.893195 -0.550061
H23   H     H_    0.173735 0.552735 0.853595 0.220102
H24   H     H_    0.256513 0.694086 0.850787 0.219754
N10   N     N_3   0.989221 0.325339 0.959440 -0.601553
H25   H     H_    0.082893 0.295892 0.914643 0.212096
H26   H     H_    0.024138 0.390063 0.997560 0.226843
H27   H     H_    0.058075 0.382306 0.781547 0.146375
H28   H     H_    0.680551 0.574306 0.780265 0.181090
N11   N     N_3   0.565330 0.483852 0.186833 -0.600594
H29   H     H_    0.530375 0.405774 0.231017 0.242221
H30   H     H_    0.498669 0.557263 0.204195 0.245741
N12   N     N_3   0.444544 0.488665 0.811757 -0.607154
H31   H     H_    0.436065 0.565645 0.770355 0.214480
H32   H     H_    0.364945 0.421403 0.810223 0.207522

loop_
_geom_bond_atom_site_label_1
_geom_bond_atom_site_label_2
_ccdc_geom_bond_type
C8    C9    A    
C16   C21   A    
C34   C37   S    
Cu1   Cu2   S    
C19   C20   A    
C15   H5    S    
C4    C8    A    
Cu2   O8    S    
N9    H23   S    
C23   O6    A    
C29   H19   S    
N4    H9    S    
C28   C29   A    
N10   H26   S    
C5    C11   A    
C3    C7    A    
C38   C39   A    
N8    H22   S    
C33   N1    A    
C18   C19   A    
C23   C26   S    
C15   C37   A    
N4    H10   S    
Cu2   O6    S    
C30   H20   S    
C11   C15   A    
Cu1   O5    S    
C3    C38   A    
C16   C17   A    
N5    H12   S    
C34   O7    A    
C25   N7    S    
C7    H1    S    
C12   C36   S    
C9    C10   A    
C16   H2    S    
C12   O3    A    
N3    H7    S    
C21   C22   A    
N9    H24   S    
N3    H8    S    
C36   C40   A    
C24   C25   A    
N7    H16   S    
N8    H21   S    
N6    H13   S    
C14   H6    S    
C25   C26   A    
C2    C4    A    
C29   C30   A    
C31   C32   A    
C30   C31   A    
C35   N2    A    
N12   H32   S    
C17   C18   A    
N10   H25   S    
C1    O1    A    
Cu1   O3    S    
C8    N12   S    
C27   H4    S    
C22   C24   A    
N11   H30   S    
C31   N2    A    
Cu1   N2    S    
C24   N4    S    
C38   N10   S    
C27   C32   A    
C36   C39   A    
C4    C5    A    
C10   C13   A    
C19   H3    S    
C23   O5    A    
C6    C7    A    
C13   N3    S    
C6    N11   S    
C35   N8    S    
C17   N5    S    
C40   H28   S    
C2    C3    A    
Cu1   O7    S    
N7    H15   S    
Cu2   O4    S    
C14   C37   A    
C5    C6    A    
C20   C26   A    
N12   H31   S    
C33   C35   A    
C1    O2    A    
C32   N1    A    
C10   C11   A    
Cu2   N1    S    
C2    C40   A    
C33   H17   S    
C1    C22   S    
C20   C21   A    
N6    H14   S    
N5    H11   S    
C9    N9    S    
C27   C28   A    
C34   O8    A    
N11   H29   S    
C13   C14   A    
C28   H18   S    
C18   N6    S    
Cu1   O1    S    
C12   O4    A    
C39   H27   S    
Cu2   O2    S    
