data_mof_unit_38048.cif
_audit_creation_date              2012-12-11T14:13:57-0500
_audit_creation_method            fapswitch 2.2
_symmetry_space_group_name_H-M    P1
_symmetry_Int_Tables_number       1
_space_group_crystal_system       triclinic
_cell_length_a                    16.97771
_cell_length_b                    7.24063
_cell_length_c                    17.188929
_cell_angle_alpha                 89.999338
_cell_angle_beta                  99.387148
_cell_angle_gamma                 89.998977
_cell_volume                      2084.72731449

loop_
_atom_site_label
_atom_site_type_symbol
_atom_type_description
_atom_site_fract_x
_atom_site_fract_y
_atom_site_fract_z
_atom_type_partial_charge
O1    O     O_R   0.414560 0.494370 0.416770 -0.501303
O2    O     O_R   0.585440 0.994370 0.583230 -0.501285
O3    O     O_R   0.578370 0.819590 0.429320 -0.549528
O4    O     O_R   0.421630 0.319590 0.570680 -0.549546
C1    C     C_R   0.603817 0.654648 0.412916 0.811926
C2    C     C_R   0.396190 0.154651 0.587091 0.811856
O5    O     O_R   0.414740 0.823790 0.407360 -0.563984
O6    O     O_R   0.585260 0.323790 0.592640 -0.564004
O7    O     O_R   0.420650 0.998510 0.561120 -0.514848
O8    O     O_R   0.579350 0.498510 0.438880 -0.514835
C3    C     C_R   0.390387 0.655387 0.383325 0.691576
C4    C     C_R   0.609616 0.155384 0.616673 0.691648
O9    O     O_3   0.502130 0.662240 0.550470 -0.376267
O10   O     O_3   0.497870 0.162240 0.449530 -0.376276
V1    V     V_3+5 0.499600 0.935390 0.490640 1.654662
V2    V     V_3+5 0.500400 0.435390 0.509360 1.654643
C5    C     C_2   0.769305 0.242336 0.801702 0.336786
C6    C     C_2   0.230705 0.742317 0.198284 0.336818
C7    C     C_2   0.829344 0.117084 0.812398 0.232333
C8    C     C_2   0.170667 0.617066 0.187594 0.232321
C9    C     C_2   0.718673 0.268882 0.723790 -0.278482
C10   C     C_2   0.281334 0.768877 0.276195 -0.278446
C11   C     C_2   0.662442 0.141912 0.694426 0.254203
C12   C     C_2   0.337572 0.641921 0.305565 0.254282
C13   C     C_R   0.333011 0.140255 0.638118 -0.266602
C14   C     C_R   0.667009 0.640221 0.361903 -0.266582
C15   C     C_R   0.166973 0.126581 0.863333 -0.282994
C16   C     C_R   0.833047 0.626577 0.136686 -0.283068
C17   C     C_R   0.299659 0.232910 0.847132 0.394562
C18   C     C_R   0.700372 0.732897 0.152909 0.394549
C19   C     C_R   0.239089 0.214774 0.893340 0.305040
C20   C     C_R   0.760921 0.714732 0.106685 0.305019
C21   C     C_R   0.155379 0.054181 0.786115 0.354125
C22   C     C_R   0.844670 0.554190 0.213910 0.354120
C23   C     C_R   0.212427 0.089801 0.734736 -0.136916
C24   C     C_R   0.787603 0.589676 0.265290 -0.136831
C25   C     C_R   0.285418 0.183588 0.765475 -0.145144
C26   C     C_R   0.714629 0.683566 0.234564 -0.145174
C27   C     C_R   0.342234 0.221249 0.713931 -0.074811
C28   C     C_R   0.657830 0.721312 0.286114 -0.074821
C29   C     C_R   0.262301 0.044696 0.609596 0.319135
C30   C     C_R   0.737670 0.544439 0.390401 0.319208
C31   C     C_R   0.199987 0.034108 0.653964 0.447058
C32   C     C_R   0.799992 0.533758 0.346041 0.447022
O11   O     O_R   0.920750 0.773600 0.061260 -0.536040
O12   O     O_R   0.079250 0.273600 0.938740 -0.536034
O13   O     O_R   0.085340 0.439850 0.092570 -0.506208
O14   O     O_R   0.914660 0.939850 0.907430 -0.506221
C33   C     C_R   0.111450 0.608341 0.114656 0.723501
C34   C     C_R   0.888553 0.108346 0.885342 0.723429
O15   O     O_R   0.921720 0.444130 0.070790 -0.516941
O16   O     O_R   0.078280 0.944130 0.929210 -0.516916
O17   O     O_R   0.914480 0.269530 0.916840 -0.541623
O18   O     O_R   0.085520 0.769530 0.083160 -0.541625
C35   C     C_R   0.896432 0.613012 0.086345 0.833460
C36   C     C_R   0.103571 0.113011 0.913656 0.833393
O19   O     O_3   0.997840 0.601520 0.949550 -0.376736
O20   O     O_3   0.002160 0.101520 0.050450 -0.376748
V3    V     V_3+5 0.000400 0.328340 0.009360 1.742226
V4    V     V_3+5 0.999600 0.828340 0.990640 1.742239
Cl1   Cl    Cl    0.749614 0.389720 0.878150 -0.481078
Cl2   Cl    Cl    0.250387 0.889702 0.121832 -0.481026
Cl3   Cl    Cl    0.071388 0.907606 0.760260 -0.448456
Cl4   Cl    Cl    0.928787 0.407993 0.239776 -0.448371
Cl5   Cl    Cl    0.844858 0.966067 0.735347 -0.407149
Cl6   Cl    Cl    0.155169 0.466033 0.264646 -0.407088
C37   C     C_2   0.735984 0.438233 0.681263 0.982218
O21   O     O_2   0.802218 0.458046 0.663575 -0.421643
O22   O     O_R   0.681215 0.583152 0.667618 -0.582789
H1    H     H_    0.632752 0.563112 0.694041 0.296742
C38   C     C_2   0.264002 0.938214 0.318721 0.982191
O23   O     O_2   0.197758 0.958013 0.336385 -0.421639
O24   O     O_R   0.318762 0.083143 0.332384 -0.582766
H2    H     H_    0.367233 0.063124 0.305970 0.296729
Cl7   Cl    Cl    0.644064 0.951802 0.753780 -0.436664
Cl8   Cl    Cl    0.355967 0.451818 0.246215 -0.436749
C39   C     C_2   0.408649 0.353901 0.735222 0.917374
O25   O     O_2   0.394012 0.515884 0.747144 -0.507674
O26   O     O_R   0.487633 0.293789 0.741056 -0.638665
H3    H     H_    0.527550 0.396831 0.756409 0.322240
C40   C     C_2   0.591493 0.854191 0.264851 0.917417
O27   O     O_2   0.606228 0.016115 0.252924 -0.507743
O28   O     O_R   0.512473 0.794359 0.259035 -0.638698
H4    H     H_    0.472620 0.897541 0.243696 0.322243
Cl9   Cl    Cl    0.248684 0.946182 0.514143 -0.471475
Cl10  Cl    Cl    0.751215 0.445722 0.485820 -0.471642
Cl11  Cl    Cl    0.395443 0.294307 0.898487 -0.351841
Cl12  Cl    Cl    0.604574 0.794283 0.101576 -0.351882
Cl13  Cl    Cl    0.105433 0.971654 0.600418 -0.289148
Cl14  Cl    Cl    0.894459 0.470593 0.399573 -0.289145
Cl15  Cl    Cl    0.256293 0.292673 0.992618 -0.414079
Cl16  Cl    Cl    0.743690 0.792594 0.007400 -0.414039

loop_
_geom_bond_atom_site_label_1
_geom_bond_atom_site_label_2
_ccdc_geom_bond_type
C26   C28   A    
O11   V4    S    
O12   V3    S    
O24   H2    S    
O1    C3    A    
O2    C4    A    
C2    O7    A    
C40   O27   D    
O17   V3    S    
O3    V1    S    
O13   C33   A    
O18   V4    S    
C39   O25   D    
C15   C21   A    
O5    C3    A    
C4    C11   S    
C31   Cl13  S    
C27   C39   S    
C8    Cl6   S    
C23   C25   A    
C21   C23   A    
C2    C13   S    
C33   O18   A    
C3    C12   S    
C18   C26   A    
O16   V4    S    
C5    Cl1   S    
C30   Cl10  S    
C23   C31   A    
C6    C8    D    
O6    C4    A    
O14   C34   A    
C16   C22   A    
O6    V2    S    
C9    C37   S    
C29   C31   A    
C30   C32   A    
C40   O28   S    
C16   C35   S    
O14   V4    S    
C39   O26   S    
C34   O17   A    
C15   C19   A    
C37   O21   D    
C16   C20   A    
O4    C2    A    
C13   C29   A    
C38   O24   S    
C15   C36   S    
C12   Cl8   S    
O19   V4    S    
O20   V3    S    
C5    C9    S    
C1    C14   S    
C37   O22   S    
O4    V2    S    
C8    C33   S    
O28   H4    S    
C21   Cl3   S    
C22   Cl4   S    
O1    V2    S    
O2    V1    S    
C19   Cl15  S    
C9    C11   D    
C10   C12   D    
C24   C32   A    
O15   V3    S    
C17   C25   A    
C10   C38   S    
C32   Cl14  S    
C14   C30   A    
C6    C10   S    
C28   C40   S    
C6    Cl2   S    
C11   Cl7   S    
O3    C1    A    
C29   Cl9   S    
C24   C26   A    
O7    V1    S    
C38   O23   D    
C17   C19   A    
O8    V2    S    
C13   C27   A    
C18   C20   A    
C7    C34   S    
C14   C28   A    
C20   Cl16  S    
O5    V1    S    
C5    C7    D    
C22   C24   A    
C7    Cl5   S    
O15   C35   A    
O22   H1    S    
C17   Cl11  S    
O13   V3    S    
O26   H3    S    
C1    O8    A    
O11   C35   A    
C25   C27   A    
O9    V2    S    
O12   C36   A    
O10   V1    S    
C18   Cl12  S    
O16   C36   A    
