data_mof_unit_26922.cif
_audit_creation_date              2013-03-05T15:58:56-0500
_audit_creation_method            fapswitch 2.2
_symmetry_space_group_name_H-M    P1
_symmetry_Int_Tables_number       1
_space_group_crystal_system       triclinic
_cell_length_a                    11.000737
_cell_length_b                    12.607727
_cell_length_c                    13.337392
_cell_angle_alpha                 82.627923
_cell_angle_beta                  93.596738
_cell_angle_gamma                 101.871776
_cell_volume                      1794.03060723

loop_
_atom_site_label
_atom_site_type_symbol
_atom_site_description
_atom_site_fract_x
_atom_site_fract_y
_atom_site_fract_z
_atom_type_partial_charge
O1    O     O_R   0.468120 0.366740 0.627160 -0.540090
O2    O     O_R   0.510770 0.544830 0.662520 -0.627801
C1    C     C_R   0.482299 0.440094 0.691090 1.003065
O3    O     O_R   0.663880 0.410950 0.482330 -0.542206
O4    O     O_R   0.706530 0.589040 0.517700 -0.554892
C2    C     C_R   0.743099 0.500496 0.500081 0.953374
Zn1   Zn    Zn3+2 0.471520 0.381090 0.476390 1.075229
Zn2   Zn    Zn3+2 0.528480 0.618910 0.523610 1.006105
O5    O     O_R   0.489230 0.455170 0.337480 -0.653079
O6    O     O_R   0.531880 0.633260 0.372840 -0.595482
O7    O     O_R   0.293470 0.410960 0.482300 -0.572916
O8    O     O_R   0.336120 0.589050 0.517670 -0.650898
C3    C     C_R   0.507715 0.560933 0.309248 0.940772
C4    C     C_R   0.258536 0.499948 0.501629 1.030473
C5    C     C_3   0.922311 0.416868 0.583213 0.122648
H1    H     H_    0.909534 0.444819 0.656351 0.182140
C6    C     C_3   0.062189 0.416640 0.581691 -0.460103
H2    H     H_    0.105959 0.431159 0.657477 0.248224
H3    H     H_    0.080658 0.334596 0.576863 0.270026
C7    C     C_3   0.918193 0.480332 0.386056 0.742019
C8    C     C_3   0.957380 0.621542 0.526618 0.520101
C9    C     C_3   0.882277 0.504341 0.495976 -0.382898
C10   C     C_3   0.123593 0.504652 0.496906 -0.392363
C11   C     C_3   0.061243 0.469291 0.389851 0.331424
C12   C     C_3   0.103478 0.620507 0.530199 0.571594
C13   C     C_R   0.618218 0.723483 0.065178 0.400782
C14   C     C_R   0.513747 0.599987 0.201282 -0.210837
C15   C     C_R   0.335756 0.329146 0.816626 0.340970
C16   C     C_R   0.270086 0.328124 0.904374 0.155492
C17   C     C_R   0.315564 0.402388 0.974489 0.163571
C18   C     C_R   0.431993 0.474947 0.960672 -0.096060
C19   C     C_R   0.496123 0.479435 0.870972 -0.227268
C20   C     C_R   0.484268 0.549425 0.030875 0.001030
C21   C     C_R   0.569349 0.645999 0.997945 -0.237500
C22   C     C_R   0.611283 0.659031 0.899672 0.453594
C23   C     C_R   0.601562 0.565450 0.852251 0.450664
C24   C     C_R   0.462553 0.525635 0.133696 -0.158815
C25   C     C_R   0.580381 0.705141 0.165608 0.366410
C26   C     C_R   0.445669 0.408524 0.797298 -0.202994
H4    H     H_    0.412855 0.445438 0.162804 0.204681
C27   C     C_R   0.356551 0.099392 0.323256 -0.251774
H5    H     H_    0.342766 0.267629 0.306031 0.210045
H6    H     H_    0.329967 0.893171 0.287988 0.194904
H7    H     H_    0.304573 0.083331 0.253213 0.188293
N1    N     N_R   0.433240 0.222190 0.444680 -0.166248
C28   C     C_R   0.663210 0.802266 0.620326 0.018840
C29   C     C_R   0.715999 0.910953 0.630601 0.443055
C30   C     C_R   0.654106 0.991809 0.584186 -0.193646
C31   C     C_R   0.548503 0.964973 0.519990 -0.024764
C32   C     C_R   0.515435 0.856323 0.498092 0.115343
C33   C     C_R   0.481595 0.043247 0.470127 -0.048465
C34   C     C_R   0.408566 0.018789 0.381946 0.084630
C35   C     C_R   0.387379 0.913596 0.354527 -0.144055
C36   C     C_R   0.435479 0.832350 0.415146 -0.053595
C37   C     C_R   0.481123 0.143664 0.505811 0.412786
C38   C     C_R   0.375094 0.202738 0.354149 0.000753
N2    N     N_R   0.566070 0.776970 0.554790 -0.191497
H8    H     H_    0.702139 0.736824 0.660153 0.223792
H9    H     H_    0.692272 0.074742 0.596220 0.250528
H10   H     H_    0.410879 0.751470 0.395015 0.241922
N3    N     N_R   0.850137 0.304554 0.593539 0.256078
O9    O     O_R   0.797945 0.256283 0.517073 -0.302951
O10   O     O_R   0.852964 0.246304 0.681322 -0.352004
N4    N     N_R   0.168683 0.719417 0.467600 0.187306
O11   O     O_R   0.189116 0.716436 0.373647 -0.366150
O12   O     O_R   0.173360 0.815567 0.495527 -0.423250
O13   O     O_3   0.905482 0.569921 0.312630 -0.592990
C39   C     C_3   0.783634 0.576881 0.278984 -0.230802
H11   H     H_    0.713969 0.501148 0.294942 0.156008
H12   H     H_    0.782831 0.596971 0.195799 0.148503
H13   H     H_    0.756603 0.643520 0.312912 0.241859
N5    N     N_R   0.128178 0.537381 0.302062 0.280105
O14   O     O_R   0.248804 0.555511 0.302685 -0.380203
O15   O     O_R   0.073836 0.543574 0.212632 -0.279089
O16   O     O_3   0.629466 0.779261 0.233480 -0.594356
C40   C     C_3   0.597129 0.881577 0.202447 -0.167755
H14   H     H_    0.498645 0.873756 0.174060 0.130706
H15   H     H_    0.660747 0.931335 0.145404 0.214129
H16   H     H_    0.610032 0.928358 0.268467 0.179736
O17   O     O_3   0.668781 0.759439 0.852887 -0.563650
C41   C     C_3   0.578561 0.826458 0.834593 -0.114850
H17   H     H_    0.511139 0.798718 0.773117 0.092530
H18   H     H_    0.626049 0.911738 0.811898 0.238702
H19   H     H_    0.525695 0.829580 0.902133 0.151880
O18   O     O_3   0.707283 0.814700 0.033968 -0.595326
C42   C     C_3   0.826577 0.792901 0.060509 -0.108484
H20   H     H_    0.845259 0.789891 0.143553 0.202542
H21   H     H_    0.896522 0.860760 0.024024 0.210427
H22   H     H_    0.839664 0.716376 0.032977 0.142401
O19   O     O_3   0.278464 0.271477 0.738690 -0.597346
C43   C     C_3   0.264438 0.158042 0.767503 -0.107130
H23   H     H_    0.176548 0.124694 0.806755 0.187402
H24   H     H_    0.344604 0.135797 0.814909 0.172190
H25   H     H_    0.256154 0.117386 0.697779 0.195478
N6    N     N_R   0.231199 0.419795 0.045768 0.230577
O20   O     O_R   0.176310 0.339211 0.108493 -0.301153
O21   O     O_R   0.201923 0.515073 0.042483 -0.321068
N7    N     N_R   0.146126 0.265204 0.913169 0.238049
O22   O     O_R   0.122271 0.181239 0.981708 -0.358778
O23   O     O_R   0.058952 0.286959 0.848020 -0.337394
O24   O     O_3   0.694485 0.560633 0.788782 -0.599908
C44   C     C_3   0.761217 0.481613 0.834657 -0.207609
H26   H     H_    0.711606 0.398397 0.820713 0.189220
H27   H     H_    0.779664 0.485663 0.917470 0.139305
H28   H     H_    0.853317 0.497418 0.800708 0.223725
N8    N     N_R   0.510789 0.155725 0.610501 0.194795
O25   O     O_R   0.602265 0.231105 0.636016 -0.327020
O26   O     O_R   0.467691 0.076087 0.679106 -0.483779
O27   O     O_3   0.819390 0.935421 0.694394 -0.599437
C45   C     C_3   0.920007 0.996113 0.637590 -0.178639
H29   H     H_    0.935592 0.955579 0.571542 0.190760
H30   H     H_    0.005677 0.002547 0.686802 0.168827
H31   H     H_    0.906762 0.080205 0.611658 0.236257
O28   O     O_3   0.838145 0.381491 0.360424 -0.567532
C46   C     C_3   0.840742 0.357309 0.259338 -0.084546
H32   H     H_    0.893929 0.292208 0.256193 0.230400
H33   H     H_    0.876249 0.427558 0.203406 0.191637
H34   H     H_    0.743955 0.324057 0.233892 0.127484
N9    N     N_R   0.072301 0.354697 0.380199 0.204672
O29   O     O_R   0.005529 0.269798 0.430463 -0.361811
O30   O     O_R   0.144181 0.336018 0.313439 -0.322146
N10   N     N_R   0.922685 0.716021 0.457554 0.222745
O31   O     O_R   0.968497 0.749758 0.368945 -0.283867
O32   O     O_R   0.851746 0.775011 0.488513 -0.393702
O33   O     O_3   0.916474 0.626425 0.626474 -0.621566
C47   C     C_3   0.967951 0.721086 0.673690 -0.047618
H35   H     H_    0.893434 0.752354 0.703867 0.201258
H36   H     H_    0.023051 0.788240 0.624000 0.178232
H37   H     H_    0.023841 0.698070 0.742005 0.171976
O34   O     O_3   0.147357 0.619188 0.635020 -0.646979
C48   C     C_3   0.252585 0.697013 0.664146 -0.155029
H38   H     H_    0.223511 0.767911 0.689607 0.147469
H39   H     H_    0.322222 0.728453 0.606429 0.202428
H40   H     H_    0.300957 0.657851 0.729732 0.159094

loop_
_geom_bond_atom_site_label_1
_geom_bond_atom_site_label_2
_geom_bond_distance
_ccdc_geom_bond_type
O24   C44   1.412072 S    
N6    O20   1.299828 A    
C7    O13   1.420687 S    
C22   C23   1.390889 A    
C40   H16   1.107474 S    
C48   H40   1.109503 S    
O28   C46   1.423152 S    
C36   H10   1.064311 S    
O18   C42   1.410029 S    
Zn1   O7    2.077245 S    
C32   C36   1.393988 A    
C16   N7    1.433079 S    
C47   H35   1.097482 S    
Zn1   N1    2.053695 S    
C15   C16   1.410717 A    
C41   H17   1.111422 S    
C40   H15   1.107174 S    
C24   H4    1.081839 S    
C13   O18   1.385842 S    
C17   C18   1.419692 A    
O7    C4    1.317936 A    
C42   H21   1.109094 S    
N8    O25   1.295456 A    
C14   C25   1.415400 A    
C46   H32   1.107835 S    
C2    C9    1.526046 S    
C22   O17   1.381788 S    
C44   H28   1.105692 S    
C5    C6    1.540760 S    
C21   C22   1.395407 A    
C19   C26   1.423276 A    
C8    N10   1.508124 S    
N3    O10   1.302019 A    
O5    C3    1.315438 A    
C45   H29   1.112239 S    
H5    C38   1.078887 S    
H6    C35   1.083599 S    
C5    C9    1.603192 S    
C29   C30   1.398843 A    
N1    C38   1.357118 A    
C39   H11   1.100700 S    
C31   C33   1.423696 A    
C10   C11   1.619447 S    
C18   C20   1.423034 A    
C16   C17   1.405248 A    
C27   C34   1.397052 A    
C1    C26   1.479294 S    
C8    C9    1.625833 S    
C28   H8    1.072697 S    
C44   H26   1.111277 S    
O3    Zn1   2.069960 S    
C12   O34   1.449301 S    
C41   H18   1.107151 S    
C13   C21   1.412683 A    
C20   C21   1.413106 A    
C25   O16   1.390122 S    
N9    O30   1.300884 A    
C37   N8    1.433938 S    
C33   C34   1.412921 A    
C7    C11   1.605190 S    
C40   H14   1.113989 S    
N5    O15   1.300756 A    
C43   H23   1.106989 S    
C42   H20   1.110984 S    
O17   C41   1.421360 S    
C15   C26   1.415984 A    
C46   H33   1.103703 S    
C29   O27   1.383571 S    
O6    C3    1.300764 A    
C20   C24   1.390596 A    
O13   C39   1.403076 S    
C23   O24   1.382936 S    
O1    C1    1.316435 A    
C12   N4    1.485461 S    
N4    O12   1.303342 A    
C4    C10   1.494881 S    
O16   C40   1.412521 S    
C27   C38   1.388147 A    
C17   N6    1.435736 S    
Zn2   N2    2.041358 S    
C43   H24   1.114649 S    
C18   C19   1.415720 A    
Zn2   O8    2.069960 S    
C46   H34   1.109997 S    
C6    H2    1.112294 S    
C5    N3    1.468181 S    
C6    C10   1.559396 S    
C44   H27   1.116163 S    
C45   H31   1.108168 S    
O3    C2    1.314533 A    
C30   C31   1.408888 A    
O8    C4    1.296322 A    
C31   C32   1.406552 A    
N7    O23   1.300911 A    
C28   N2    1.349734 A    
O33   C47   1.418332 S    
C27   H7    1.083770 S    
N10   O32   1.300252 A    
C48   H38   1.107134 S    
C19   C23   1.425870 A    
C41   H19   1.111517 S    
C34   C35   1.390526 A    
C11   N5    1.496752 S    
C30   H9    1.072050 S    
Zn1   O5    1.967009 S    
C8    C12   1.607585 S    
C28   C29   1.394456 A    
C11   N9    1.496911 S    
C47   H36   1.103948 S    
O1    Zn1   1.997764 S    
C32   N2    1.365775 A    
Zn2   O6    1.997761 S    
O2    Zn2   1.967009 S    
C7    C9    1.622581 S    
N5    O14   1.299030 A    
C48   H39   1.098773 S    
C42   H22   1.114046 S    
O4    Zn2   2.077246 S    
N9    O29   1.299554 A    
N6    O21   1.300970 A    
C35   C36   1.392728 A    
C47   H37   1.108010 S    
C13   C25   1.404198 A    
N4    O11   1.293468 A    
O2    C1    1.304857 A    
O27   C45   1.411602 S    
C43   H25   1.108285 S    
C7    O28   1.437121 S    
O19   C43   1.411537 S    
O4    C2    1.314230 A    
N8    O26   1.301124 A    
C14   C24   1.394416 A    
C39   H13   1.102861 S    
C6    H3    1.104810 S    
O34   C48   1.423990 S    
C33   C37   1.409613 A    
C10   C12   1.640554 S    
N3    O9    1.296989 A    
C45   H30   1.109128 S    
N1    C37   1.369638 A    
C39   H12   1.105768 S    
N7    O22   1.301008 A    
C3    C14   1.461853 S    
C15   O19   1.389077 S    
N10   O31   1.299662 A    
C8    O33   1.444872 S    
C5    H1    1.105117 S    
