data_mof_unit_29158.cif
_audit_creation_date              2012-12-11T14:21:20-0500
_audit_creation_method            fapswitch 2.2
_symmetry_space_group_name_H-M    P1
_symmetry_Int_Tables_number       1
_space_group_crystal_system       triclinic
_cell_length_a                    21.972055
_cell_length_b                    7.235629
_cell_length_c                    14.852021
_cell_angle_alpha                 89.815035
_cell_angle_beta                  106.916844
_cell_angle_gamma                 89.886532
_cell_volume                      2259.00274459

loop_
_atom_site_label
_atom_site_type_symbol
_atom_type_description
_atom_site_fract_x
_atom_site_fract_y
_atom_site_fract_z
_atom_type_partial_charge
O1    O     O_R   0.584770 0.505770 0.002090 -0.546168
O2    O     O_R   0.415230 0.005770 0.997910 -0.546314
O3    O     O_R   0.467060 0.173340 0.861950 -0.544994
O4    O     O_R   0.532940 0.673340 0.138050 -0.544059
C1    C     C_R   0.454811 0.344748 0.826141 0.704100
C2    C     C_R   0.545208 0.844271 0.174351 0.706717
O5    O     O_R   0.587510 0.175890 0.993210 -0.515251
O6    O     O_R   0.412490 0.675890 0.006790 -0.506659
O7    O     O_R   0.536540 0.008150 0.130100 -0.532405
O8    O     O_R   0.463460 0.508150 0.869900 -0.537916
C3    C     C_R   0.612354 0.344721 0.995093 0.752420
C4    C     C_R   0.387625 0.845155 0.004591 0.750374
O9    O     O_3   0.483140 0.340040 0.044760 -0.374944
O10   O     O_3   0.516860 0.840040 0.955240 -0.381722
V1    V     V_3+5 0.503130 0.064190 0.991700 1.440354
V2    V     V_3+5 0.496870 0.564190 0.008300 1.446168
C5    C     C_2   0.220625 0.772252 0.034752 -0.282976
C6    C     C_2   0.781847 0.252431 0.975434 -0.228660
C7    C     C_2   0.174470 0.876375 0.976308 0.009835
C8    C     C_2   0.824264 0.381434 0.021299 -0.007776
H1    H     H_    0.211289 0.711103 0.096316 0.101447
H2    H     H_    0.795436 0.162357 0.926195 0.096266
C9    C     C_2   0.282812 0.725023 0.017273 0.473507
C10   C     C_2   0.718125 0.219508 0.990473 0.472035
C11   C     C_2   0.323075 0.864146 0.015729 -0.369627
C12   C     C_2   0.676818 0.360132 0.982895 -0.378985
H3    H     H_    0.309108 0.002680 0.028035 0.102379
H4    H     H_    0.689912 0.492378 0.961257 0.090428
C13   C     C_R   0.927140 0.885245 0.722864 -0.067750
C14   C     C_R   0.071391 0.379045 0.276663 -0.067970
C15   C     C_R   0.572018 0.858534 0.277454 -0.050523
C16   C     C_R   0.425124 0.356152 0.724192 -0.036805
C17   C     C_R   0.936798 0.798225 0.569728 0.178696
C18   C     C_R   0.061997 0.268023 0.426290 0.185188
C19   C     C_R   0.963543 0.822456 0.666897 -0.175101
C20   C     C_R   0.034524 0.313202 0.331318 -0.172260
C21   C     C_R   0.862545 0.919218 0.683229 -0.205415
C22   C     C_R   0.135798 0.411048 0.317032 -0.209081
C23   C     C_R   0.832943 0.898806 0.585456 0.012269
C24   C     C_R   0.166789 0.359623 0.411236 0.012705
C25   C     C_R   0.871530 0.848246 0.526208 0.099931
C26   C     C_R   0.129867 0.274334 0.465485 0.095317
C27   C     C_R   0.765621 0.921752 0.545803 0.065865
C28   C     C_R   0.233876 0.384321 0.451299 0.069827
C29   C     C_R   0.736978 0.881762 0.449120 0.027698
C30   C     C_R   0.262943 0.332219 0.546292 0.027232
C31   C     C_R   0.776764 0.868561 0.390922 -0.209665
C32   C     C_R   0.228124 0.223387 0.591691 -0.210200
C33   C     C_R   0.842810 0.851976 0.426734 0.147404
C34   C     C_R   0.163002 0.192208 0.553710 0.151848
C35   C     C_R   0.725913 0.987742 0.598578 -0.170676
C36   C     C_R   0.273730 0.452498 0.399018 -0.182156
C37   C     C_R   0.661080 0.012827 0.557479 -0.184020
C38   C     C_R   0.339495 0.452945 0.436652 -0.186268
C39   C     C_R   0.632365 0.961127 0.464473 0.071946
C40   C     C_R   0.367529 0.408269 0.530987 0.074193
C41   C     C_R   0.669090 0.880445 0.410775 0.082656
C42   C     C_R   0.328851 0.368312 0.589721 0.085011
C43   C     C_R   0.567186 0.992373 0.424746 -0.185657
C44   C     C_R   0.433851 0.405057 0.567054 -0.184926
C45   C     C_R   0.537255 0.950108 0.330630 0.122712
C46   C     C_R   0.463133 0.370058 0.662413 0.127159
C47   C     C_R   0.636045 0.805773 0.320708 0.045662
C48   C     C_R   0.357959 0.367419 0.688972 0.034653
H5    H     H_    0.633061 0.072603 0.599284 0.121231
H6    H     H_    0.368549 0.492764 0.392001 0.122178
H7    H     H_    0.012904 0.786061 0.700368 0.112362
H8    H     H_    0.983788 0.296388 0.299090 0.109016
H9    H     H_    0.836423 0.954229 0.731930 0.098799
H10   H     H_    0.160566 0.468843 0.270921 0.105470
H11   H     H_    0.756322 0.879074 0.315551 0.160246
H12   H     H_    0.252894 0.152737 0.656261 0.154438
H13   H     H_    0.743579 0.031192 0.670709 0.120095
H14   H     H_    0.256430 0.498110 0.327159 0.125875
H15   H     H_    0.539800 0.057208 0.466228 0.129995
H16   H     H_    0.463114 0.427765 0.520471 0.131049
O11   O     O_R   0.036450 0.233070 0.130130 -0.535521
O12   O     O_R   0.963550 0.733070 0.869870 -0.536069
O13   O     O_R   0.912470 0.560570 0.006790 -0.539015
O14   O     O_R   0.087530 0.060570 0.993210 -0.540467
C49   C     C_R   0.887879 0.391648 0.005652 0.726100
C50   C     C_R   0.111892 0.891112 0.994127 0.733509
O15   O     O_R   0.032920 0.562940 0.138050 -0.540231
O16   O     O_R   0.967080 0.062940 0.861950 -0.540146
O17   O     O_R   0.084790 0.730500 0.002090 -0.542890
O18   O     O_R   0.915210 0.230500 0.997910 -0.542651
C51   C     C_R   0.044321 0.393678 0.174597 0.688565
C52   C     C_R   0.954882 0.894643 0.825288 0.688525
O19   O     O_3   0.016820 0.396170 0.955260 -0.378457
O20   O     O_3   0.983180 0.896170 0.044740 -0.376544
V3    V     V_3+5 0.996880 0.672090 0.008300 1.414114
V4    V     V_3+5 0.003120 0.172090 0.991700 1.412808
C53   C     C_3   0.180552 0.951056 0.884256 -0.790843
H17   H     H_    0.135514 0.017603 0.842530 0.198100
H18   H     H_    0.218717 0.055275 0.896164 0.203800
H19   H     H_    0.191332 0.836381 0.841712 0.216441
C54   C     C_3   0.812078 0.502575 0.097104 -0.769340
H20   H     H_    0.856723 0.568360 0.139930 0.202625
H21   H     H_    0.778207 0.614544 0.065525 0.204869
H22   H     H_    0.793177 0.419054 0.145800 0.220076
O21   O     O_3   0.301318 0.544791 0.004162 -0.561558
C55   C     C_3   0.264571 0.406964 0.031058 0.105168
H23   H     H_    0.270383 0.280656 0.993256 0.129601
H24   H     H_    0.212530 0.435040 0.007275 0.125908
C56   C     C_3   0.289607 0.368088 0.137143 -0.336751
H25   H     H_    0.338794 0.311885 0.153923 0.202566
H26   H     H_    0.291457 0.498013 0.177372 0.179673
C57   C     C_3   0.247597 0.229734 0.168675 -0.836812
H27   H     H_    0.198471 0.284795 0.154402 0.229441
H28   H     H_    0.267333 0.202229 0.245199 0.238649
H29   H     H_    0.246132 0.097367 0.131166 0.236597
O22   O     O_3   0.701304 0.046088 0.014814 -0.561500
C58   C     C_3   0.703126 0.912441 0.946570 0.080390
H30   H     H_    0.687354 0.783398 0.971971 0.150057
H31   H     H_    0.752326 0.887728 0.943092 0.106048
C59   C     C_3   0.656649 0.953305 0.848658 -0.339877
H32   H     H_    0.608394 0.980878 0.855242 0.224255
H33   H     H_    0.672453 0.077015 0.817095 0.169446
C60   C     C_3   0.652864 0.790093 0.782466 -0.834895
H34   H     H_    0.700298 0.761764 0.772887 0.232835
H35   H     H_    0.618753 0.822379 0.712857 0.234210
H36   H     H_    0.635952 0.664781 0.811168 0.230357
C61   C     C_3   0.879740 0.855980 0.355206 -0.779917
H37   H     H_    0.918246 0.959860 0.375439 0.214246
H38   H     H_    0.898328 0.716964 0.346334 0.214026
H39   H     H_    0.849525 0.898521 0.284300 0.207804
C62   C     C_3   0.133977 0.052558 0.605158 -0.782074
H40   H     H_    0.101915 0.120485 0.640349 0.214579
H41   H     H_    0.109330 0.943026 0.555946 0.216865
H42   H     H_    0.170561 0.979735 0.661849 0.201605
C63   C     C_3   0.664068 0.653213 0.275022 -0.772826
H43   H     H_    0.674469 0.705520 0.210680 0.206115
H44   H     H_    0.707311 0.590564 0.323742 0.215350
H45   H     H_    0.629840 0.537206 0.255361 0.222534
C64   C     C_3   0.320013 0.406143 0.757853 -0.764620
H46   H     H_    0.271122 0.456046 0.722757 0.213229
H47   H     H_    0.318443 0.280837 0.800499 0.200430
H48   H     H_    0.342236 0.520048 0.805968 0.226981
C65   C     C_3   0.467854 0.000918 0.290864 -0.771075
H49   H     H_    0.446349 0.948772 0.218496 0.187868
H50   H     H_    0.440375 0.940910 0.335867 0.204176
H51   H     H_    0.462533 0.153626 0.289938 0.209895
C66   C     C_3   0.534826 0.358175 0.695338 -0.803698
H52   H     H_    0.554346 0.332687 0.772001 0.182518
H53   H     H_    0.550809 0.243209 0.658292 0.204962
H54   H     H_    0.555293 0.489286 0.678343 0.216858
C67   C     C_3   0.976904 0.692741 0.520090 -0.796900
H55   H     H_    0.020904 0.636640 0.570366 0.204321
H56   H     H_    0.949490 0.573084 0.483226 0.220449
H57   H     H_    0.992973 0.780240 0.470483 0.212975
C68   C     C_3   0.016401 0.228693 0.482815 -0.806253
H58   H     H_    0.966733 0.266284 0.443471 0.201461
H59   H     H_    0.015482 0.080537 0.499114 0.221523
H60   H     H_    0.029183 0.311548 0.548194 0.217597

loop_
_geom_bond_atom_site_label_1
_geom_bond_atom_site_label_2
_ccdc_geom_bond_type
C66   H54   S    
O15   C51   A    
C22   H10   S    
O11   V4    S    
O4    V2    S    
C53   H17   S    
C39   C43   A    
C64   H48   S    
C15   C45   A    
C37   C39   A    
C67   H55   S    
O1    C3    A    
C46   C66   S    
C63   H45   S    
O2    C4    A    
C2    O7    A    
C54   H20   S    
O17   V3    S    
C61   H37   S    
C23   C25   A    
C57   H27   S    
O5    C3    A    
C56   H26   S    
C29   C41   A    
C5    C9    S    
C6    C10   S    
C57   H29   S    
C67   H56   S    
C10   C12   D    
C36   H14   S    
C17   C19   A    
C65   H51   S    
C61   H38   S    
C66   H52   S    
C33   C61   S    
C66   H53   S    
C59   H32   S    
C14   C22   A    
C55   C56   S    
C44   C46   A    
C68   H60   S    
C13   C52   S    
C17   C67   S    
C35   H13   S    
C8    C54   S    
C36   C38   A    
C18   C26   A    
C10   O22   S    
C68   H58   S    
C47   C63   S    
C40   C42   A    
C7    C50   S    
C37   H5    S    
O13   V3    S    
C49   O18   A    
C7    C53   S    
C1    C16   S    
C28   C36   A    
C32   C34   A    
C2    C15   S    
C48   C64   S    
O6    V2    S    
C8    C49   S    
C30   C42   A    
C32   H12   S    
C25   C33   A    
O22   C58   S    
C54   H21   S    
C28   C30   A    
C41   C47   A    
C38   C40   A    
C60   H35   S    
C42   C48   A    
C56   C57   S    
C30   C32   A    
C43   C45   A    
O21   C55   S    
C15   C47   A    
C64   H46   S    
C67   H57   S    
C16   C48   A    
O14   C50   A    
O13   C49   A    
C45   C65   S    
C61   H39   S    
C23   C27   A    
C3    C12   S    
C63   H44   S    
C44   H16   S    
C5    H1    S    
C40   C44   A    
C35   C37   A    
O14   V4    S    
C62   H41   S    
C21   H9    S    
C19   H7    S    
O6    C4    A    
O1    V2    S    
O19   V4    S    
C55   H24   S    
O2    V1    S    
C27   C29   A    
C31   H11   S    
C26   C34   A    
C18   C68   S    
O4    C2    A    
C31   C33   A    
C53   H19   S    
C39   C41   A    
C63   H43   S    
C43   H15   S    
C54   H22   S    
O3    V1    S    
C58   H30   S    
C60   H36   S    
O12   C52   A    
C64   H47   S    
C6    H2    S    
O16   C52   A    
C24   C26   A    
O3    C1    A    
C65   H49   S    
C20   H8    S    
C38   H6    S    
O12   V3    S    
C11   H3    S    
C50   O17   A    
O15   V3    S    
C56   H25   S    
C13   C19   A    
C12   H4    S    
C59   C60   S    
C14   C20   A    
C4    C11   S    
C17   C25   A    
C58   C59   S    
O7    V1    S    
C62   H42   S    
C16   C46   A    
C1    O8    A    
C21   C23   A    
O8    V2    S    
C22   C24   A    
C65   H50   S    
C27   C35   A    
O20   V3    S    
C9    O21   S    
C57   H28   S    
O5    V1    S    
C5    C7    D    
C18   C20   A    
C59   H33   S    
C6    C8    D    
C68   H59   S    
C55   H23   S    
C24   C28   A    
C9    C11   D    
C29   C31   A    
O11   C51   A    
C53   H18   S    
C60   H34   S    
O9    V2    S    
C13   C21   A    
O10   V1    S    
O18   V4    S    
C34   C62   S    
O16   V4    S    
C14   C51   S    
C62   H40   S    
C58   H31   S    
