data_mof_unit_50043.cif
_audit_creation_date              2012-12-10T18:06:48-0500
_audit_creation_method            fapswitch 2.2
_symmetry_space_group_name_H-M    P1
_symmetry_Int_Tables_number       1
_space_group_crystal_system       triclinic
_cell_length_a                    12.597715
_cell_length_b                    12.997595
_cell_length_c                    15.456889
_cell_angle_alpha                 82.756186
_cell_angle_beta                  98.376015
_cell_angle_gamma                 97.211223
_cell_volume                      2469.07914758

loop_
_atom_site_label
_atom_site_type_symbol
_atom_type_description
_atom_site_fract_x
_atom_site_fract_y
_atom_site_fract_z
_atom_type_partial_charge
C1    C     C_R   0.443134 0.307824 0.510621 0.839527
C2    C     C_R   0.639098 0.391019 0.938255 0.095020
C3    C     C_R   0.536938 0.424592 0.903378 0.059573
C4    C     C_R   0.434272 0.508498 0.336455 0.887609
C5    C     C_R   0.716541 0.389329 0.881406 -0.131648
C6    C     C_R   0.694239 0.422384 0.791974 -0.178811
C7    C     C_R   0.519072 0.462676 0.814606 -0.221580
C8    C     C_R   0.565361 0.932596 0.324649 -0.126287
C9    C     C_R   0.573258 0.801451 0.450762 -0.116547
C10   C     C_R   0.360409 0.155508 0.598727 -0.183164
C11   C     C_R   0.348619 0.048181 0.622365 -0.117449
C12   C     C_R   0.418615 0.444674 0.105009 0.071721
C13   C     C_R   0.394275 0.983092 0.576402 -0.114861
C14   C     C_R   0.449677 0.024983 0.504546 0.106613
C15   C     C_R   0.441690 0.129647 0.471134 0.043055
C16   C     C_R   0.553602 0.692028 0.483352 0.926031
C17   C     C_R   0.506704 0.964986 0.461296 -0.041368
C18   C     C_R   0.524825 0.999284 0.373041 0.042031
C19   C     C_R   0.500382 0.098603 0.334140 0.432523
C20   C     C_R   0.463451 0.164851 0.385125 -0.292987
C21   C     C_R   0.546942 0.872300 0.502542 0.070784
C22   C     C_R   0.582774 0.831780 0.360962 0.103432
C23   C     C_R   0.311499 0.464885 0.070121 0.108686
C24   C     C_R   0.409554 0.196561 0.524168 -0.080676
C25   C     C_R   0.138642 0.625358 0.635355 -0.214407
C26   C     C_R   0.757786 0.372043 0.402414 0.483777
C27   C     C_R   0.855487 0.337795 0.388181 0.321870
C28   C     C_R   0.563688 0.484988 0.664117 0.871396
C29   C     C_R   0.951628 0.380377 0.432125 -0.192363
C30   C     C_R   0.953155 0.462128 0.483946 -0.110816
C31   C     C_R   0.854464 0.497311 0.493100 0.031068
C32   C     C_R   0.049178 0.511631 0.526212 -0.037332
C33   C     C_R   0.043352 0.578713 0.590942 0.102885
C34   C     C_R   0.488136 0.414884 0.050553 0.050163
C35   C     C_R   0.942555 0.605452 0.603450 0.336029
C36   C     C_R   0.856049 0.584904 0.538011 0.102603
C37   C     C_R   0.150563 0.500451 0.504185 0.004707
C38   C     C_R   0.236765 0.611114 0.610488 -0.029605
C39   C     C_R   0.390679 0.496611 0.244824 -0.097774
C40   C     C_R   0.595155 0.459436 0.758452 -0.056181
C41   C     C_R   0.243357 0.495687 0.124938 0.165404
C42   C     C_R   0.283419 0.510872 0.211945 -0.200996
C43   C     C_R   0.456751 0.463514 0.191485 -0.240003
C44   C     C_R   0.457466 0.426000 0.958919 0.079704
C45   C     C_R   0.348822 0.439579 0.925859 -0.214624
C46   C     C_R   0.276573 0.456416 0.981034 -0.175652
C47   C     C_R   0.587825 0.376267 0.084364 -0.239892
C48   C     C_R   0.661379 0.361783 0.029028 0.158872
H1    H     H_    0.194832 0.467464 0.952061 0.183351
H2    H     H_    0.137532 0.675687 0.685905 0.205483
H3    H     H_    0.161572 0.454263 0.453613 0.128404
H4    H     H_    0.024063 0.348103 0.424275 0.184027
H5    H     H_    0.754206 0.418488 0.749226 0.167166
H6    H     H_    0.230828 0.534739 0.253472 0.187096
H7    H     H_    0.540122 0.457117 0.217324 0.205092
H8    H     H_    0.317100 0.435390 0.857457 0.148653
H9    H     H_    0.609271 0.353916 0.153776 0.176421
H10   H     H_    0.494544 0.201866 0.231017 0.341567
H11   H     H_    0.859478 0.683851 0.662787 0.361095
H12   H     H_    0.794726 0.363182 0.905093 0.180922
H13   H     H_    0.664838 0.256006 0.357407 0.329124
H14   H     H_    0.796859 0.262925 0.287728 0.360475
H15   H     H_    0.576292 0.955744 0.256433 0.223898
H16   H     H_    0.333624 0.206472 0.639532 0.156741
H17   H     H_    0.382721 0.899982 0.595465 0.160120
H18   H     H_    0.307901 0.015779 0.678319 0.160557
H19   H     H_    0.448152 0.242888 0.356306 0.166393
H20   H     H_    0.311272 0.647289 0.643355 0.152148
H21   H     H_    0.446371 0.497807 0.788310 0.161186
I1    I     I_    0.611677 0.730615 0.271342 -0.266784
I2    I     I_    0.593137 0.842264 0.642191 -0.351697
I3    I     I_    0.847665 0.726925 0.453961 -0.224258
I4    I     I_    0.806249 0.300086 0.088975 -0.269796
I5    I     I_    0.080668 0.524957 0.081935 -0.289980
N1    N     N_R   0.239390 0.551900 0.544730 -0.104694
N2    N     N_R   0.759950 0.448600 0.455730 -0.128521
O1    O     O_R   0.374950 0.371210 0.521360 -0.622729
O2    O     O_3   0.936320 0.672611 0.664609 -0.740993
O3    O     O_3   0.659185 0.329422 0.364771 -0.762768
O4    O     O_3   0.860914 0.263558 0.333022 -0.718626
O5    O     O_R   0.542050 0.338030 0.492790 -0.553935
O6    O     O_R   0.368720 0.526070 0.390200 -0.625148
O7    O     O_R   0.535820 0.492890 0.361630 -0.551189
O8    O     O_R   0.457950 0.661970 0.507210 -0.603243
O9    O     O_R   0.625050 0.628790 0.478640 -0.573866
O10   O     O_R   0.464180 0.507110 0.638370 -0.620183
O11   O     O_R   0.631280 0.473930 0.609800 -0.621063
O12   O     O_3   0.516617 0.130690 0.247841 -0.764246
Zn1   Zn    Zn3+2 0.388420 0.522150 0.519080 0.953865
Zn2   Zn    Zn3+2 0.611580 0.477850 0.480920 1.019877

loop_
_geom_bond_atom_site_label_1
_geom_bond_atom_site_label_2
_ccdc_geom_bond_type
C27   C29   A    
C1    O1    A    
C41   C42   A    
C20   H19   S    
C19   C20   A    
C13   H17   S    
C45   C46   A    
C46   H1    S    
O1    Zn1   S    
C26   C27   A    
O6    Zn1   S    
C21   I2    S    
H14   O4    S    
C9    C16   S    
C12   C43   A    
C3    C7    A    
C5    C6    A    
C37   H3    S    
C9    C22   A    
C28   C40   S    
C1    O5    A    
C16   O8    A    
C18   C19   A    
C25   H2    S    
C41   I5    S    
C35   C36   A    
C45   H8    S    
C26   N2    A    
C7    C40   A    
C11   H18   S    
C37   N1    A    
C23   C46   A    
C13   C14   A    
C14   C17   A    
H11   O2    S    
C39   C42   A    
C38   N1    A    
C15   C20   A    
C3    C44   A    
C34   C44   A    
C19   O12   S    
C39   C43   A    
C10   C24   A    
C8    C18   A    
C29   C30   A    
C25   C38   A    
C47   H9    S    
C8    C22   A    
C47   C48   A    
C12   C23   A    
C4    C39   S    
C28   O11   A    
C17   C18   A    
C32   C37   A    
O5    Zn2   S    
C43   H7    S    
C15   C24   A    
C38   H20   S    
C27   O4    S    
C28   O10   A    
C16   O9    A    
C6    C40   A    
C2    C5    A    
O8    Zn1   S    
C6    H5    S    
C12   C34   A    
C44   C45   A    
O7    Zn2   S    
C5    H12   S    
C14   C15   A    
C48   I4    S    
C10   H16   S    
O10   Zn1   S    
H10   O12   S    
C7    H21   S    
O9    Zn2   S    
C35   O2    S    
C26   O3    S    
C23   C41   A    
C2    C48   A    
C32   C33   A    
C2    C3    A    
C42   H6    S    
C30   C32   A    
C11   C13   A    
C9    C21   A    
C31   N2    A    
C30   C31   A    
C4    O7    A    
H13   O3    S    
C33   C35   A    
C17   C21   A    
C10   C11   A    
N1    Zn1   S    
C8    H15   S    
C4    O6    A    
C1    C24   S    
O11   Zn2   S    
C25   C33   A    
C31   C36   A    
C34   C47   A    
C22   I1    S    
C36   I3    S    
N2    Zn2   S    
C29   H4    S    
