data_mof_unit_8517.cif
_audit_creation_date              2012-12-10T20:43:24-0500
_audit_creation_method            fapswitch 2.2
_symmetry_space_group_name_H-M    P1
_symmetry_Int_Tables_number       1
_space_group_crystal_system       triclinic
_cell_length_a                    15.791505
_cell_length_b                    10.64925
_cell_length_c                    9.912219
_cell_angle_alpha                 90.107094
_cell_angle_beta                  90.898972
_cell_angle_gamma                 90.44022
_cell_volume                      1666.65724986

loop_
_atom_site_label
_atom_site_type_symbol
_atom_type_description
_atom_site_fract_x
_atom_site_fract_y
_atom_site_fract_z
_atom_type_partial_charge
C1    C     C_R   0.497728 0.260405 0.500401 0.933261
C2    C     C_R   0.436632 0.931796 0.417891 -0.206913
C3    C     C_R   0.494947 0.871093 0.502504 -0.245866
C4    C     C_R   0.339416 0.499122 0.498994 0.889114
C5    C     C_R   0.539287 0.937005 0.601898 0.099070
C6    C     C_3   0.631190 0.932533 0.640596 0.135874
C7    C     C_3   0.629618 0.075902 0.640779 0.208820
C8    C     C_R   0.491580 0.390241 0.069393 0.067328
C9    C     C_R   0.513707 0.607568 0.072380 -0.113732
C10   C     C_R   0.512956 0.607788 0.928861 -0.130599
C11   C     C_R   0.495831 0.389874 0.927720 0.142971
C12   C     C_R   0.047436 0.449449 0.620387 -0.182838
C13   C     C_3   0.429886 0.289602 0.912818 0.747083
C14   C     C_3   0.420738 0.293323 0.066993 -0.302319
C15   C     C_R   0.500454 0.739521 0.500202 0.913127
C16   C     C_R   0.660614 0.499305 0.501049 0.922291
C17   C     C_R   0.958837 0.449066 0.626580 0.102249
C18   C     C_R   0.913064 0.474539 0.506267 0.126777
C19   C     C_R   0.953685 0.496511 0.384343 -0.202414
C20   C     C_R   0.041075 0.496578 0.380407 -0.193657
C21   C     C_R   0.087187 0.474529 0.498532 0.138081
C22   C     C_3   0.334837 0.340241 0.118335 -0.338641
C23   C     C_1   0.823921 0.483169 0.505609 -0.074405
C24   C     C_3   0.261874 0.247422 0.087865 -0.328388
C25   C     C_3   0.180515 0.288756 0.155683 -0.883355
C26   C     C_3   0.911747 0.424418 0.757282 -0.402853
C27   C     C_3   0.967714 0.396728 0.881997 -0.376961
C28   C     C_3   0.914175 0.372224 0.006229 -0.856117
C29   C     C_1   0.176054 0.483178 0.496517 -0.067438
C30   C     C_1   0.250939 0.491298 0.496840 -0.168947
C31   C     C_1   0.749076 0.491400 0.503642 -0.141384
C32   C     C_R   0.537739 0.064948 0.601347 0.019870
C33   C     C_R   0.489799 0.128328 0.504850 -0.214680
C34   C     C_R   0.431159 0.061712 0.422217 0.420627
H1    H     H_    0.086472 0.432746 0.709110 0.138643
H2    H     H_    0.666651 0.089236 0.452684 0.331268
H3    H     H_    0.343842 0.412606 0.855552 0.318898
H4    H     H_    0.419497 0.112594 0.873877 0.342108
H5    H     H_    0.189592 0.291474 0.266996 0.275952
H6    H     H_    0.161711 0.383255 0.119235 0.253585
H7    H     H_    0.128647 0.221210 0.130818 0.256303
H8    H     H_    0.249084 0.240537 0.977861 0.255503
H9    H     H_    0.278788 0.152291 0.124710 0.264286
H10   H     H_    0.340518 0.348330 0.228398 0.257812
H11   H     H_    0.319614 0.434888 0.078086 0.189132
H12   H     H_    0.523779 0.694920 0.126178 0.163870
H13   H     H_    0.875450 0.455867 0.029805 0.260680
H14   H     H_    0.871665 0.289984 0.988914 0.269646
H15   H     H_    0.956344 0.352174 0.094176 0.250862
H16   H     H_    0.006833 0.312317 0.863101 0.231401
H17   H     H_    0.010121 0.478341 0.903745 0.222874
H18   H     H_    0.872445 0.507931 0.779554 0.209546
H19   H     H_    0.868270 0.343064 0.740261 0.224017
H20   H     H_    0.355617 0.200139 0.389872 0.323687
H21   H     H_    0.704040 0.885686 0.789088 0.337672
H22   H     H_    0.522019 0.695403 0.875963 0.205417
H23   H     H_    0.441180 0.204751 0.116655 0.216358
H24   H     H_    0.917639 0.516049 0.292888 0.152516
H25   H     H_    0.072612 0.516231 0.286357 0.146604
H26   H     H_    0.395262 0.878671 0.350243 0.177971
H27   H     H_    0.671405 0.887588 0.563013 0.101461
H28   H     H_    0.639774 0.120073 0.741535 0.192521
N1    N     N_R   0.499440 0.499140 0.142800 -0.099731
N2    N     N_R   0.499440 0.499180 0.857150 -0.139034
O1    O     O_R   0.500010 0.316790 0.614690 -0.556960
O2    O     O_3   0.358825 0.324664 0.833858 -0.757265
O3    O     O_3   0.464973 0.177037 0.867454 -0.764703
O4    O     O_3   0.368607 0.118780 0.346754 -0.792072
O5    O     O_3   0.642161 0.882960 0.770378 -0.757319
O6    O     O_R   0.500000 0.316760 0.385350 -0.621336
O7    O     O_R   0.378030 0.499990 0.614640 -0.591016
O8    O     O_R   0.378020 0.499950 0.385300 -0.647094
O9    O     O_R   0.500000 0.683240 0.614650 -0.601434
O10   O     O_R   0.499990 0.683210 0.385310 -0.636098
O11   O     O_R   0.621980 0.500050 0.614700 -0.603866
O12   O     O_R   0.621970 0.500010 0.385360 -0.606871
O13   O     O_3   0.680127 0.130650 0.540413 -0.782710
Zn1   Zn    Zn3+2 0.500010 0.500020 0.653130 1.003509
Zn2   Zn    Zn3+2 0.499990 0.499980 0.346870 0.948374

loop_
_geom_bond_atom_site_label_1
_geom_bond_atom_site_label_2
_ccdc_geom_bond_type
C6    O5    S    
C28   H13   S    
C16   O11   A    
C24   H8    S    
C19   C20   A    
O12   Zn2   S    
C1    C33   S    
N1    Zn2   S    
C16   C31   S    
C26   C27   S    
C17   C26   S    
C6    H27   S    
O8    Zn2   S    
H2    O13   S    
C25   H6    S    
C5    C6    S    
C2    H26   S    
H20   O4    S    
C18   C19   A    
C22   H10   S    
C12   C17   A    
C1    O1    A    
O9    Zn1   S    
O1    Zn1   S    
C10   H22   S    
C9    C10   A    
C27   H16   S    
C7    O13   S    
C5    C32   A    
C2    C34   A    
C9    H12   S    
C9    N1    A    
C13   C14   S    
C27   H17   S    
C33   C34   A    
C13   O2    S    
C19   H24   S    
C18   C23   S    
C24   C25   S    
C11   N2    A    
C34   O4    S    
C21   C29   S    
C12   C21   A    
C12   H1    S    
C23   C31   T    
C7    H28   S    
C29   C30   T    
C26   H18   S    
C28   H15   S    
H3    O2    S    
C15   O10   A    
C17   C18   A    
H4    O3    S    
C20   H25   S    
H21   O5    S    
C15   O9    A    
O10   Zn2   S    
C22   C24   S    
C25   H7    S    
C26   H19   S    
C4    O8    A    
C3    C15   S    
C13   O3    S    
C14   H23   S    
C28   H14   S    
C8    C14   S    
C7    C32   S    
O6    Zn2   S    
C16   O12   A    
N2    Zn1   S    
C10   N2    A    
C3    C5    A    
C6    C7    S    
C1    O6    A    
C32   C33   A    
C14   C22   S    
C2    C3    A    
C25   H5    S    
C11   C13   S    
C8    C11   A    
O7    Zn1   S    
O11   Zn1   S    
C8    N1    A    
C22   H11   S    
C20   C21   A    
C27   C28   S    
C24   H9    S    
C4    O7    A    
C4    C30   S    
