data_mof_unit_37383.cif
_audit_creation_date              2012-10-26T18:54:52-0400
_audit_creation_method            fapswitch 2.2
_symmetry_space_group_name_H-M    P1
_symmetry_Int_Tables_number       1
_space_group_crystal_system       triclinic
_cell_length_a                    10.740879
_cell_length_b                    9.644955
_cell_length_c                    10.846526
_cell_angle_alpha                 90.757073
_cell_angle_beta                  92.158831
_cell_angle_gamma                 89.902276
_cell_volume                      1122.75269628

loop_
_atom_site_label
_atom_site_type_symbol
_atom_type_description
_atom_site_fract_x
_atom_site_fract_y
_atom_site_fract_z
_atom_type_partial_charge
C1    C     C_R   0.262542 0.500287 0.500357 0.614503
C2    C     C_R   0.512633 0.625542 0.940246 0.039198
C3    C     C_R   0.505049 0.497585 0.129883 0.032127
C4    C     C_R   0.513499 0.501526 0.871588 0.026846
C5    C     C_R   0.525318 0.373900 0.063870 -0.108238
C6    C     C_R   0.527546 0.375541 0.935309 -0.076926
C7    C     C_3   0.431672 0.752055 0.929349 0.097671
C8    C     C_3   0.410828 0.740583 0.067458 0.133262
C9    C     C_R   0.059607 0.447929 0.401569 -0.108036
C10   C     C_R   0.931035 0.445877 0.402484 -0.127807
C11   C     C_R   0.870754 0.500988 0.503630 0.007736
C12   C     C_R   0.737090 0.500084 0.500748 0.576377
C13   C     C_R   0.128295 0.501789 0.502986 0.007123
C14   C     C_R   0.938166 0.558370 0.605253 0.252327
C15   C     C_R   0.068163 0.557960 0.605135 0.251965
C16   C     C_R   0.404439 0.069056 0.441166 0.313315
C17   C     C_R   0.597467 0.070694 0.556137 0.335188
C18   C     C_R   0.404946 0.922472 0.446204 0.022603
C19   C     C_R   0.596427 0.923793 0.551658 0.062504
C20   C     C_R   0.499172 0.499157 0.262773 0.586305
C21   C     C_R   0.502466 0.500844 0.737610 0.591475
C22   C     C_R   0.500498 0.621626 0.065888 -0.010470
Cl1   Cl    Cl    0.860334 0.626161 0.733775 -0.421372
Cl2   Cl    Cl    0.154735 0.623397 0.734133 -0.470672
Cu1   Cu    Cu3+1 0.500000 0.640660 0.500000 1.058491
Cu2   Cu    Cu3+1 0.500000 0.359340 0.500000 1.174828
H1    H     H_    0.534207 0.275597 0.110534 0.192985
H2    H     H_    0.144243 0.688575 0.259049 0.372398
H3    H     H_    0.243351 0.257420 0.194547 0.378808
H4    H     H_    0.801087 0.304608 0.750273 0.382671
H5    H     H_    0.535362 0.277596 0.886293 0.237357
H6    H     H_    0.348198 0.735360 0.868181 0.192742
H7    H     H_    0.444530 0.828003 0.127147 0.176758
H8    H     H_    0.105167 0.408972 0.321085 0.204463
H9    H     H_    0.878316 0.403413 0.323621 0.159059
H10   H     H_    0.328827 0.862612 0.405758 0.217559
H11   H     H_    0.673679 0.864880 0.590191 0.220245
H12   H     H_    0.393039 0.936198 0.732439 0.343932
N1    N     N_R   0.500000 0.852070 0.500000 -0.329557
N2    N     N_R   0.500000 0.147940 0.500000 -0.266464
O1    O     O_R   0.319640 0.618740 0.499990 -0.484690
O2    O     O_2   0.634808 0.857070 0.826342 -0.193067
O3    O     O_3   0.431764 0.001657 0.793576 -0.488208
O4    O     O_2   0.166309 0.799128 0.044039 -0.167974
O5    O     O_2   0.223598 0.553023 0.035294 -0.237138
O6    O     O_3   0.235038 0.679048 0.248400 -0.532830
O7    O     O_2   0.217641 0.020787 0.274107 -0.269687
O8    O     O_2   0.172058 0.167027 0.450238 -0.229907
O9    O     O_3   0.295483 0.271175 0.271002 -0.512547
O10   O     O_2   0.797580 0.029146 0.710220 -0.188643
O11   O     O_2   0.827573 0.170337 0.531038 -0.261746
O12   O     O_R   0.680360 0.618740 0.500010 -0.503087
O13   O     O_3   0.716453 0.277808 0.719360 -0.494793
O14   O     O_R   0.319620 0.381170 0.499990 -0.420488
O15   O     O_R   0.680380 0.381170 0.500010 -0.441457
O16   O     O_R   0.499990 0.618810 0.319660 -0.492893
O17   O     O_R   0.500010 0.618810 0.680340 -0.483765
O18   O     O_R   0.499960 0.381240 0.319650 -0.476412
O19   O     O_R   0.500040 0.381240 0.680350 -0.457221
O20   O     O_2   0.556906 0.987662 0.001550 -0.259105
S1    S     S_3+6 0.519290 0.902434 0.889290 0.050833
S2    S     S_3+6 0.253466 0.690666 0.095950 0.050859
S3    S     S_3+6 0.269598 0.133152 0.358789 0.052272
S4    S     S_3+6 0.737545 0.137678 0.629371 0.098415

loop_
_geom_bond_atom_site_label_1
_geom_bond_atom_site_label_2
_ccdc_geom_bond_type
C14   Cl1   S    
C2    C22   A    
C8    C22   S    
C1    O14   A    
C21   O17   A    
C10   H9    S    
O9    S3    S    
C16   S3    S    
O10   S4    D    
C9    C10   A    
C2    C4    A    
C2    C7    S    
Cu1   O16   S    
C20   O16   A    
Cu2   N2    S    
Cu2   O15   S    
C3    C20   S    
C6    H5    S    
Cu1   O12   S    
C7    C8    S    
H3    O9    S    
Cu1   N1    S    
C4    C21   S    
Cu2   O18   S    
O2    S1    D    
H2    O6    S    
C9    H8    S    
C19   N1    A    
O6    S2    S    
Cu2   O14   S    
C1    O1    A    
C15   Cl2   S    
C17   C19   A    
C16   N2    A    
C21   O19   A    
C8    H7    S    
C13   C15   A    
C17   S4    S    
O7    S3    D    
C5    C6    A    
H4    O13   S    
C12   O15   A    
C1    C13   S    
C10   C11   A    
C20   O18   A    
Cu1   O17   S    
C3    C5    A    
O5    S2    D    
H12   O3    S    
O3    S1    S    
C16   C18   A    
C4    C6    A    
Cu2   O19   S    
Cu1   O1    S    
C11   C14   A    
C18   N1    A    
C9    C13   A    
C14   C15   A    
C7    S1    S    
C3    C22   A    
C7    H6    S    
C19   H11   S    
C12   O12   A    
Cu1   Cu2   S    
C5    H1    S    
C18   H10   S    
O13   S4    S    
O11   S4    D    
C11   C12   S    
C8    S2    S    
O20   S1    D    
O8    S3    D    
C17   N2    A    
O4    S2    D    
