data_mof_unit_15612.cif
_audit_creation_date              2012-12-10T18:05:59-0500
_audit_creation_method            fapswitch 2.2
_symmetry_space_group_name_H-M    P1
_symmetry_Int_Tables_number       1
_space_group_crystal_system       triclinic
_cell_length_a                    12.585248
_cell_length_b                    13.122158
_cell_length_c                    14.997717
_cell_angle_alpha                 90.52897
_cell_angle_beta                  102.665699
_cell_angle_gamma                 82.181341
_cell_volume                      2393.527849

loop_
_atom_site_label
_atom_site_type_symbol
_atom_type_description
_atom_site_fract_x
_atom_site_fract_y
_atom_site_fract_z
_atom_type_partial_charge
C1    C     C_R   0.438574 0.691283 0.486235 0.880274
C2    C     C_R   0.599986 0.500612 0.833422 -0.257548
C3    C     C_R   0.500723 0.502034 0.769232 -0.072668
C4    C     C_R   0.500418 0.500752 0.673104 0.886146
C5    C     C_R   0.401166 0.503557 0.796732 -0.251179
C6    C     C_R   0.700919 0.063713 0.435001 -0.200730
C7    C     C_R   0.597303 0.199898 0.502257 -0.054357
C8    C     C_R   0.300523 0.838177 0.502717 -0.325628
C9    C     C_R   0.271452 0.943521 0.511821 0.571963
C10   C     C_R   0.346277 0.010238 0.503793 -0.253634
C11   C     C_R   0.446969 0.973625 0.478850 0.007000
C12   C     C_R   0.399773 0.499626 0.074237 0.108991
C13   C     C_R   0.466033 0.870034 0.454461 0.076251
C14   C     C_R   0.529696 0.036169 0.477612 0.118107
C15   C     C_R   0.620969 0.999982 0.438983 0.171977
C16   C     C_R   0.561266 0.308700 0.509465 0.873331
C17   C     C_R   0.629832 0.901663 0.403355 -0.248890
C18   C     C_R   0.553248 0.837356 0.410811 -0.168430
C19   C     C_R   0.524771 0.133591 0.514937 -0.218052
C20   C     C_R   0.687937 0.164526 0.465008 -0.195180
C21   C     C_R   0.398780 0.801052 0.476512 -0.172041
C22   C     C_R   0.087324 0.347148 0.372763 -0.401212
C23   C     C_R   0.699320 0.495591 0.083425 -0.216158
C24   C     C_R   0.799513 0.630523 0.607794 0.018529
C25   C     C_R   0.904112 0.659319 0.629670 -0.255877
C26   C     C_R   0.985709 0.609936 0.588861 -0.206143
C27   C     C_R   0.962717 0.530828 0.525757 0.045689
C28   C     C_R   0.499618 0.499193 0.326914 0.879011
C29   C     C_R   0.854739 0.504228 0.506064 0.234604
C30   C     C_R   0.041845 0.477533 0.481318 -0.001804
C31   C     C_R   0.011151 0.399728 0.417981 0.107814
C32   C     C_R   0.904841 0.374845 0.400453 -0.273185
C33   C     C_R   0.828109 0.426141 0.444235 -0.220678
C34   C     C_R   0.699527 0.497090 0.990811 -0.215072
C35   C     C_R   0.150933 0.497884 0.496962 -0.185210
C36   C     C_R   0.193623 0.371058 0.391188 0.763042
C37   C     C_R   0.400257 0.498768 0.166667 -0.227267
C38   C     C_R   0.499463 0.497581 0.230848 -0.071473
C39   C     C_R   0.599067 0.495886 0.203387 -0.266261
C40   C     C_R   0.600093 0.496587 0.111388 0.118666
C41   C     C_R   0.500050 0.498777 0.046440 0.061788
C42   C     C_3   0.083442 0.978317 0.470624 0.096799
C43   C     C_3   0.054683 0.080524 0.417489 -0.874942
C44   C     C_R   0.600530 0.499497 0.925872 0.118144
C45   C     C_R   0.500267 0.500287 0.953679 0.062837
C46   C     C_R   0.400207 0.502551 0.888741 0.116248
C47   C     C_R   0.300999 0.503428 0.916712 -0.212780
C48   C     C_R   0.300794 0.501926 0.009314 -0.207012
F1    F     F_    0.268898 0.320689 0.348334 -0.659364
H1    H     H_    0.323374 0.500290 0.188440 0.174581
H2    H     H_    0.675972 0.494056 0.253449 0.167802
H3    H     H_    0.182170 0.554727 0.544077 0.152017
H4    H     H_    0.735564 0.668825 0.638989 0.143757
H5    H     H_    0.065278 0.635471 0.607870 0.138319
H6    H     H_    0.921857 0.719905 0.677898 0.155893
H7    H     H_    0.748284 0.402972 0.428223 0.209705
H8    H     H_    0.776459 0.493819 0.133096 0.150806
H9    H     H_    0.776817 0.496343 0.969971 0.148170
H10   H     H_    0.676844 0.499169 0.811618 0.163416
H11   H     H_    0.324220 0.505584 0.746656 0.160962
H12   H     H_    0.696945 0.873816 0.370997 0.147079
H13   H     H_    0.223856 0.505185 0.867057 0.149404
H14   H     H_    0.223505 0.502669 0.030156 0.150242
H15   H     H_    0.744892 0.215761 0.454703 0.149983
H16   H     H_    0.013469 0.967413 0.501945 0.171182
H17   H     H_    0.091278 0.913505 0.422748 0.123891
H18   H     H_    0.121186 0.092378 0.382351 0.258773
H19   H     H_    0.976873 0.080488 0.365449 0.209300
H20   H     H_    0.043890 0.144868 0.464754 0.274584
H21   H     H_    0.770481 0.037106 0.405131 0.132993
H22   H     H_    0.461788 0.162109 0.550960 0.146608
H23   H     H_    0.248236 0.785521 0.519614 0.165011
H24   H     H_    0.321680 0.090462 0.514978 0.168618
H25   H     H_    0.562513 0.761962 0.381335 0.167390
H26   H     H_    0.880798 0.315158 0.352740 0.156280
H27   H     H_    0.064821 0.288155 0.323900 0.175656
N1    N     N_R   0.222190 0.444670 0.452360 -0.151128
N2    N     N_R   0.776970 0.554790 0.547140 -0.133602
O1    O     O_R   0.366740 0.627160 0.477250 -0.622216
O2    O     O_R   0.544830 0.662520 0.507680 -0.619746
O3    O     O_R   0.410940 0.482340 0.616930 -0.630187
O4    O     O_R   0.589030 0.517700 0.647360 -0.624896
O5    O     O_R   0.455170 0.337480 0.492320 -0.560254
O6    O     O_R   0.633260 0.372840 0.522750 -0.643582
O7    O     O_R   0.410970 0.482300 0.352640 -0.571972
O8    O     O_R   0.589060 0.517660 0.383070 -0.657256
O9    O     O_3   0.177536 0.980545 0.542057 -0.617073
Zn1   Zn    Zn3+2 0.381090 0.476390 0.479680 0.989511
Zn2   Zn    Zn3+2 0.618910 0.523610 0.520320 0.925543

loop_
_geom_bond_atom_site_label_1
_geom_bond_atom_site_label_2
_ccdc_geom_bond_type
C39   H2    S    
C1    C21   S    
C27   C29   A    
C19   H22   S    
C22   H27   S    
C12   C48   A    
C32   H26   S    
C45   C46   A    
C26   C27   A    
C37   C38   A    
O4    Zn2   S    
C30   C35   A    
C36   N1    A    
C30   C31   A    
C10   H24   S    
C23   C40   A    
C29   C33   A    
C16   O6    A    
C23   H8    S    
C12   C37   A    
C17   H12   S    
C6    C15   A    
C29   N2    A    
C47   C48   A    
N1    Zn1   S    
C2    C44   A    
C8    C9    A    
C42   H16   S    
C9    C10   A    
C33   H7    S    
O5    Zn1   S    
O2    Zn2   S    
C18   H25   S    
C27   C30   A    
C47   H13   S    
C26   H5    S    
O1    Zn1   S    
C8    C21   A    
N2    Zn2   S    
C8    H23   S    
C22   C31   A    
C4    O3    A    
C34   C44   A    
C24   C25   A    
C39   C40   A    
C2    H10   S    
C43   H19   S    
C48   H14   S    
C24   H4    S    
C35   N1    A    
C16   O5    A    
C20   H15   S    
C12   C41   A    
C31   C32   A    
C28   C38   S    
C23   C34   A    
C17   C18   A    
C13   C21   A    
C13   C18   A    
C24   N2    A    
C40   C41   A    
C7    C19   A    
C28   O8    A    
C1    O1    A    
O6    Zn2   S    
C3    C4    S    
C28   O7    A    
C22   C36   A    
C44   C45   A    
C34   H9    S    
O7    Zn1   S    
C6    H21   S    
C46   C47   A    
C7    C16   S    
C5    H11   S    
C14   C19   A    
C25   H6    S    
C3    C5    A    
O8    Zn2   S    
C15   C17   A    
C6    C20   A    
C5    C46   A    
C32   C33   A    
C2    C3    A    
C25   C26   A    
C9    O9    S    
C37   H1    S    
C11   C13   A    
C38   C39   A    
C11   C14   A    
O3    Zn1   S    
C10   C11   A    
C4    O4    A    
C43   H18   S    
C7    C20   A    
C42   C43   S    
C35   H3    S    
C42   H17   S    
C1    O2    A    
C41   C45   A    
C14   C15   A    
C42   O9    S    
C43   H20   S    
C36   F1    S    
