data_mof_unit_31167.cif
_audit_creation_date              2012-12-10T20:25:45-0500
_audit_creation_method            fapswitch 2.2
_symmetry_space_group_name_H-M    P1
_symmetry_Int_Tables_number       1
_space_group_crystal_system       triclinic
_cell_length_a                    8.579217
_cell_length_b                    10.646758
_cell_length_c                    9.878793
_cell_angle_alpha                 89.949865
_cell_angle_beta                  98.771295
_cell_angle_gamma                 89.990343
_cell_volume                      891.78401652

loop_
_atom_site_label
_atom_site_type_symbol
_atom_type_description
_atom_site_fract_x
_atom_site_fract_y
_atom_site_fract_z
_atom_type_partial_charge
C1    C     C_R   0.503519 0.260447 0.500642 0.891864
C2    C     C_R   0.375328 0.451302 0.912342 0.221384
C3    C     C_3   0.317148 0.319341 0.899032 -0.520689
C4    C     C_R   0.201175 0.499838 0.464055 0.959196
C5    C     C_3   0.317220 0.319244 0.052831 -0.496129
C6    C     C_R   0.504046 0.739545 0.500594 0.890069
C7    C     C_R   0.798832 0.499891 0.535944 0.970012
C8    C     C_2   0.035870 0.499664 0.444824 -0.355366
C9    C     C_2   0.964138 0.499543 0.555173 -0.384177
C10   C     C_R   0.428993 0.063670 0.586788 0.113009
C11   C     C_R   0.519588 0.128693 0.505305 -0.157993
C12   C     C_R   0.633623 0.934368 0.441012 -0.070159
C13   C     C_R   0.633198 0.065965 0.440774 -0.077036
C14   C     C_1   0.746270 0.135289 0.374544 0.193957
C15   C     C_1   0.748077 0.865435 0.376158 0.191501
C16   C     C_R   0.520016 0.871333 0.505264 -0.158087
C17   C     C_R   0.429184 0.936079 0.586679 0.125432
C18   C     C_3   0.255904 0.928324 0.590272 -0.470104
C19   C     C_3   0.255549 0.070773 0.590209 -0.486020
C20   C     C_R   0.375340 0.451257 0.054745 0.217005
C21   C     C_R   0.616298 0.557997 0.087247 -0.116020
C22   C     C_R   0.616262 0.558073 0.943380 -0.125432
H1    H     H_    0.973697 0.499822 0.340239 0.182560
H2    H     H_    0.188669 0.112371 0.495407 0.209075
H3    H     H_    0.228527 0.111583 0.687451 0.205707
H4    H     H_    0.711830 0.602798 0.153884 0.161939
H5    H     H_    0.711668 0.603047 0.901840 0.150841
H6    H     H_    0.196882 0.313271 0.838795 0.197918
H7    H     H_    0.405059 0.253760 0.866194 0.225374
H8    H     H_    0.196998 0.313010 0.081282 0.205711
H9    H     H_    0.405142 0.253594 0.108987 0.226508
H10   H     H_    0.026313 0.499294 0.659762 0.173877
H11   H     H_    0.189153 0.886697 0.495527 0.207845
H12   H     H_    0.229621 0.886988 0.687670 0.208952
N1    N     N_R   0.498950 0.499140 0.142680 -0.109617
N2    N     N_R   0.498950 0.499180 0.857030 -0.109132
N3    N     N_1   0.836508 0.190641 0.321887 -0.215229
N4    N     N_1   0.839704 0.810557 0.324743 -0.231753
O1    O     O_R   0.500020 0.316790 0.614690 -0.618755
O2    O     O_R   0.500000 0.316760 0.385350 -0.617215
O3    O     O_R   0.271760 0.500010 0.587850 -0.615506
O4    O     O_R   0.271740 0.499970 0.358500 -0.623610
O5    O     O_R   0.500000 0.683240 0.614650 -0.618259
O6    O     O_R   0.499980 0.683210 0.385310 -0.612557
O7    O     O_R   0.728260 0.500030 0.641500 -0.633608
O8    O     O_R   0.728240 0.499990 0.412150 -0.610679
Zn1   Zn    Zn3+2 0.500010 0.500020 0.653130 0.944326
Zn2   Zn    Zn3+2 0.499990 0.499980 0.346870 0.959069

loop_
_geom_bond_atom_site_label_1
_geom_bond_atom_site_label_2
_ccdc_geom_bond_type
C21   H4    S    
C15   N4    T    
C21   N1    A    
C6    C16   S    
C18   H12   S    
C9    H10   S    
C12   C15   S    
C10   C19   S    
C4    C8    S    
C17   C18   S    
O3    Zn1   S    
C5    C20   S    
O4    Zn2   S    
C21   C22   A    
C14   N3    T    
C11   C13   A    
C4    O4    A    
C12   C16   A    
N1    Zn2   S    
C7    O7    A    
C3    H6    S    
C19   H2    S    
C2    C3    S    
C22   H5    S    
O7    Zn1   S    
C19   H3    S    
C18   H11   S    
O8    Zn2   S    
C10   C11   A    
C1    O1    A    
C10   C17   A    
C2    C20   A    
C7    O8    A    
C7    C9    S    
C8    H1    S    
C22   N2    A    
C12   C13   A    
N2    Zn1   S    
O1    Zn1   S    
C18   C19   S    
C4    O3    A    
C2    N2    A    
C3    H7    S    
O2    Zn2   S    
C6    O5    A    
C8    C9    D    
C6    O6    A    
C1    O2    A    
C5    H9    S    
C13   C14   S    
C20   N1    A    
O5    Zn1   S    
O6    Zn2   S    
C5    H8    S    
C16   C17   A    
C3    C5    S    
C1    C11   S    
