data_mof_unit_5683.cif
_audit_creation_date              2012-12-10T17:01:38-0500
_audit_creation_method            fapswitch 2.2
_symmetry_space_group_name_H-M    P1
_symmetry_Int_Tables_number       1
_space_group_crystal_system       triclinic
_cell_length_a                    9.954887
_cell_length_b                    11.003547
_cell_length_c                    12.958656
_cell_angle_alpha                 87.808764
_cell_angle_beta                  75.663557
_cell_angle_gamma                 108.969031
_cell_volume                      1289.62442282

loop_
_atom_site_label
_atom_site_type_symbol
_atom_type_description
_atom_site_fract_x
_atom_site_fract_y
_atom_site_fract_z
_atom_type_partial_charge
C1    C     C_R   0.441494 0.255540 0.510091 0.869366
C2    C     C_R   0.558915 0.744382 0.490838 0.859640
C3    C     C_2   0.084558 0.516499 0.489037 0.253572
C4    C     C_2   0.930587 0.470932 0.472487 0.161661
C5    C     C_R   0.473438 0.496101 0.701903 0.803794
C6    C     C_R   0.526715 0.504055 0.298138 0.795071
C7    C     C_R   0.542343 0.513322 0.183759 -0.074428
C8    C     C_R   0.458644 0.487528 0.816299 -0.074221
C9    C     C_R   0.341319 0.359062 0.989876 -0.188664
C10   C     C_R   0.659272 0.642567 0.010577 -0.186074
C11   C     C_R   0.347414 0.381093 0.882715 -0.201860
C12   C     C_R   0.651460 0.621552 0.118164 -0.207879
C13   C     C_R   0.561676 0.577668 0.857790 -0.079991
C14   C     C_R   0.442699 0.421219 0.141377 -0.081515
C15   C     C_R   0.556202 0.556070 0.966718 0.109911
C16   C     C_R   0.446121 0.444309 0.033088 0.109115
C17   C     C_2   0.412380 0.118634 0.533093 -0.362323
C18   C     C_2   0.592158 0.881661 0.467902 -0.355266
C19   C     C_2   0.506383 0.064690 0.479273 -0.041372
C20   C     C_2   0.510726 0.942424 0.527144 -0.043887
Cu1   Cu    Cu3+1 0.647370 0.522180 0.481340 0.950373
Cu2   Cu    Cu3+1 0.352630 0.477820 0.518660 0.946079
H1    H     H_    0.728465 0.692190 0.151165 0.156263
H2    H     H_    0.268202 0.311807 0.850434 0.156212
H3    H     H_    0.254575 0.274266 0.038164 0.157320
H4    H     H_    0.745117 0.728194 0.962782 0.157733
H5    H     H_    0.672134 0.927902 0.391612 0.144704
H6    H     H_    0.327020 0.068486 0.606108 0.149853
H7    H     H_    0.919544 0.649000 0.464068 0.218043
H8    H     H_    0.053681 0.358621 0.588459 0.188598
N1    N     N_2   0.131210 0.444490 0.546730 -0.298572
N2    N     N_2   0.868790 0.555510 0.453270 -0.319716
O1    O     O_R   0.578710 0.332530 0.490040 -0.594820
O2    O     O_R   0.421290 0.667470 0.509960 -0.575337
O3    O     O_R   0.329810 0.295070 0.521560 -0.570917
O4    O     O_R   0.670190 0.704930 0.478440 -0.575362
O5    O     O_R   0.604230 0.515670 0.637800 -0.570723
O6    O     O_R   0.395770 0.484330 0.362200 -0.598596
O7    O     O_R   0.355330 0.478200 0.669330 -0.568333
O8    O     O_R   0.644670 0.521800 0.330670 -0.568753
C21   C     C_1   0.343861 0.300797 0.207780 0.232309
N3    N     N_1   0.266154 0.204401 0.260485 -0.283548
C22   C     C_1   0.670280 0.692461 0.788656 0.243474
N4    N     N_1   0.756615 0.783810 0.733452 -0.278258
C23   C     C_1   0.427762 0.888028 0.637821 0.264742
N5    N     N_1   0.362148 0.844745 0.725761 -0.287774
C24   C     C_1   0.591517 0.119444 0.368950 0.251500
N6    N     N_1   0.657919 0.162140 0.281024 -0.297736
C25   C     C_3   0.869379 0.334248 0.446447 -0.368353
C26   C     C_3   0.986306 0.280451 0.386413 -0.819572
H9    H     H_    0.067929 0.353145 0.319035 0.260712
H10   H     H_    0.043908 0.251529 0.440742 0.267598
H11   H     H_    0.932007 0.192266 0.352598 0.255563
H12   H     H_    0.798503 0.267792 0.520702 0.208917
H13   H     H_    0.804895 0.337295 0.388854 0.267474
C27   C     C_3   0.185948 0.645595 0.422527 -0.340741
C28   C     C_3   0.194001 0.759821 0.487608 -0.784421
H14   H     H_    0.096232 0.789909 0.499202 0.223292
H15   H     H_    0.204258 0.735663 0.568401 0.280127
H16   H     H_    0.289362 0.844832 0.442562 0.250174
H17   H     H_    0.296282 0.645563 0.382086 0.243817
H18   H     H_    0.145843 0.664305 0.352807 0.162001

loop_
_geom_bond_atom_site_label_1
_geom_bond_atom_site_label_2
_ccdc_geom_bond_type
C5    C8    S    
C26   H10   S    
C22   N4    T    
C6    O6    A    
C8    C13   A    
C5    O5    A    
C2    C18   S    
C3    C27   S    
C1    C17   S    
C20   C23   S    
C8    C11   A    
C4    C25   S    
C10   H4    S    
C19   C20   S    
C13   C15   A    
C26   H9    S    
C9    H3    S    
H7    N2    S    
C27   H17   S    
Cu1   O4    S    
C25   H13   S    
C23   N5    T    
C3    N1    D    
Cu2   O3    S    
C9    C11   A    
C12   H1    S    
C2    O2    A    
C28   H14   S    
C4    N2    D    
Cu1   O8    S    
C10   C12   A    
C14   C21   S    
Cu2   O7    S    
C17   C19   D    
C9    C16   A    
C6    C7    S    
C27   H18   S    
C10   C15   A    
C5    O7    A    
C7    C12   A    
Cu2   O2    S    
Cu1   N2    S    
C14   C16   A    
C28   H15   S    
C26   H11   S    
Cu1   O1    S    
Cu2   N1    S    
C18   H5    S    
C1    O1    A    
C25   H12   S    
Cu2   O6    S    
C24   N6    T    
C11   H2    S    
C13   C22   S    
C6    O8    A    
Cu1   O5    S    
C27   C28   S    
C1    O3    A    
C18   C20   D    
C25   C26   S    
C21   N3    T    
C19   C24   S    
C2    O4    A    
H8    N1    S    
C28   H16   S    
Cu1   Cu2   S    
C17   H6    S    
C7    C14   A    
C3    C4    S    
C15   C16   A    
