data_mof_unit_62659.cif
_audit_creation_date              2012-12-10T18:01:52-0500
_audit_creation_method            fapswitch 2.2
_symmetry_space_group_name_H-M    P1
_symmetry_Int_Tables_number       1
_space_group_crystal_system       triclinic
_cell_length_a                    21.716304
_cell_length_b                    21.716315
_cell_length_c                    47.150687
_cell_angle_alpha                 89.999896
_cell_angle_beta                  90.000062
_cell_angle_gamma                 89.999961
_cell_volume                      22236.1743227

loop_
_atom_site_label
_atom_site_type_symbol
_atom_type_description
_atom_site_fract_x
_atom_site_fract_y
_atom_site_fract_z
_atom_type_partial_charge
C1    C     C_R   0.000918 0.881079 0.999909 0.831701
C2    C     C_R   0.998617 0.685374 0.000311 -0.121696
C3    C     C_R   0.976225 0.390676 0.764423 -0.160607
C4    C     C_R   0.109323 0.476221 0.264423 -0.160607
C5    C     C_R   0.523774 0.109323 0.264423 -0.160607
C6    C     C_R   0.890677 0.523781 0.264423 -0.160607
C7    C     C_R   0.476224 0.890675 0.264423 -0.160607
C8    C     C_R   0.554838 0.987970 0.779577 -0.016768
C9    C     C_R   0.012034 0.554835 0.779577 -0.016768
C10   C     C_R   0.445168 0.012043 0.779577 -0.016767
C11   C     C_R   0.987969 0.445164 0.779577 -0.016767
C12   C     C_R   0.054836 0.487967 0.279577 -0.016768
C13   C     C_R   0.314625 0.998617 0.000311 -0.121695
C14   C     C_R   0.512031 0.054835 0.279577 -0.016769
C15   C     C_R   0.945165 0.512035 0.279577 -0.016768
C16   C     C_R   0.487968 0.945164 0.279577 -0.016767
C17   C     C_R   0.500003 0.000007 0.764613 -0.012346
C18   C     C_R   0.000002 0.499999 0.764613 -0.012346
C19   C     C_R   0.000000 0.500001 0.264612 -0.012346
C20   C     C_R   0.499999 0.999999 0.264612 -0.012346
C21   C     C_R   0.553714 0.988144 0.809396 0.530945
C22   C     C_R   0.011858 0.553712 0.809396 0.530946
C23   C     C_R   0.446291 0.011865 0.809396 0.530945
C24   C     C_R   0.001383 0.314625 0.000311 -0.121689
C25   C     C_R   0.988144 0.446287 0.809396 0.530946
C26   C     C_R   0.053713 0.488142 0.309396 0.530946
C27   C     C_R   0.511855 0.053712 0.309396 0.530946
C28   C     C_R   0.946288 0.511859 0.309396 0.530944
C29   C     C_R   0.488144 0.946287 0.309396 0.530944
C30   C     C_R   0.506719 0.944659 0.869145 -0.105127
C31   C     C_R   0.055343 0.506719 0.869145 -0.105129
C32   C     C_R   0.493285 0.055345 0.869146 -0.105128
C33   C     C_R   0.944657 0.493281 0.869145 -0.105127
C34   C     C_R   0.006718 0.444657 0.369145 -0.105128
C35   C     C_R   0.185374 0.501383 0.500312 -0.121693
C36   C     C_R   0.555343 0.006719 0.369145 -0.105130
C37   C     C_R   0.993282 0.555343 0.369145 -0.105128
C38   C     C_R   0.444657 0.993280 0.369145 -0.105127
C39   C     C_R   0.506562 0.944576 0.898787 -0.212119
C40   C     C_R   0.055425 0.506562 0.898787 -0.212118
C41   C     C_R   0.493441 0.055426 0.898787 -0.212117
C42   C     C_R   0.944575 0.493437 0.898787 -0.212118
C43   C     C_R   0.006562 0.444575 0.398787 -0.212118
C44   C     C_R   0.555425 0.006562 0.398787 -0.212119
C45   C     C_R   0.993439 0.555425 0.398787 -0.212119
C46   C     C_R   0.498619 0.185375 0.500311 -0.121717
C47   C     C_R   0.444575 0.993437 0.398787 -0.212119
C48   C     C_R   0.500001 0.000001 0.913945 -0.042705
C49   C     C_R   0.000000 0.500000 0.913945 -0.042705
C50   C     C_R   0.000000 0.500000 0.413945 -0.042706
C51   C     C_R   0.500000 1.000000 0.413945 -0.042707
C52   C     C_R   0.025019 0.550152 0.130196 0.335951
C53   C     C_R   0.449847 0.025016 0.130196 0.335950
C54   C     C_R   0.974981 0.449850 0.130197 0.335949
C55   C     C_R   0.550152 0.974983 0.130196 0.335950
C56   C     C_R   0.525021 0.050161 0.630196 0.335956
C57   C     C_R   0.814625 0.498617 0.500312 -0.121691
C58   C     C_R   0.949851 0.525018 0.630197 0.335950
C59   C     C_R   0.474979 0.949861 0.630197 0.335930
C60   C     C_R   0.050154 0.474981 0.630196 0.335950
C61   C     C_R   1.000000 0.500001 0.085501 -0.329393
C62   C     C_R   0.500000 1.000000 0.085501 -0.329389
C63   C     C_R   0.499999 0.000008 0.585501 -0.329385
C64   C     C_R   0.000001 0.500000 0.585501 -0.329390
C65   C     C_R   0.000000 0.500001 0.145085 0.073604
C66   C     C_R   0.499999 0.999999 0.145085 0.073604
C67   C     C_R   0.500002 0.000011 0.645085 0.073606
C68   C     C_R   0.501386 0.814626 0.500313 -0.121647
C69   C     C_R   0.000003 0.499999 0.645085 0.073602
C70   C     C_R   0.782403 0.036160 0.019161 0.059072
C71   C     C_R   0.963839 0.782403 0.019161 0.059070
C72   C     C_R   0.217597 0.963839 0.019161 0.059072
C73   C     C_R   0.036156 0.217597 0.019163 0.059081
C74   C     C_R   0.282403 0.536159 0.519162 0.059070
C75   C     C_R   0.463822 0.282403 0.519154 0.059024
C76   C     C_R   0.717597 0.463842 0.519162 0.059082
C77   C     C_R   0.536123 0.717596 0.519176 0.059164
C78   C     C_R   0.814420 0.000778 0.999444 -0.143103
C79   C     C_R   0.718725 0.038642 0.019130 -0.006472
C80   C     C_R   0.999222 0.814420 0.999444 -0.143104
C81   C     C_R   0.185580 0.999222 0.999444 -0.143104
C82   C     C_R   0.000778 0.185580 0.999444 -0.143106
C83   C     C_R   0.314420 0.500777 0.499444 -0.143096
C84   C     C_R   0.499222 0.314421 0.499443 -0.143095
C85   C     C_R   0.685580 0.499222 0.499444 -0.143116
C86   C     C_R   0.500777 0.685580 0.499444 -0.143123
C87   C     C_R   0.781299 0.970329 0.978044 -0.178607
C88   C     C_R   0.029671 0.781299 0.978044 -0.178606
C89   C     C_R   0.218701 0.029671 0.978044 -0.178610
C90   C     C_R   0.961358 0.718725 0.019130 -0.006463
C91   C     C_R   0.970334 0.218701 0.978043 -0.178609
C92   C     C_R   0.281299 0.470330 0.478044 -0.178596
C93   C     C_R   0.529690 0.281300 0.478049 -0.178601
C94   C     C_R   0.718701 0.529668 0.478043 -0.178628
C95   C     C_R   0.470367 0.718703 0.478033 -0.178622
C96   C     C_R   0.716924 0.969625 0.978815 -0.177389
C97   C     C_R   0.030375 0.716924 0.978815 -0.177390
C98   C     C_R   0.283076 0.030375 0.978815 -0.177389
C99   C     C_R   0.969630 0.283077 0.978813 -0.177384
C100  C     C_R   0.216923 0.469626 0.478815 -0.177384
C101  C     C_R   0.281275 0.961358 0.019130 -0.006470
C102  C     C_R   0.530394 0.216925 0.478820 -0.177406
C103  C     C_R   0.783076 0.530372 0.478814 -0.177393
C104  C     C_R   0.469664 0.783079 0.478804 -0.177354
C105  C     C_3   0.003142 0.646878 0.145248 0.087806
C106  C     C_3   0.027103 0.701170 0.162334 -0.788365
C107  C     C_3   0.353122 0.003133 0.145248 0.087809
C108  C     C_3   0.298828 0.027093 0.162333 -0.788364
C109  C     C_3   0.996859 0.353124 0.145248 0.087813
C110  C     C_3   0.972897 0.298831 0.162333 -0.788368
C111  C     C_3   0.646877 0.996865 0.145248 0.087809
C112  C     C_R   0.118921 0.000918 0.999909 0.831699
C113  C     C_R   0.038638 0.281275 0.019132 -0.006491
C114  C     C_3   0.701170 0.972906 0.162334 -0.788367
C115  C     C_3   0.503147 0.146888 0.645248 0.087789
C116  C     C_3   0.527109 0.201174 0.662338 -0.788357
C117  C     C_3   0.853125 0.503137 0.645249 0.087807
C118  C     C_3   0.798833 0.527096 0.662335 -0.788349
C119  C     C_3   0.496856 0.853132 0.645247 0.087835
C120  C     C_3   0.472889 0.798835 0.662327 -0.788379
C121  C     C_3   0.146880 0.496862 0.645247 0.087813
C122  C     C_3   0.201174 0.472902 0.662331 -0.788375
C123  C     C_3   0.633360 0.103122 0.062382 0.111280
C124  C     C_R   0.218725 0.538641 0.519131 -0.006478
C125  C     C_3   0.614167 0.141989 0.087706 -0.785488
C126  C     C_3   0.896879 0.633359 0.062383 0.111281
C127  C     C_3   0.858018 0.614170 0.087709 -0.785482
C128  C     C_3   0.366641 0.896877 0.062382 0.111281
C129  C     C_3   0.385834 0.858010 0.087706 -0.785486
C130  C     C_3   0.103115 0.366638 0.062384 0.111271
C131  C     C_3   0.141985 0.385832 0.087706 -0.785473
C132  C     C_3   0.133361 0.603121 0.562383 0.111275
C133  C     C_3   0.114168 0.641988 0.587706 -0.785482
C134  C     C_3   0.396858 0.133349 0.562383 0.111291
C135  C     C_R   0.461345 0.218725 0.519123 -0.006354
C136  C     C_3   0.358025 0.114178 0.587720 -0.785539
C137  C     C_3   0.866639 0.396882 0.562383 0.111276
C138  C     C_3   0.885834 0.358013 0.587706 -0.785478
C139  C     C_3   0.603080 0.866617 0.562385 0.111262
C140  C     C_3   0.641985 0.885845 0.587691 -0.785378
C141  C     C_3   0.832063 0.083562 0.089074 -0.238681
C142  C     C_3   0.916436 0.832061 0.089073 -0.238682
C143  C     C_3   0.167938 0.916435 0.089074 -0.238676
C144  C     C_3   0.083537 0.167938 0.089079 -0.238679
C145  C     C_3   0.332066 0.583556 0.589074 -0.238704
C146  C     C_R   0.781275 0.461360 0.519131 -0.006482
C147  C     C_3   0.416340 0.332058 0.589055 -0.238696
C148  C     C_3   0.667940 0.416453 0.589078 -0.238658
C149  C     C_3   0.583359 0.667930 0.589113 -0.238658
C150  C     C_3   0.118125 0.593896 0.086280 0.125985
C151  C     C_3   0.144469 0.645486 0.068158 -0.793094
C152  C     C_3   0.406101 0.118121 0.086280 0.125986
C153  C     C_3   0.354510 0.144464 0.068158 -0.793101
C154  C     C_3   0.881873 0.406108 0.086280 0.125988
C155  C     C_3   0.855527 0.354518 0.068159 -0.793102
C156  C     C_3   0.593899 0.881879 0.086280 0.125983
C157  C     C_R   0.538614 0.781274 0.519145 -0.006692
C158  C     C_3   0.645491 0.855536 0.068159 -0.793099
C159  C     C_3   0.618119 0.093911 0.586277 0.125982
C160  C     C_3   0.644459 0.145502 0.568154 -0.793091
C161  C     C_3   0.906107 0.618124 0.586280 0.126004
C162  C     C_3   0.854517 0.644470 0.568158 -0.793127
C163  C     C_3   0.381862 0.906129 0.586284 0.125995
C164  C     C_3   0.355508 0.854540 0.568164 -0.793135
C165  C     C_3   0.093899 0.381876 0.586280 0.125975
C166  C     C_3   0.145490 0.355533 0.568159 -0.793086
C167  C     C_3   0.717165 0.040918 0.051055 0.164880
C168  C     C_3   0.959081 0.717164 0.051055 0.164888
C169  C     C_3   0.282836 0.959080 0.051055 0.164881
C170  C     C_3   0.040908 0.282836 0.051057 0.164872
C171  C     C_3   0.217165 0.540917 0.551056 0.164883
C172  C     C_R   0.999082 0.118921 0.999909 0.831698
C173  C     C_3   0.459042 0.217165 0.551047 0.164947
C174  C     C_3   0.782836 0.459087 0.551056 0.164872
C175  C     C_3   0.540837 0.782837 0.551071 0.164766
C176  C     C_3   0.787292 0.036171 0.050625 0.323124
C177  C     C_3   0.963828 0.787291 0.050625 0.323119
C178  C     C_3   0.212708 0.963827 0.050625 0.323120
C179  C     C_3   0.036158 0.212709 0.050627 0.323132
C180  C     C_3   0.287292 0.536168 0.550626 0.323132
C181  C     C_3   0.463778 0.287293 0.550618 0.323082
C182  C     C_3   0.712709 0.463836 0.550627 0.323118
C183  C     C_R   0.881079 0.999082 0.999909 0.831701
C184  C     C_3   0.536066 0.712712 0.550641 0.323200
C185  C     C_R   0.028756 0.548263 0.100377 0.216156
C186  C     C_R   0.451736 0.028753 0.100377 0.216153
C187  C     C_R   0.971244 0.451739 0.100378 0.216152
C188  C     C_R   0.548264 0.971246 0.100378 0.216152
C189  C     C_R   0.528755 0.048272 0.600377 0.216176
C190  C     C_R   0.951739 0.528755 0.600378 0.216151
C191  C     C_R   0.471240 0.951749 0.600379 0.216141
C192  C     C_R   0.048265 0.471245 0.600377 0.216155
C193  C     C_R   0.500000 0.000000 0.945343 0.806959
C194  C     C_R   0.500917 0.381079 0.499909 0.831709
C195  C     C_R   1.000000 0.500000 0.945343 0.806956
C196  C     C_R   0.000000 0.500000 0.445343 0.806956
C197  C     C_R   0.500000 1.000000 0.445343 0.806956
C198  C     C_R   0.618791 0.000278 0.000880 0.807435
C199  C     C_R   0.999722 0.618791 0.000880 0.807436
C200  C     C_R   0.381209 0.999722 0.000880 0.807436
C201  C     C_R   0.000278 0.381209 0.000880 0.807431
C202  C     C_R   0.118791 0.500278 0.500880 0.807435
C203  C     C_R   0.499722 0.118791 0.500879 0.807454
C204  C     C_R   0.881209 0.499721 0.500880 0.807432
C205  C     C_R   0.618921 0.500917 0.499909 0.831683
C206  C     C_R   0.500279 0.881209 0.500881 0.807394
C207  C     C_R   0.500000 1.000000 0.054329 0.914917
C208  C     C_R   0.000000 0.500000 0.054329 0.914912
C209  C     C_R   0.000000 0.500000 0.554329 0.914914
C210  C     C_R   0.500000 0.000004 0.554329 0.914904
C211  C     C_R   0.946173 0.511336 0.189845 0.594781
C212  C     C_R   0.488667 0.946171 0.189845 0.594783
C213  C     C_R   0.053828 0.488666 0.189845 0.594782
C214  C     C_R   0.511332 0.053828 0.189845 0.594781
C215  C     C_R   0.446176 0.011348 0.689845 0.594783
C216  C     C_R   0.499080 0.618922 0.499909 0.831678
C217  C     C_R   0.988670 0.446171 0.689845 0.594781
C218  C     C_R   0.553830 0.988674 0.689845 0.594783
C219  C     C_R   0.011337 0.553827 0.689845 0.594783
C220  C     C_R   0.054913 0.488286 0.219651 -0.035820
C221  C     C_R   0.511712 0.054912 0.219651 -0.035821
C222  C     C_R   0.945088 0.511717 0.219651 -0.035820
C223  C     C_R   0.488286 0.945087 0.219651 -0.035821
C224  C     C_R   0.554915 0.988293 0.719651 -0.035822
C225  C     C_R   0.011717 0.554912 0.719651 -0.035820
C226  C     C_R   0.445091 0.011728 0.719651 -0.035818
C227  C     C_R   0.381079 0.499082 0.499909 0.831705
C228  C     C_R   0.988289 0.445087 0.719651 -0.035820
C229  C     C_R   0.500002 0.000002 0.854182 0.357405
C230  C     C_R   0.000000 0.500000 0.854182 0.357406
C231  C     C_R   0.000000 0.500000 0.354181 0.357406
C232  C     C_R   0.500000 1.000000 0.354181 0.357408
C233  C     C_R   0.000000 0.500001 0.234614 -0.020518
C234  C     C_R   0.499999 1.000000 0.234614 -0.020518
C235  C     C_R   0.500003 0.000009 0.734614 -0.020518
C236  C     C_R   0.000003 0.499999 0.734614 -0.020518
C237  C     C_R   0.109373 0.476440 0.234799 -0.166251
C238  C     C_R   0.685375 0.001383 0.000311 -0.121695
C239  C     C_R   0.523555 0.109373 0.234798 -0.166251
C240  C     C_R   0.890628 0.523562 0.234799 -0.166251
C241  C     C_R   0.476444 0.890626 0.234799 -0.166251
C242  C     C_R   0.609375 0.976444 0.734799 -0.166250
C243  C     C_R   0.023561 0.609373 0.734799 -0.166250
C244  C     C_R   0.390631 0.023575 0.734799 -0.166252
C245  C     C_R   0.976445 0.390626 0.734799 -0.166251
C246  C     C_R   0.609325 0.976223 0.764423 -0.160606
C247  C     C_R   0.023779 0.609323 0.764423 -0.160607
C248  C     C_R   0.390681 0.023792 0.764423 -0.160608
Cu1   Cu    Cu3+1 0.000000 0.000000 0.028100 0.973683
Cu2   Cu    Cu3+1 0.438090 0.000040 0.499920 0.936696
Cu3   Cu    Cu3+1 0.999960 0.438090 0.499920 0.936687
Cu4   Cu    Cu3+1 0.561910 0.999960 0.499920 0.936673
Cu5   Cu    Cu3+1 0.500000 0.500000 0.528100 0.973700
Cu6   Cu    Cu3+1 0.000000 0.000000 0.971820 0.974435
Cu7   Cu    Cu3+1 0.500000 0.500000 0.471820 0.974430
Cu8   Cu    Cu3+1 0.500040 0.061910 0.999920 0.936683
Cu9   Cu    Cu3+1 0.938090 0.500040 0.999920 0.936686
Cu10  Cu    Cu3+1 0.499960 0.938090 0.999920 0.936684
Cu11  Cu    Cu3+1 0.061910 0.499960 0.999920 0.936684
Cu12  Cu    Cu3+1 0.000040 0.561910 0.499920 0.936680
H1    H     H_    0.652131 0.966870 0.775394 0.188156
H2    H     H_    0.098355 0.511838 0.857770 0.141133
H3    H     H_    0.130483 0.540308 0.655309 0.157010
H4    H     H_    0.163325 0.506969 0.623356 0.170755
H5    H     H_    0.219113 0.429900 0.652612 0.250194
H6    H     H_    0.238469 0.507886 0.662621 0.192600
H7    H     H_    0.186581 0.463261 0.684470 0.257136
H8    H     H_    0.610253 0.057823 0.064383 0.152426
H9    H     H_    0.617043 0.125945 0.042698 0.181547
H10   H     H_    0.634663 0.188708 0.086091 0.258036
H11   H     H_    0.563246 0.146197 0.088300 0.196668
H12   H     H_    0.629943 0.119886 0.107664 0.236902
H13   H     H_    0.488167 0.098357 0.857771 0.141134
H14   H     H_    0.942179 0.610253 0.064382 0.152420
H15   H     H_    0.874052 0.617039 0.042701 0.181544
H16   H     H_    0.811297 0.634663 0.086095 0.258033
H17   H     H_    0.853814 0.563249 0.088306 0.196667
H18   H     H_    0.880123 0.629952 0.107666 0.236901
H19   H     H_    0.389747 0.942176 0.064383 0.152425
H20   H     H_    0.382958 0.874054 0.042698 0.181547
H21   H     H_    0.365338 0.811291 0.086090 0.258035
H22   H     H_    0.436755 0.853803 0.088301 0.196668
H23   H     H_    0.370056 0.880112 0.107664 0.236902
H24   H     H_    0.901646 0.488161 0.857770 0.141133
H25   H     H_    0.057818 0.389747 0.064385 0.152426
H26   H     H_    0.125938 0.382950 0.042699 0.181546
H27   H     H_    0.188703 0.365333 0.086091 0.258034
H28   H     H_    0.146195 0.436752 0.088299 0.196665
H29   H     H_    0.119883 0.370059 0.107666 0.236905
H30   H     H_    0.110254 0.557822 0.564383 0.152424
H31   H     H_    0.117045 0.625944 0.542698 0.181546
H32   H     H_    0.134666 0.688707 0.586091 0.258036
H33   H     H_    0.063247 0.646197 0.588300 0.196665
H34   H     H_    0.129944 0.619885 0.607665 0.236903
H35   H     H_    0.011837 0.401646 0.357770 0.141134
H36   H     H_    0.442166 0.110257 0.564378 0.152400
H37   H     H_    0.374022 0.116997 0.542709 0.181547
H38   H     H_    0.311294 0.134648 0.586107 0.258036
H39   H     H_    0.353845 0.063258 0.588333 0.196675
H40   H     H_    0.380137 0.129999 0.607668 0.236897
H41   H     H_    0.889748 0.442180 0.564384 0.152426
H42   H     H_    0.882954 0.374060 0.542699 0.181546
H43   H     H_    0.865336 0.311294 0.586091 0.258034
H44   H     H_    0.936755 0.353803 0.588299 0.196666
H45   H     H_    0.870060 0.380115 0.607665 0.236903
H46   H     H_    0.598354 0.011838 0.357770 0.141132
H47   H     H_    0.557797 0.889756 0.564385 0.152458
H48   H     H_    0.625896 0.882870 0.542688 0.181530
H49   H     H_    0.688682 0.865294 0.586081 0.258039
H50   H     H_    0.646248 0.936766 0.588252 0.196644
H51   H     H_    0.619879 0.870151 0.607664 0.236904
H52   H     H_    0.867161 0.046903 0.092294 0.127721
H53   H     H_    0.790215 0.073800 0.101966 0.164560
H54   H     H_    0.852009 0.127524 0.096765 0.172586
H55   H     H_    0.953095 0.867159 0.092293 0.127722
H56   H     H_    0.926197 0.790214 0.101966 0.164559
H57   H     H_    0.988163 0.598355 0.357770 0.141133
H58   H     H_    0.872474 0.852007 0.096764 0.172589
H59   H     H_    0.132840 0.953093 0.092294 0.127722
H60   H     H_    0.209785 0.926196 0.101966 0.164560
H61   H     H_    0.147992 0.872472 0.096764 0.172587
H62   H     H_    0.046875 0.132841 0.092297 0.127722
H63   H     H_    0.073774 0.209786 0.101970 0.164558
H64   H     H_    0.127496 0.147989 0.096772 0.172589
H65   H     H_    0.367164 0.546897 0.592293 0.127717
H66   H     H_    0.290220 0.573794 0.601967 0.164562
H67   H     H_    0.352014 0.627517 0.596766 0.172578
H68   H     H_    0.401645 0.988161 0.357770 0.141133
H69   H     H_    0.452988 0.367163 0.592282 0.127727
H70   H     H_    0.426095 0.290214 0.601950 0.164564
H71   H     H_    0.372366 0.351998 0.596735 0.172590
H72   H     H_    0.632843 0.453113 0.592297 0.127731
H73   H     H_    0.709788 0.426215 0.601969 0.164558
H74   H     H_    0.647992 0.372492 0.596770 0.172589
H75   H     H_    0.546680 0.632846 0.592318 0.127717
H76   H     H_    0.573585 0.709784 0.601999 0.164550
H77   H     H_    0.627298 0.647969 0.596825 0.172585
H78   H     H_    0.134661 0.549212 0.077539 0.145143
H79   H     H_    0.511807 0.901145 0.909805 0.162783
H80   H     H_    0.135804 0.599552 0.108274 0.191973
H81   H     H_    0.129497 0.690833 0.076607 0.244537
H82   H     H_    0.195553 0.643358 0.068403 0.207639
H83   H     H_    0.128107 0.640782 0.045942 0.258488
H84   H     H_    0.450784 0.134658 0.077539 0.145143
H85   H     H_    0.400444 0.135799 0.108274 0.191973
H86   H     H_    0.309163 0.129490 0.076607 0.244538
H87   H     H_    0.356636 0.195548 0.068403 0.207641
H88   H     H_    0.359214 0.128103 0.045942 0.258487
H89   H     H_    0.865338 0.450791 0.077539 0.145142
H90   H     H_    0.098856 0.511809 0.909805 0.162783
H91   H     H_    0.864195 0.400452 0.108275 0.191973
H92   H     H_    0.870499 0.309171 0.076609 0.244536
H93   H     H_    0.804444 0.356646 0.068404 0.207641
H94   H     H_    0.871889 0.359221 0.045943 0.258488
H95   H     H_    0.549216 0.865341 0.077539 0.145144
H96   H     H_    0.599556 0.864200 0.108274 0.191973
H97   H     H_    0.690837 0.870510 0.076608 0.244536
H98   H     H_    0.643365 0.804452 0.068403 0.207642
H99   H     H_    0.640787 0.871897 0.045943 0.258487
H100  H     H_    0.634658 0.049229 0.577536 0.145143
H101  H     H_    0.488195 0.098857 0.909806 0.162783
H102  H     H_    0.635800 0.099569 0.608271 0.191976
H103  H     H_    0.629483 0.190848 0.576603 0.244545
H104  H     H_    0.695542 0.143378 0.568398 0.207638
H105  H     H_    0.628096 0.140796 0.545939 0.258492
H106  H     H_    0.950791 0.634660 0.577540 0.145139
H107  H     H_    0.900450 0.635803 0.608275 0.191975
H108  H     H_    0.809170 0.629497 0.576607 0.244550
H109  H     H_    0.856646 0.695553 0.568403 0.207634
H110  H     H_    0.859223 0.628108 0.545943 0.258485
H111  H     H_    0.365331 0.950813 0.577542 0.145143
H112  H     H_    0.033128 0.652130 0.775394 0.188155
H113  H     H_    0.901144 0.488191 0.909805 0.162783
H114  H     H_    0.364186 0.900478 0.608279 0.191973
H115  H     H_    0.370474 0.809192 0.576615 0.244526
H116  H     H_    0.304424 0.856675 0.568411 0.207646
H117  H     H_    0.371867 0.859238 0.545948 0.258483
H118  H     H_    0.049216 0.365340 0.577538 0.145145
H119  H     H_    0.099554 0.364198 0.608274 0.191972
H120  H     H_    0.190836 0.370506 0.576608 0.244529
H121  H     H_    0.143364 0.304449 0.568403 0.207644
H122  H     H_    0.140787 0.371894 0.545943 0.258490
H123  H     H_    0.011808 0.401144 0.409805 0.162783
H124  H     H_    0.598855 0.011809 0.409805 0.162781
H125  H     H_    0.988192 0.598856 0.409805 0.162782
H126  H     H_    0.401144 0.988190 0.409805 0.162784
H127  H     H_    0.805051 0.944589 0.961686 0.163951
H128  H     H_    0.055411 0.805051 0.961686 0.163951
H129  H     H_    0.194949 0.055412 0.961686 0.163951
H130  H     H_    0.944598 0.194949 0.961683 0.163953
H131  H     H_    0.305051 0.444591 0.461686 0.163952
H132  H     H_    0.347875 0.033143 0.775394 0.188155
H133  H     H_    0.555443 0.305053 0.461696 0.163943
H134  H     H_    0.694949 0.555405 0.461684 0.163950
H135  H     H_    0.444655 0.694953 0.461665 0.163968
H136  H     H_    0.691839 0.943715 0.962935 0.153895
H137  H     H_    0.056285 0.691839 0.962935 0.153895
H138  H     H_    0.308161 0.056285 0.962935 0.153895
H139  H     H_    0.943724 0.308161 0.962932 0.153891
H140  H     H_    0.191839 0.443717 0.462934 0.153895
H141  H     H_    0.556317 0.191841 0.462944 0.153907
H142  H     H_    0.808161 0.556279 0.462933 0.153891
H143  H     H_    0.966875 0.347869 0.775394 0.188155
H144  H     H_    0.443782 0.808165 0.462915 0.153869
H145  H     H_    0.695469 0.000211 0.061399 0.086653
H146  H     H_    0.999788 0.695469 0.061399 0.086646
H147  H     H_    0.304531 0.999787 0.061399 0.086652
H148  H     H_    0.000200 0.304533 0.061399 0.086660
H149  H     H_    0.195469 0.500209 0.561400 0.086653
H150  H     H_    0.499745 0.195479 0.561399 0.086590
H151  H     H_    0.804533 0.499795 0.561399 0.086659
H152  H     H_    0.500122 0.804551 0.561400 0.086770
H153  H     H_    0.806043 0.991710 0.058834 0.036729
H154  H     H_    0.152130 0.466870 0.275394 0.188156
H155  H     H_    0.008288 0.806042 0.058834 0.036730
H156  H     H_    0.193957 0.008288 0.058834 0.036732
H157  H     H_    0.991694 0.193960 0.058833 0.036729
H158  H     H_    0.306043 0.491707 0.558834 0.036721
H159  H     H_    0.508227 0.306052 0.558836 0.036735
H160  H     H_    0.693959 0.508299 0.558834 0.036746
H161  H     H_    0.491580 0.693977 0.558830 0.036723
H162  H     H_    0.152209 0.467249 0.223823 0.187053
H163  H     H_    0.532744 0.152210 0.223823 0.187053
H164  H     H_    0.847792 0.532753 0.223823 0.187052
H165  H     H_    0.533123 0.152130 0.275394 0.188156
H166  H     H_    0.467254 0.847789 0.223823 0.187052
H167  H     H_    0.652210 0.967252 0.723823 0.187054
H168  H     H_    0.032751 0.652209 0.723823 0.187053
H169  H     H_    0.347796 0.032768 0.723823 0.187052
H170  H     H_    0.967255 0.347790 0.723823 0.187052
H171  H     H_    0.959695 0.630482 0.155308 0.157009
H172  H     H_    0.993037 0.663326 0.123357 0.170754
H173  H     H_    0.070106 0.719108 0.152615 0.250200
H174  H     H_    0.992120 0.738466 0.162624 0.192601
H175  H     H_    0.036742 0.686574 0.184472 0.257134
H176  H     H_    0.847871 0.533131 0.275394 0.188155
H177  H     H_    0.369520 0.959688 0.155309 0.157009
H178  H     H_    0.336676 0.993027 0.123357 0.170756
H179  H     H_    0.280889 0.070095 0.152614 0.250200
H180  H     H_    0.261534 0.992108 0.162623 0.192601
H181  H     H_    0.313423 0.036732 0.184471 0.257134
H182  H     H_    0.040305 0.369520 0.155309 0.157009
H183  H     H_    0.006965 0.336678 0.123357 0.170759
H184  H     H_    0.929894 0.280894 0.152614 0.250199
H185  H     H_    0.007880 0.261535 0.162623 0.192601
H186  H     H_    0.963258 0.313425 0.184471 0.257135
H187  H     H_    0.466876 0.847869 0.275394 0.188155
H188  H     H_    0.630478 0.040311 0.155309 0.157009
H189  H     H_    0.663323 0.006971 0.123358 0.170757
H190  H     H_    0.719110 0.929904 0.152615 0.250200
H191  H     H_    0.738464 0.007891 0.162624 0.192602
H192  H     H_    0.686574 0.963267 0.184473 0.257134
H193  H     H_    0.459699 0.130490 0.655307 0.157009
H194  H     H_    0.493046 0.163340 0.623359 0.170735
H195  H     H_    0.570113 0.219113 0.652621 0.250203
H196  H     H_    0.492127 0.238471 0.662629 0.192601
H197  H     H_    0.536744 0.186572 0.684476 0.257133
H198  H     H_    0.511837 0.901647 0.857770 0.141135
H199  H     H_    0.869524 0.459691 0.655309 0.157007
H200  H     H_    0.836678 0.493032 0.623358 0.170760
H201  H     H_    0.780894 0.570099 0.652616 0.250209
H202  H     H_    0.761538 0.492112 0.662624 0.192601
H203  H     H_    0.813429 0.536735 0.684473 0.257132
H204  H     H_    0.540301 0.869524 0.655311 0.157010
H205  H     H_    0.506965 0.836693 0.623355 0.170797
H206  H     H_    0.429887 0.780903 0.652606 0.250195
H207  H     H_    0.507871 0.761537 0.662615 0.192600
H208  H     H_    0.463248 0.813422 0.684467 0.257137
N1    N     N_R   0.000000 0.500001 0.175606 -0.405664
N2    N     N_R   0.499999 0.999999 0.175606 -0.405664
N3    N     N_R   0.500003 0.000012 0.675607 -0.405664
N4    N     N_R   0.000003 0.499999 0.675606 -0.405664
N5    N     N_R   0.500003 0.000003 0.823663 -0.468593
N6    N     N_R   0.000001 0.500000 0.823663 -0.468593
N7    N     N_R   0.000000 0.500001 0.323663 -0.468593
N8    N     N_R   0.499999 1.000000 0.323663 -0.468593
O1    O     O_R   0.000030 0.909910 0.023730 -0.577393
O2    O     O_R   0.090030 0.000060 0.976200 -0.588121
O3    O     O_R   0.999940 0.090030 0.976200 -0.588123
O4    O     O_R   0.909970 0.999940 0.976200 -0.588121
O5    O     O_R   0.500060 0.409970 0.476200 -0.588113
O6    O     O_R   0.590030 0.500060 0.476200 -0.588120
O7    O     O_R   0.499940 0.590030 0.476200 -0.588137
O8    O     O_R   0.409970 0.499940 0.476200 -0.588122
O9    O     O_R   0.500060 0.052300 0.958860 -0.584053
O10   O     O_R   0.947700 0.500060 0.958860 -0.584052
O11   O     O_R   0.499940 0.947700 0.958860 -0.584052
O12   O     O_R   0.090090 0.000030 0.023730 -0.577392
O13   O     O_R   0.052300 0.499940 0.958860 -0.584052
O14   O     O_R   0.000060 0.552300 0.458860 -0.584052
O15   O     O_R   0.447700 0.000060 0.458860 -0.584051
O16   O     O_R   0.999940 0.447700 0.458860 -0.584051
O17   O     O_R   0.552300 0.999940 0.458860 -0.584052
O18   O     O_R   0.590210 0.052300 0.999920 -0.595401
O19   O     O_R   0.947700 0.590210 0.999920 -0.595397
O20   O     O_R   0.409790 0.947700 0.999920 -0.595400
O21   O     O_R   0.052300 0.409790 0.999920 -0.595401
O22   O     O_R   0.090210 0.552300 0.499920 -0.595401
O23   O     O_R   0.999970 0.090090 0.023730 -0.577386
O24   O     O_R   0.447700 0.090210 0.499920 -0.595382
O25   O     O_R   0.909790 0.447700 0.499920 -0.595400
O26   O     O_R   0.552300 0.909790 0.499920 -0.595427
O27   O     O_R   0.590210 0.947930 0.999950 -0.584037
O28   O     O_R   0.052070 0.590210 0.999950 -0.584038
O29   O     O_R   0.409790 0.052070 0.999950 -0.584038
O30   O     O_R   0.947930 0.409790 0.999950 -0.584035
O31   O     O_R   0.090210 0.447930 0.499950 -0.584035
O32   O     O_R   0.552070 0.090210 0.499950 -0.584045
O33   O     O_R   0.909790 0.552070 0.499950 -0.584040
O34   O     O_R   0.909910 0.999970 0.023730 -0.577394
O35   O     O_R   0.447930 0.909790 0.499950 -0.584020
O36   O     O_R   0.500010 0.052300 0.040980 -0.601851
O37   O     O_R   0.947700 0.500010 0.040980 -0.601849
O38   O     O_R   0.499990 0.947700 0.040980 -0.601852
O39   O     O_R   0.052300 0.499990 0.040980 -0.601849
O40   O     O_R   0.000010 0.552300 0.540980 -0.601849
O41   O     O_R   0.447700 0.000010 0.540980 -0.601851
O42   O     O_R   0.999990 0.447700 0.540980 -0.601850
O43   O     O_R   0.552300 0.999990 0.540980 -0.601837
O44   O     O_2   0.893981 0.522494 0.175191 -0.555462
O45   O     O_R   0.500030 0.409910 0.523730 -0.577417
O46   O     O_2   0.477511 0.893979 0.175191 -0.555462
O47   O     O_2   0.106020 0.477508 0.175191 -0.555461
O48   O     O_2   0.522487 0.106020 0.175191 -0.555461
O49   O     O_2   0.393985 0.022509 0.675191 -0.555465
O50   O     O_2   0.977513 0.393979 0.675191 -0.555461
O51   O     O_2   0.606021 0.977515 0.675191 -0.555459
O52   O     O_2   0.022493 0.606019 0.675191 -0.555461
O53   O     O_2   0.605948 0.977007 0.824019 -0.537794
O54   O     O_2   0.022991 0.605946 0.824019 -0.537794
O55   O     O_2   0.394058 0.023000 0.824019 -0.537794
O56   O     O_R   0.590090 0.500030 0.523730 -0.577379
O57   O     O_2   0.977011 0.394053 0.824019 -0.537795
O58   O     O_2   0.105946 0.477008 0.324019 -0.537794
O59   O     O_2   0.522988 0.105946 0.324019 -0.537792
O60   O     O_2   0.894054 0.522993 0.324019 -0.537795
O61   O     O_2   0.477011 0.894053 0.324019 -0.537797
O62   O     O_3   0.048122 0.599936 0.145029 -0.549159
O63   O     O_3   0.400062 0.048116 0.145029 -0.549159
O64   O     O_3   0.951879 0.400066 0.145030 -0.549160
O65   O     O_3   0.599936 0.951883 0.145030 -0.549159
O66   O     O_3   0.548126 0.099944 0.645028 -0.549160
O67   O     O_R   0.499970 0.590090 0.523730 -0.577342
O68   O     O_3   0.900067 0.548118 0.645030 -0.549158
O69   O     O_3   0.451878 0.900077 0.645031 -0.549162
O70   O     O_3   0.099939 0.451881 0.645029 -0.549160
O71   O     O_3   0.698146 0.098886 0.061649 -0.523406
O72   O     O_3   0.901113 0.698145 0.061649 -0.523406
O73   O     O_3   0.301855 0.901112 0.061649 -0.523407
O74   O     O_3   0.098875 0.301852 0.061654 -0.523405
O75   O     O_3   0.198147 0.598884 0.561650 -0.523405
O76   O     O_3   0.401068 0.198135 0.561630 -0.523402
O77   O     O_3   0.801854 0.401120 0.561652 -0.523405
O78   O     O_R   0.409910 0.499970 0.523730 -0.577400
O79   O     O_3   0.598793 0.801832 0.561688 -0.523413
O80   O     O_3   0.817668 0.089959 0.060081 -0.510133
O81   O     O_3   0.910040 0.817667 0.060080 -0.510133
O82   O     O_3   0.182333 0.910039 0.060080 -0.510133
O83   O     O_3   0.089942 0.182331 0.060086 -0.510130
O84   O     O_3   0.317669 0.589955 0.560082 -0.510135
O85   O     O_3   0.409975 0.317660 0.560060 -0.510143
O86   O     O_3   0.682332 0.410051 0.560084 -0.510130
O87   O     O_3   0.589824 0.682317 0.560122 -0.510113
O88   O     O_3   0.053297 0.597435 0.085548 -0.599547
O89   O     O_R   0.000060 0.909970 0.976200 -0.588121
O90   O     O_3   0.402563 0.053294 0.085548 -0.599549
O91   O     O_3   0.946701 0.402567 0.085548 -0.599547
O92   O     O_3   0.597436 0.946706 0.085548 -0.599549
O93   O     O_3   0.553292 0.097445 0.585546 -0.599551
O94   O     O_3   0.902567 0.553297 0.585549 -0.599547
O95   O     O_3   0.446689 0.902580 0.585550 -0.599547
O96   O     O_3   0.097436 0.446704 0.585548 -0.599549

loop_
_geom_bond_atom_site_label_1
_geom_bond_atom_site_label_2
_ccdc_geom_bond_type
C184  H161  S    
C188  O92   S    
C200  O20   A    
C126  C127  S    
C13   C200  S    
C221  C234  A    
C162  H110  S    
C73   C82   A    
C59   C191  A    
C74   C83   A    
C177  O81   S    
C54   C65   A    
Cu9   O19   S    
C117  O68   S    
C179  O83   S    
C111  H189  S    
C135  C173  S    
C144  O83   S    
C35   C124  A    
C28   N7    A    
C94   H134  S    
C18   C236  A    
C72   C101  A    
Cu2   Cu4   S    
C26   O58   S    
C151  H81   S    
C210  O43   A    
C129  H23   S    
C143  H59   S    
C51   C197  S    
C6    H176  S    
C138  H45   S    
Cu9   O10   S    
C40   H90   S    
C248  H132  S    
Cu5   O56   S    
C96   H136  S    
C4    C237  A    
C173  H150  S    
C109  H182  S    
C4    C12   A    
C180  O84   S    
C128  H19   S    
C88   C97   A    
C186  O90   S    
C119  O69   S    
Cu6   O4    S    
C76   C146  A    
Cu12  O40   S    
C142  H55   S    
C91   H130  S    
C196  O14   A    
Cu12  O33   S    
C150  H78   S    
C64   C192  A    
C141  H53   S    
C105  H171  S    
C164  H115  S    
C49   C195  S    
C165  H119  S    
C125  H10   S    
C106  H174  S    
C82   C91   A    
C170  O74   S    
Cu7   O7    S    
C161  H107  S    
Cu3   Cu12  S    
C167  H145  S    
C226  C244  A    
C140  H49   S    
C183  O34   A    
C193  O9    A    
C36   C232  A    
C141  H52   S    
C7    C241  A    
C154  H89   S    
C116  H197  S    
C137  H42   S    
Cu4   O32   S    
C58   O68   S    
C115  H193  S    
C205  O56   A    
C154  C155  S    
C246  H1    S    
C46   C203  S    
C166  H122  S    
C125  H11   S    
C179  H157  S    
C54   C187  A    
C36   C44   A    
C165  O96   S    
C160  H105  S    
C63   C210  S    
C37   C45   A    
C30   C229  A    
C62   C188  A    
Cu7   O5    S    
C177  H155  S    
Cu4   O43   S    
C70   C79   A    
C171  H149  S    
C23   O55   S    
C29   N8    A    
C231  N7    S    
C181  O85   S    
C245  H170  S    
C175  O79   S    
C139  C140  S    
C113  C170  S    
C119  H204  S    
C247  H112  S    
C8    C17   A    
C145  O84   S    
C215  C226  A    
C120  H207  S    
C156  C158  S    
C130  C131  S    
C80   C88   A    
C117  H199  S    
C174  H151  S    
Cu10  O20   S    
C131  H28   S    
C45   C50   A    
C210  O41   A    
C146  C174  S    
C156  H95   S    
C84   C93   A    
C127  H18   S    
C134  H36   S    
C216  O7    A    
C3    C11   A    
C86   C95   A    
C61   C208  S    
C152  O90   S    
C108  H181  S    
C25   O57   S    
C50   C196  S    
C109  O64   S    
C27   O59   S    
C196  O16   A    
C79   C167  S    
C70   C176  S    
C76   C85   A    
C52   C65   A    
C165  H118  S    
C195  O10   A    
C78   C87   A    
C66   N2    S    
C11   C18   A    
C48   C193  S    
C170  H148  S    
C34   C231  A    
C72   C178  S    
C130  H26   S    
C7    H187  S    
C128  C129  S    
C174  C182  S    
C164  H117  S    
C111  O65   S    
C85   C205  S    
Cu1   O12   S    
C187  O91   S    
C124  C171  S    
C97   H137  S    
C221  C239  A    
C126  O72   S    
C33   C42   A    
C218  N3    A    
C224  C235  A    
C212  N2    A    
C168  O72   S    
C191  O95   S    
C160  H104  S    
C75   C84   A    
C140  H51   S    
C11   C25   A    
C40   C49   A    
C138  H43   S    
C57   C204  S    
C2    C90   A    
Cu2   O35   S    
C44   H124  S    
C163  H114  S    
C108  H179  S    
C59   C67   A    
C176  O80   S    
C123  H8    S    
C166  H120  S    
C84   C194  S    
C169  O73   S    
C58   C190  A    
C107  C108  S    
C145  H65   S    
C219  N4    A    
C32   H13   S    
C213  N1    A    
C162  H108  S    
C147  O85   S    
C112  O12   A    
C174  O77   S    
C214  O48   S    
C62   C186  A    
C126  H14   S    
C39   H79   S    
C204  O33   A    
C153  H86   S    
C149  H76   S    
C148  H73   S    
C9    C247  A    
Cu9   O37   S    
C197  O15   A    
C134  O76   S    
C24   C201  S    
C93   H133  S    
C131  H29   S    
C52   O62   S    
C2    C199  S    
C142  H58   S    
Cu8   O36   S    
C220  C233  A    
C145  H66   S    
C29   O61   S    
C114  H191  S    
C5    H165  S    
Cu9   O30   S    
C195  O13   A    
C139  H48   S    
C107  H178  S    
C55   C188  A    
C22   O54   S    
C103  H142  S    
C12   C26   A    
C101  C169  S    
C158  H99   S    
C60   O70   S    
C53   C186  A    
Cu6   O2    S    
C241  H166  S    
C176  H153  S    
C81   C112  S    
C60   C192  A    
C159  O93   S    
C61   C185  A    
C155  H92   S    
C132  H31   S    
C42   H113  S    
C133  H34   S    
C137  H41   S    
C211  O44   S    
Cu10  O11   S    
C118  H202  S    
C68   C206  S    
C116  H196  S    
C115  O66   S    
C35   C100  A    
C229  N5    S    
C201  O21   A    
C122  H6    S    
C86   C216  S    
C1    O1    A    
C219  O52   S    
C37   C231  A    
C130  O74   S    
C110  H185  S    
C90   C168  S    
C225  C236  A    
Cu12  O14   S    
C4    H154  S    
C34   C43   A    
C218  O51   S    
C172  O23   A    
C183  O4    A    
C132  O75   S    
C43   C50   A    
C223  C241  A    
C170  C179  S    
C156  O92   S    
C27   N8    A    
C144  H63   S    
C117  C118  S    
C25   N6    A    
C194  O45   A    
C60   C69   A    
Cu10  O38   S    
C30   C39   A    
C53   O63   S    
C138  H44   S    
C128  O73   S    
C47   H126  S    
C8    C246  A    
C9    C18   A    
C152  C153  S    
C175  H152  S    
C100  H140  S    
C43   H123  S    
C150  C151  S    
C39   C48   A    
C153  H88   S    
C148  O86   S    
C79   C238  A    
Cu5   O45   S    
C110  H186  S    
C147  H70   S    
Cu3   O16   S    
C75   C181  S    
C74   C124  A    
C139  O79   S    
C200  O29   A    
C142  H56   S    
C198  O27   A    
C207  O36   A    
C159  H100  S    
C161  C162  S    
C205  O6    A    
C222  C233  A    
C227  O78   A    
C215  O49   S    
C15   C19   A    
Cu5   O78   S    
C242  C246  A    
C158  H97   S    
C211  N1    A    
C121  H4    S    
C242  H167  S    
C164  H116  S    
C75   C135  A    
C123  C125  S    
C92   H131  S    
C88   H128  S    
C168  C177  S    
C106  H175  S    
C61   C187  A    
C36   H46   S    
C31   C40   A    
Cu11  O21   S    
C1    O89   A    
C181  H159  S    
Cu1   O1    S    
C161  H106  S    
C198  C238  S    
C178  H156  S    
C46   C135  A    
C112  O2    A    
C140  H50   S    
C227  O8    A    
C2    C97   A    
C21   O53   S    
C37   H57   S    
Cu5   O67   S    
C155  H94   S    
Cu3   O31   S    
C59   O69   S    
C14   C27   A    
C95   H135  S    
C72   C81   A    
C136  H39   S    
C81   C89   A    
C123  H9    S    
C33   H24   S    
C173  C181  S    
Cu1   Cu6   S    
C172  O3    A    
C57   C146  A    
C162  H109  S    
C197  O17   A    
C217  N4    A    
Cu12  O22   S    
C213  C220  A    
C105  O62   S    
Cu7   O8    S    
C57   C103  A    
C82   C172  S    
C169  H147  S    
C239  H163  S    
Cu3   O42   S    
C203  O32   A    
C143  H61   S    
C14   C20   A    
C149  O87   S    
C148  H72   S    
C150  O88   S    
C201  O30   A    
Cu1   O23   S    
C71   C177  S    
C47   C51   A    
C125  H12   S    
C244  C248  A    
C151  H82   S    
C120  H208  S    
Cu10  O27   S    
C3    H143  S    
C214  C221  A    
C46   C102  A    
C159  C160  S    
C217  O50   S    
C156  H96   S    
C127  H17   S    
Cu4   O17   S    
C110  H184  S    
C5    C14   A    
C41   H101  S    
C107  H177  S    
C54   O64   S    
C121  O70   S    
C99   H139  S    
C7    C16   A    
C94   C103  A    
C243  C247  A    
C132  H30   S    
C220  C237  A    
Cu11  O28   S    
C68   C157  A    
C117  H200  S    
C62   C207  S    
C55   O65   S    
C55   C66   A    
C216  O67   A    
C32   C229  A    
C141  H54   S    
C5    C239  A    
C143  O82   S    
C68   C104  A    
C105  H172  S    
C93   C102  A    
C185  O88   S    
C38   C232  A    
C119  C120  S    
C35   C202  S    
C218  C224  A    
C161  O94   S    
C225  C243  A    
C123  O71   S    
C105  C106  S    
C89   C98   A    
C106  H173  S    
C58   C69   A    
C190  O94   S    
C212  O46   S    
C109  C110  S    
Cu11  O13   S    
C152  H84   S    
C224  C242  A    
C15   C28   A    
C69   N4    S    
C63   C191  A    
C206  O35   A    
C12   C19   A    
C222  C240  A    
C149  H77   S    
C111  C114  S    
C22   N6    A    
C30   H198  S    
C115  H194  S    
C144  H62   S    
C108  H180  S    
C34   H35   S    
C111  H188  S    
C166  H121  S    
C163  O95   S    
C1    C80   S    
C193  O11   A    
C209  O40   A    
C3    C245  A    
C160  H103  S    
C98   H138  S    
C115  C116  S    
C175  C184  S    
Cu7   O6    S    
C126  H15   S    
Cu2   O41   S    
C65   N1    S    
C165  C166  S    
C44   C51   A    
C70   C78   A    
C24   C99   A    
C163  C164  S    
C148  H74   S    
C127  H16   S    
C143  H60   S    
C96   C238  A    
C147  H71   S    
Cu2   O15   S    
C83   C227  S    
C83   C92   A    
C71   C90   A    
C199  O28   A    
C31   H2    S    
C223  C234  A    
C142  O81   S    
C9    C22   A    
C139  H47   S    
C10   C17   A    
C31   C230  A    
C77   C184  S    
C78   C183  S    
C13   C98   A    
Cu3   O25   S    
C104  H144  S    
Cu6   O3    S    
Cu2   O24   S    
C208  O37   A    
C114  H190  S    
C6    C15   A    
C67   N3    S    
C107  O63   S    
Cu8   O29   S    
C132  C133  S    
C199  O19   A    
C214  N2    A    
C145  H67   S    
C133  H33   S    
C213  O47   S    
C73   C113  A    
C16   C20   A    
C178  O82   S    
C152  H85   S    
C118  H203  S    
C26   N7    A    
C168  H146  S    
C24   C113  A    
C120  H206  S    
C129  H22   S    
C130  H25   S    
C76   C182  S    
C19   C233  A    
C71   C80   A    
C159  H102  S    
C136  H38   S    
C122  H7    S    
C17   C235  A    
C119  H205  S    
C133  H32   S    
Cu5   Cu7   S    
Cu6   O89   S    
C134  C136  S    
C228  C245  A    
C16   C29   A    
C63   C189  A    
C211  C222  A    
C6    C240  A    
C109  H183  S    
C226  C235  A    
Cu8   Cu10  S    
C243  H168  S    
Cu9   Cu11  S    
C134  H37   S    
C240  H164  S    
C23   N5    A    
C45   H125  S    
C144  H64   S    
C85   C94   A    
C137  O77   S    
C32   C41   A    
C87   C96   A    
C189  O93   S    
C8    C21   A    
C121  C122  S    
C209  O42   A    
C151  H83   S    
C219  C225  A    
C129  H21   S    
C53   C66   A    
C38   C47   A    
C192  O96   S    
C114  H192  S    
C157  C175  S    
C194  O5    A    
C206  O26   A    
C77   C86   A    
C20   C234  A    
C102  H141  S    
Cu4   O26   S    
C171  C180  S    
C153  H87   S    
C10   C248  A    
C52   C185  A    
C230  N6    S    
C13   C101  A    
C33   C230  A    
C202  O22   A    
C169  C178  S    
C147  H69   S    
C95   C104  A    
C92   C100  A    
C87   H127  S    
C171  O75   S    
C215  N3    A    
C56   C189  A    
C198  O18   A    
C182  H160  S    
C141  O80   S    
C232  N8    S    
C180  H158  S    
C163  H111  S    
C150  H80   S    
C64   C190  A    
C56   O66   S    
Cu8   O9    S    
C10   C23   A    
C56   C67   A    
C137  C138  S    
C204  O25   A    
C91   C99   A    
C154  O91   S    
C149  H75   S    
C202  O31   A    
Cu1   O34   S    
C208  O39   A    
C21   N5    A    
C158  H98   S    
C121  H3    S    
C131  H27   S    
C244  H169  S    
Cu11  O39   S    
C41   C48   A    
C128  H20   S    
C28   O60   S    
C64   C209  S    
C173  O76   S    
C38   H68   S    
C228  C236  A    
C89   H129  S    
C42   C49   A    
Cu8   O18   S    
C73   C179  S    
C136  H40   S    
C118  H201  S    
C74   C180  S    
C237  H162  S    
C154  H91   S    
C116  H195  S    
C155  H93   S    
C203  O24   A    
C217  C228  A    
C207  O38   A    
C167  O71   S    
C184  O87   S    
C182  O86   S    
C122  H5    S    
C77   C157  A    
C167  C176  S    
C212  C223  A    
