data_mof_unit_15398.cif
_audit_creation_date              2012-12-10T20:37:35-0500
_audit_creation_method            fapswitch 2.2
_symmetry_space_group_name_H-M    P1
_symmetry_Int_Tables_number       1
_space_group_crystal_system       triclinic
_cell_length_a                    15.721735
_cell_length_b                    10.624313
_cell_length_c                    9.884102
_cell_angle_alpha                 89.124458
_cell_angle_beta                  91.091379
_cell_angle_gamma                 89.413863
_cell_volume                      1650.38396087

loop_
_atom_site_label
_atom_site_type_symbol
_atom_type_description
_atom_site_fract_x
_atom_site_fract_y
_atom_site_fract_z
_atom_type_partial_charge
C1    C     C_R   0.491355 0.260779 0.500942 0.890618
C2    C     C_R   0.466933 0.131164 0.505401 -0.191658
C3    C     C_R   0.426182 0.071110 0.394915 0.187201
C4    C     C_R   0.338013 0.500208 0.498839 0.874289
C5    C     C_R   0.433586 0.938121 0.387841 0.158681
C6    C     C_R   0.474671 0.872702 0.498516 -0.212388
C7    C     C_R   0.487566 0.934809 0.619883 0.003756
C8    C     C_3   0.558591 0.926503 0.722896 0.232648
C9    C     C_3   0.552777 0.069844 0.729124 0.208650
C10   C     C_R   0.436738 0.558621 0.068222 0.198342
C11   C     C_R   0.565780 0.447928 0.076387 -0.052348
C12   C     C_3   0.083272 0.498477 0.497788 -0.035916
C13   C     C_R   0.566498 0.447313 0.932870 0.223094
C14   C     C_R   0.436575 0.558322 0.925886 0.263490
C15   C     C_3   0.344124 0.528600 0.918499 -0.432273
C16   C     C_R   0.494582 0.740515 0.498686 0.906559
C17   C     C_3   0.344293 0.529350 0.071997 -0.482818
C18   C     C_R   0.662009 0.499791 0.501178 0.897656
C19   C     C_3   0.974410 0.395712 0.567952 0.349650
C20   C     C_3   0.027508 0.394620 0.438723 -0.000349
C21   C     C_1   0.249238 0.499824 0.496511 -0.163063
C22   C     C_1   0.750867 0.499091 0.503664 -0.138810
C23   C     C_3   0.972371 0.602862 0.562588 -0.289307
C24   C     C_3   0.030881 0.499619 0.626895 0.407816
C25   C     C_3   0.060219 0.277749 0.368578 -0.710760
C26   C     C_3   0.641889 0.387063 0.868297 -0.678723
C27   C     C_3   0.375377 0.145997 0.288897 -0.805422
C28   C     C_3   0.400932 0.868042 0.264766 -0.752499
C29   C     C_3   0.916927 0.498000 0.502839 -0.086941
C30   C     C_3   0.026031 0.601661 0.432030 -0.252419
C31   C     C_3   0.969301 0.496787 0.373694 0.433787
C32   C     C_1   0.174029 0.499324 0.496219 0.068627
C33   C     C_1   0.826126 0.498491 0.504235 0.115804
C34   C     C_R   0.483647 0.062234 0.623582 0.014468
Cl1   Cl    Cl    0.511730 0.132142 0.882583 -0.551236
Cl2   Cl    Cl    0.938258 0.260528 0.658084 -0.521164
Cl3   Cl    Cl    0.926514 0.495227 0.205481 -0.516932
Cl4   Cl    Cl    0.073958 0.501833 0.794909 -0.504452
Cl5   Cl    Cl    0.528381 0.842268 0.872514 -0.538544
H1    H     H_    0.619059 0.891705 0.679552 0.075455
H2    H     H_    0.005688 0.219376 0.335761 0.269996
H3    H     H_    0.097290 0.305906 0.278802 0.251852
H4    H     H_    0.101755 0.222033 0.439605 0.241226
H5    H     H_    0.687275 0.460763 0.837089 0.244861
H6    H     H_    0.676437 0.322559 0.940349 0.225117
H7    H     H_    0.621854 0.329441 0.781616 0.266538
H8    H     H_    0.362579 0.244126 0.319454 0.237355
H9    H     H_    0.409102 0.146512 0.191199 0.281517
H10   H     H_    0.311303 0.104561 0.275518 0.227239
H11   H     H_    0.455344 0.831095 0.206936 0.279978
H12   H     H_    0.610643 0.117638 0.692134 0.066071
H13   H     H_    0.359695 0.789376 0.297382 0.219420
H14   H     H_    0.362742 0.926449 0.192318 0.244458
H15   H     H_    0.617713 0.405553 0.134981 0.169753
H16   H     H_    0.305894 0.606849 0.871482 0.232738
H17   H     H_    0.331658 0.434115 0.875917 0.236158
H18   H     H_    0.306384 0.608232 0.113518 0.217937
H19   H     H_    0.331790 0.435389 0.118196 0.225759
H20   H     H_    0.048834 0.685501 0.375568 0.199765
H21   H     H_    0.948130 0.687678 0.614244 0.213576
N1    N     N_R   0.499430 0.499140 0.142800 -0.133356
N2    N     N_R   0.499430 0.499180 0.857150 -0.106031
O1    O     O_R   0.500010 0.316790 0.614690 -0.601752
O2    O     O_R   0.500000 0.316760 0.385350 -0.606447
O3    O     O_R   0.376780 0.500010 0.614650 -0.608857
O4    O     O_R   0.376770 0.499970 0.385310 -0.637883
O5    O     O_R   0.500000 0.683240 0.614650 -0.573913
O6    O     O_R   0.499990 0.683210 0.385310 -0.612335
O7    O     O_R   0.623230 0.500030 0.614690 -0.627236
O8    O     O_R   0.623220 0.499990 0.385350 -0.601737
Zn1   Zn    Zn3+2 0.500010 0.500020 0.653130 1.000664
Zn2   Zn    Zn3+2 0.499990 0.499980 0.346870 0.965002

loop_
_geom_bond_atom_site_label_1
_geom_bond_atom_site_label_2
_ccdc_geom_bond_type
C27   H9    S    
C18   O8    A    
C11   C13   A    
C19   C20   S    
C9    H12   S    
C25   H4    S    
C26   H5    S    
C7    C8    S    
C23   C29   S    
C19   Cl2   S    
C4    O3    A    
C20   C25   S    
C10   C17   S    
C14   N2    A    
C29   C33   S    
C1    C2    S    
O7    Zn1   S    
C26   H6    S    
C28   H11   S    
O4    Zn2   S    
C13   N2    A    
C8    C9    S    
C24   Cl4   S    
C23   C24   S    
C16   O6    A    
C8    Cl5   S    
C17   H19   S    
C2    C34   A    
C18   O7    A    
C12   C32   S    
C1    O1    A    
C23   H21   S    
C21   C32   T    
C23   C30   S    
C10   C14   A    
C25   H2    S    
C3    C5    A    
O3    Zn1   S    
C31   Cl3   S    
C15   H16   S    
C5    C28   S    
C30   C31   S    
O6    Zn2   S    
C30   H20   S    
C12   C20   S    
C16   O5    A    
C11   H15   S    
N1    Zn2   S    
O1    Zn1   S    
C9    C34   S    
C7    C34   A    
C13   C26   S    
C10   N1    A    
C19   C29   S    
C1    O2    A    
C27   H8    S    
C15   C17   S    
C22   C33   T    
C12   C30   S    
C18   C22   S    
C11   N1    A    
C25   H3    S    
C28   H14   S    
C6    C7    A    
C12   C24   S    
C15   H17   S    
C3    C27   S    
C2    C3    A    
C29   C31   S    
C4    O4    A    
C4    C21   S    
C28   H13   S    
C5    C6    A    
N2    Zn1   S    
C19   C24   S    
O5    Zn1   S    
O2    Zn2   S    
C26   H7    S    
C6    C16   S    
C9    Cl1   S    
C14   C15   S    
O8    Zn2   S    
C8    H1    S    
C27   H10   S    
C17   H18   S    
C20   C31   S    
