data_mof_unit_43187.cif
_audit_creation_date              2012-12-10T17:40:58-0500
_audit_creation_method            fapswitch 2.2
_symmetry_space_group_name_H-M    P1
_symmetry_Int_Tables_number       1
_space_group_crystal_system       triclinic
_cell_length_a                    15.032517
_cell_length_b                    13.704263
_cell_length_c                    11.688986
_cell_angle_alpha                 90.186066
_cell_angle_beta                  89.505227
_cell_angle_gamma                 89.97659
_cell_volume                      2407.94022836

loop_
_atom_site_label
_atom_site_type_symbol
_atom_type_description
_atom_site_fract_x
_atom_site_fract_y
_atom_site_fract_z
_atom_type_partial_charge
C1    C     C_R   0.328986 0.499888 0.501935 0.798054
C2    C     C_R   0.671029 0.499936 0.495495 0.804333
C3    C     C_R   0.909479 0.471307 0.392421 0.016231
C4    C     C_R   0.090803 0.520949 0.607462 0.024545
C5    C     C_R   0.945656 0.552287 0.694260 -0.300363
C6    C     C_R   0.055036 0.447284 0.303510 -0.318578
C7    C     C_R   0.038664 0.553127 0.702452 0.432841
C8    C     C_R   0.962356 0.439010 0.297851 0.433583
C9    C     C_R   0.428845 0.793525 0.544366 0.061941
C10   C     C_R   0.571225 0.206427 0.456031 0.061102
C11   C     C_R   0.571015 0.793202 0.455415 0.060708
C12   C     C_R   0.429395 0.206961 0.545795 0.052033
C13   C     C_R   0.573045 0.896359 0.454241 -0.124106
C14   C     C_R   0.426118 0.103889 0.544045 -0.115792
C15   C     C_R   0.426503 0.896726 0.544848 -0.120194
C16   C     C_R   0.573651 0.103390 0.456223 -0.120142
C17   C     C_R   0.499621 0.948355 0.499235 -0.045731
C18   C     C_R   0.499646 0.051790 0.499465 -0.051258
C19   C     C_R   0.646909 0.948301 0.409885 0.334783
C20   C     C_R   0.351131 0.052269 0.585130 0.356407
C21   C     C_R   0.353142 0.949080 0.590499 0.324368
C22   C     C_R   0.648695 0.051303 0.415486 0.338350
C23   C     C_R   0.499092 0.499921 0.283862 0.820855
C24   C     C_R   0.499942 0.500159 0.716168 0.818009
C25   C     C_1   0.497358 0.499981 0.162330 -0.181074
C26   C     C_1   0.498588 0.500555 0.837760 -0.192307
C27   C     C_1   0.496611 0.500393 0.059888 -0.016222
C28   C     C_1   0.497359 0.500654 0.940211 -0.012789
C29   C     C_R   0.814806 0.480170 0.387939 0.018559
C30   C     C_R   0.185487 0.512339 0.611706 0.043864
C31   C     C_R   0.767502 0.499640 0.490677 -0.088575
C32   C     C_R   0.232701 0.499202 0.507514 -0.087493
C33   C     C_R   0.811408 0.520619 0.591662 -0.230013
C34   C     C_R   0.188802 0.480114 0.406057 -0.242549
C35   C     C_R   0.903486 0.521907 0.594651 0.077207
C36   C     C_R   0.096877 0.474686 0.404224 0.083025
C37   C     C_R   0.953249 0.495909 0.496808 -0.029265
C38   C     C_R   0.046953 0.496614 0.503216 -0.028810
Cu1   Cu    Cu3+1 0.500000 0.597420 0.500000 0.935132
Cu2   Cu    Cu3+1 0.500000 0.402580 0.500000 0.928465
H1    H     H_    0.773036 0.538073 0.668191 0.133762
H2    H     H_    0.227141 0.466397 0.328456 0.133162
H3    H     H_    0.905532 0.579712 0.764729 0.147632
H4    H     H_    0.095087 0.430292 0.228643 0.147347
H5    H     H_    0.373778 0.752541 0.579695 0.162445
H6    H     H_    0.626538 0.247096 0.421124 0.150865
H7    H     H_    0.626265 0.751960 0.420646 0.160777
H8    H     H_    0.375355 0.248299 0.583524 0.165206
N1    N     N_R   0.500000 0.743810 0.500000 -0.199881
N2    N     N_R   0.500000 0.256190 0.500000 -0.199790
O1    O     O_R   0.370260 0.582280 0.500020 -0.586947
O2    O     O_R   0.629740 0.417720 0.499980 -0.596735
O3    O     O_R   0.629740 0.582280 0.499980 -0.590215
O4    O     O_R   0.370260 0.417720 0.500020 -0.595206
O5    O     O_R   0.500010 0.582270 0.337200 -0.575625
O6    O     O_R   0.499990 0.417730 0.662800 -0.569103
O7    O     O_R   0.499990 0.582270 0.662800 -0.575549
O8    O     O_R   0.500010 0.417730 0.337200 -0.579269
C39   C     C_3   0.764680 0.484201 0.275070 -0.351492
C40   C     C_3   0.729972 0.383703 0.237634 -0.291534
C41   C     C_3   0.714578 0.379699 0.108795 -0.821685
H9    H     H_    0.778900 0.384040 0.061722 0.267649
H10   H     H_    0.672024 0.441316 0.081664 0.252585
H11   H     H_    0.681440 0.309988 0.086024 0.240731
H12   H     H_    0.777204 0.325047 0.260649 0.232591
H13   H     H_    0.666313 0.368389 0.282465 0.214215
H14   H     H_    0.707257 0.535059 0.281884 0.150488
H15   H     H_    0.806605 0.518797 0.208070 0.233959
C42   C     C_3   0.235539 0.501832 0.724585 -0.372947
C43   C     C_3   0.209205 0.406706 0.785381 -0.348137
C44   C     C_3   0.260708 0.393198 0.896151 -0.842790
H16   H     H_    0.250295 0.456568 0.954192 0.244582
H17   H     H_    0.332824 0.385176 0.877190 0.264623
H18   H     H_    0.237218 0.326227 0.940247 0.248908
H19   H     H_    0.136975 0.406234 0.805680 0.216004
H20   H     H_    0.223395 0.343656 0.727890 0.227694
H21   H     H_    0.308449 0.499265 0.711042 0.172575
H22   H     H_    0.226570 0.565850 0.780954 0.238799
O9    O     O_3   0.078552 0.603381 0.791718 -0.624369
C45   C     C_3   0.048120 0.572858 0.900991 0.028067
H23   H     H_    0.106926 0.547749 0.949597 0.162251
H24   H     H_    0.000768 0.510298 0.899660 0.122649
C46   C     C_3   0.006815 0.659649 0.964768 -0.341672
H25   H     H_    0.054589 0.721465 0.965466 0.233527
H26   H     H_    0.945770 0.684056 0.920298 0.213338
C47   C     C_3   0.983154 0.633025 0.087833 -0.910666
H27   H     H_    0.932041 0.574705 0.088684 0.279266
H28   H     H_    0.956143 0.698019 0.133109 0.255677
H29   H     H_    0.043167 0.607646 0.133827 0.263858
O10   O     O_3   0.923486 0.405428 0.197803 -0.632070
C48   C     C_3   0.958312 0.314067 0.161421 0.042373
H30   H     H_    0.901954 0.262155 0.153857 0.162590
H31   H     H_    0.005589 0.279885 0.222347 0.138612
C49   C     C_3   0.001591 0.324981 0.043128 -0.354716
H32   H     H_    0.950632 0.349600 0.981209 0.213966
H33   H     H_    0.054934 0.380880 0.046092 0.209729
C50   C     C_3   0.041603 0.228873 0.001232 -0.919455
H34   H     H_    0.094556 0.204289 0.060282 0.257322
H35   H     H_    0.071363 0.239194 0.914825 0.257524
H36   H     H_    0.989304 0.171841 0.995888 0.258463
O11   O     O_3   0.720297 0.898591 0.367544 -0.608553
C51   C     C_3   0.706503 0.876906 0.250653 0.066354
H37   H     H_    0.722721 0.942253 0.198190 0.171638
H38   H     H_    0.636487 0.854532 0.232852 0.122955
C52   C     C_3   0.767628 0.792647 0.215187 -0.330483
H39   H     H_    0.838159 0.815453 0.224315 0.225597
H40   H     H_    0.755496 0.729242 0.272347 0.217492
C53   C     C_3   0.751210 0.761251 0.091719 -0.946199
H41   H     H_    0.680983 0.737953 0.080981 0.261041
H42   H     H_    0.794916 0.698650 0.069387 0.261085
H43   H     H_    0.765992 0.822370 0.032343 0.260570
O12   O     O_3   0.277938 0.102874 0.627350 -0.621560
C54   C     C_3   0.208506 0.101521 0.545973 0.084374
H44   H     H_    0.144551 0.108258 0.593708 0.169738
H45   H     H_    0.204756 0.031704 0.496830 0.160872
C55   C     C_3   0.216621 0.188207 0.463705 -0.383414
H46   H     H_    0.219156 0.257418 0.513459 0.232195
H47   H     H_    0.278781 0.181278 0.412350 0.218391
C56   C     C_3   0.138599 0.192695 0.381458 -0.928506
H48   H     H_    0.133488 0.123691 0.331852 0.256013
H49   H     H_    0.149101 0.253770 0.320700 0.258695
H50   H     H_    0.075583 0.205490 0.429153 0.263179
O13   O     O_3   0.281110 0.899627 0.636439 -0.612820
C57   C     C_3   0.297548 0.880824 0.753231 0.041302
H51   H     H_    0.282753 0.947417 0.804724 0.175005
H52   H     H_    0.367935 0.858531 0.768660 0.127971
C58   C     C_3   0.237042 0.797779 0.792999 -0.291442
H53   H     H_    0.166421 0.821584 0.789542 0.235402
H54   H     H_    0.245756 0.734481 0.734364 0.228602
C59   C     C_3   0.258969 0.766029 0.914621 -0.939354
H55   H     H_    0.329226 0.741310 0.919509 0.257860
H56   H     H_    0.215493 0.704272 0.940009 0.266721
H57   H     H_    0.248082 0.827415 0.975425 0.257077
O14   O     O_3   0.723994 0.101206 0.379989 -0.617853
C60   C     C_3   0.781655 0.112026 0.474370 0.075953
H58   H     H_    0.823732 0.045572 0.481699 0.184012
H59   H     H_    0.745071 0.123390 0.557057 0.124957
C61   C     C_3   0.841355 0.200909 0.455249 -0.349690
H60   H     H_    0.880023 0.191658 0.374457 0.215867
H61   H     H_    0.799101 0.267027 0.448048 0.221450
C62   C     C_3   0.905443 0.215763 0.554348 -0.929227
H62   H     H_    0.867919 0.228243 0.635364 0.261582
H63   H     H_    0.947731 0.280624 0.537511 0.258854
H64   H     H_    0.949044 0.150894 0.563910 0.251203

loop_
_geom_bond_atom_site_label_1
_geom_bond_atom_site_label_2
_ccdc_geom_bond_type
C60   C61   S    
Cu1   O1    S    
C9    H5    S    
O11   C51   S    
C23   O8    A    
C11   C13   A    
C14   C18   A    
C42   H21   S    
C34   H2    S    
C12   H8    S    
C50   H36   S    
C50   H34   S    
C60   H58   S    
C53   H41   S    
C52   H40   S    
C22   O14   S    
C7    O9    S    
C35   C37   A    
C24   C26   S    
C42   C43   S    
C45   C46   S    
C47   H28   S    
Cu1   O7    S    
C55   H46   S    
C51   C52   S    
C41   H10   S    
C3    C29   A    
C39   H14   S    
C20   O12   S    
C11   H7    S    
Cu1   O5    S    
C29   C39   S    
C55   H47   S    
C24   O7    A    
Cu2   O6    S    
C10   H6    S    
C31   C33   A    
C43   C44   S    
C49   H33   S    
C54   C55   S    
C5    H3    S    
C40   H13   S    
C39   C40   S    
C6    H4    S    
C42   H22   S    
C49   H32   S    
C4    C7    A    
O12   C54   S    
C50   H35   S    
C56   H49   S    
C52   C53   S    
Cu2   O8    S    
C13   C19   A    
C51   H37   S    
C14   C20   A    
O13   C57   S    
C19   C22   A    
C9    N1    A    
C45   H24   S    
C3    C8    A    
C62   H64   S    
Cu1   Cu2   S    
C5    C7    A    
C47   H27   S    
C6    C8    A    
C49   C50   S    
Cu2   O2    S    
C2    O3    A    
C1    C32   S    
C2    C31   S    
C32   C34   A    
C21   O13   S    
C41   H11   S    
C59   H56   S    
C1    O4    A    
C58   H54   S    
C37   C38   A    
C11   N1    A    
C39   H15   S    
C48   H31   S    
C46   H25   S    
C17   C18   A    
C51   H38   S    
C1    O1    A    
C61   C62   S    
C2    O2    A    
C57   C58   S    
C46   H26   S    
C12   C14   A    
C40   H12   S    
Cu2   O4    S    
C43   H20   S    
C59   H57   S    
C24   O6    A    
C58   H53   S    
C10   N2    A    
C48   H30   S    
C30   C42   S    
C57   H52   S    
C54   H44   S    
C56   H50   S    
C60   H59   S    
C16   C22   A    
Cu1   N1    S    
C4    C38   A    
C45   H23   S    
C47   H29   S    
C44   H18   S    
C12   N2    A    
C56   H48   S    
C55   C56   S    
C23   O5    A    
O14   C60   S    
C61   H61   S    
C25   C27   T    
C52   H39   S    
C26   C28   T    
C53   H43   S    
C13   C17   A    
C33   H1    S    
C6    C36   A    
C62   H63   S    
C59   H55   S    
C9    C15   A    
C58   C59   S    
C44   H16   S    
C29   C31   A    
C10   C16   A    
C62   H62   S    
C48   C49   S    
C30   C32   A    
C19   O11   S    
O10   C48   S    
Cu1   O3    S    
Cu2   N2    S    
C5    C35   A    
C36   C38   A    
C33   C35   A    
C53   H42   S    
C34   C36   A    
C23   C25   S    
C41   H9    S    
C61   H60   S    
O9    C45   S    
C15   C21   A    
C46   C47   S    
C8    O10   S    
C20   C21   A    
C3    C37   A    
C16   C18   A    
C44   H17   S    
C27   C28   S    
C40   C41   S    
C43   H19   S    
C15   C17   A    
C4    C30   A    
C57   H51   S    
C54   H45   S    
