data_mof_unit_52091.cif
_audit_creation_date              2013-03-05T16:02:59-0500
_audit_creation_method            fapswitch 2.2
_symmetry_space_group_name_H-M    P1
_symmetry_Int_Tables_number       1
_space_group_crystal_system       triclinic
_cell_length_a                    14.993379
_cell_length_b                    14.264003
_cell_length_c                    10.479037
_cell_angle_alpha                 90.524728
_cell_angle_beta                  86.834608
_cell_angle_gamma                 90.172781
_cell_volume                      2237.58540105

loop_
_atom_site_label
_atom_site_type_symbol
_atom_site_description
_atom_site_fract_x
_atom_site_fract_y
_atom_site_fract_z
_atom_type_partial_charge
O1    O     O_R   0.367850 0.580280 0.500030 -0.621426
O2    O     O_R   0.632150 0.419720 0.499970 -0.621572
O3    O     O_R   0.632150 0.580280 0.499970 -0.624614
O4    O     O_R   0.367850 0.419720 0.500030 -0.624937
C1    C     C_R   0.327730 0.499776 0.499544 0.906740
C2    C     C_R   0.672274 0.500227 0.500367 0.906728
O5    O     O_R   0.499970 0.580260 0.313950 -0.621874
O6    O     O_R   0.500030 0.419740 0.686050 -0.621944
O7    O     O_R   0.500030 0.580260 0.686050 -0.633332
O8    O     O_R   0.499970 0.419740 0.313950 -0.633663
C3    C     C_R   0.500649 0.499602 0.257645 0.825792
C4    C     C_R   0.499315 0.500397 0.742359 0.825678
Zn1   Zn    Zn3+2 0.500000 0.607200 0.500000 0.933873
Zn2   Zn    Zn3+2 0.500000 0.392800 0.500000 0.933692
C5    C     C_3   0.430545 0.550610 0.048928 -0.169958
C6    C     C_3   0.569407 0.449386 0.951086 -0.170071
C7    C     C_3   0.507385 0.589221 0.960359 -0.135310
C8    C     C_3   0.492566 0.410776 0.039653 -0.135367
C9    C     C_3   0.422929 0.462541 0.963438 -0.196559
C10   C     C_3   0.577022 0.537456 0.036573 -0.196459
C11   C     C_3   0.499736 0.501094 0.877547 0.045402
C12   C     C_3   0.500215 0.498903 0.122463 0.045478
C13   C     C_R   0.816781 0.483297 0.384206 0.093299
C14   C     C_R   0.183219 0.517153 0.615540 0.093417
C15   C     C_R   0.767494 0.501143 0.500070 -0.064751
C16   C     C_R   0.232512 0.498912 0.499791 -0.064737
C17   C     C_R   0.808376 0.520758 0.615256 0.088911
C18   C     C_R   0.191640 0.479418 0.384557 0.089000
C19   C     C_R   0.901955 0.521285 0.614481 0.109056
C20   C     C_R   0.098069 0.479519 0.385140 0.109175
C21   C     C_R   0.952944 0.500887 0.499761 -0.010095
C22   C     C_R   0.047080 0.500016 0.499830 -0.010148
C23   C     C_R   0.910302 0.481507 0.384936 0.112615
C24   C     C_R   0.089716 0.519362 0.614671 0.112571
C25   C     C_R   0.945827 0.541369 0.726522 -0.209689
C26   C     C_R   0.054205 0.459880 0.272964 -0.209665
C27   C     C_R   0.037701 0.540397 0.726610 -0.208975
C28   C     C_R   0.962330 0.460858 0.272876 -0.209015
H1    H     H_    0.910168 0.558160 0.816264 0.156951
H2    H     H_    0.089868 0.443381 0.183133 0.156991
C29   C     C_R   0.551017 0.798848 0.408187 0.239648
C30   C     C_R   0.448983 0.201152 0.591813 0.239680
C31   C     C_R   0.449032 0.799802 0.591786 0.236378
C32   C     C_R   0.550967 0.200198 0.408212 0.236329
N1    N     N_R   0.500000 0.750030 0.500000 -0.106885
N2    N     N_R   0.500000 0.249970 0.500000 -0.106865
C33   C     C_R   0.451327 0.899981 0.596010 0.016350
C34   C     C_R   0.548671 0.100019 0.403988 0.016348
C35   C     C_R   0.548641 0.898978 0.403907 0.014808
C36   C     C_R   0.451358 0.101022 0.596092 0.014799
C37   C     C_R   0.499999 0.949635 0.499985 0.026972
C38   C     C_R   0.500000 0.050365 0.500014 0.026990
C39   C     C_R   0.405252 0.952152 0.693752 -0.197384
C40   C     C_R   0.594746 0.047848 0.306245 -0.197389
C41   C     C_R   0.594646 0.950143 0.306128 -0.197294
C42   C     C_R   0.405352 0.049856 0.693870 -0.197296
H3    H     H_    0.368578 0.918577 0.772500 0.153521
H4    H     H_    0.631418 0.081422 0.227496 0.153521
H5    H     H_    0.631107 0.915763 0.227170 0.153097
H6    H     H_    0.368891 0.084237 0.772828 0.153102
H7    H     H_    0.360305 0.431954 0.929199 0.137057
H8    H     H_    0.639642 0.568044 0.070821 0.137040
H9    H     H_    0.374305 0.592132 0.093231 0.142543
H10   H     H_    0.625659 0.407871 0.906799 0.142610
H11   H     H_    0.513708 0.661985 0.924249 0.144136
H12   H     H_    0.486243 0.338012 0.075765 0.144146
C43   C     C_3   0.770489 0.467840 0.259610 -0.953470
H13   H     H_    0.795383 0.519817 0.187755 0.236461
H14   H     H_    0.784188 0.395773 0.222778 0.246206
H15   H     H_    0.697092 0.476340 0.267881 0.226341
C44   C     C_3   0.229483 0.532479 0.740191 -0.953434
H16   H     H_    0.302817 0.523442 0.732078 0.226310
H17   H     H_    0.216206 0.604683 0.776775 0.246149
H18   H     H_    0.204210 0.480778 0.812168 0.236547
C45   C     C_3   0.753181 0.540387 0.739124 -0.908040
H19   H     H_    0.769826 0.488517 0.812524 0.227610
H20   H     H_    0.767485 0.612356 0.774025 0.241686
H21   H     H_    0.680276 0.535878 0.730419 0.241087
C46   C     C_3   0.246826 0.459144 0.260876 -0.909354
H22   H     H_    0.319712 0.462162 0.269956 0.241953
H23   H     H_    0.231485 0.387569 0.225621 0.241665
H24   H     H_    0.231195 0.511461 0.187602 0.227721
H25   H     H_    0.066884 0.556722 0.816255 0.158702
H26   H     H_    0.933158 0.444755 0.183158 0.158700
C47   C     C_3   0.612108 0.748420 0.310891 -0.836836
H27   H     H_    0.621725 0.674524 0.329566 0.291260
H28   H     H_    0.585946 0.754834 0.214255 0.213975
H29   H     H_    0.680320 0.778955 0.311074 0.205995
C48   C     C_3   0.387893 0.251580 0.689110 -0.836761
H30   H     H_    0.378274 0.325477 0.670436 0.291252
H31   H     H_    0.319681 0.221045 0.688929 0.205999
H32   H     H_    0.414056 0.245167 0.785745 0.213975
C49   C     C_3   0.388004 0.750334 0.688995 -0.843479
H33   H     H_    0.380136 0.675833 0.671538 0.297034
H34   H     H_    0.413190 0.759697 0.785948 0.206905
H35   H     H_    0.319402 0.779251 0.687121 0.210040
C50   C     C_3   0.611994 0.249666 0.311001 -0.843305
H36   H     H_    0.619868 0.324165 0.328463 0.296974
H37   H     H_    0.680595 0.220745 0.312868 0.210063
H38   H     H_    0.586803 0.240308 0.214050 0.206898

loop_
_geom_bond_atom_site_label_1
_geom_bond_atom_site_label_2
_geom_bond_distance
_ccdc_geom_bond_type
Zn1   N1    2.037328 S    
C49   H33   1.083849 S    
C41   H5    1.080827 S    
C1    C16   1.427507 S    
C17   C19   1.402632 A    
C24   C27   1.402901 A    
O3    C2    1.292411 A    
C50   H36   1.083850 S    
Zn2   N2    2.037329 S    
C47   H27   1.085323 S    
C34   C40   1.411056 A    
C6    C11   1.527411 S    
O1    C1    1.294819 A    
C9    C11   1.526270 S    
C14   C16   1.407663 A    
C47   H29   1.110497 S    
C2    C15   1.427523 S    
C7    C10   1.542951 S    
C8    C9    1.542961 S    
C30   N2    1.386872 A    
C13   C43   1.526083 S    
C18   C46   1.524531 S    
O7    Zn1   1.990609 S    
C5    C9    1.543860 S    
C5    C12   1.527381 S    
C13   C23   1.402957 A    
C36   C38   1.405855 A    
C21   C23   1.418031 A    
C48   H31   1.110497 S    
O3    Zn1   2.019359 S    
C6    C10   1.543847 S    
C33   C39   1.411055 A    
C49   H34   1.110054 S    
O4    Zn2   2.019360 S    
O2    C2    1.294863 A    
C43   H13   1.110614 S    
C17   C45   1.524541 S    
C29   C35   1.429985 A    
C50   H37   1.110596 S    
C32   N2    1.386615 A    
O5    C3    1.287963 A    
C47   H28   1.110618 S    
C37   C38   1.436803 A    
C26   H2    1.080997 S    
O8    Zn2   1.990610 S    
C46   H23   1.110311 S    
C39   H3    1.080832 S    
C33   C37   1.405546 A    
C35   C37   1.405854 A    
C35   C41   1.410995 A    
C4    C11   1.416946 S    
C14   C24   1.402915 A    
C42   H6    1.080828 S    
C43   H14   1.110449 S    
C22   C24   1.418042 A    
C25   H1    1.081061 S    
C45   H19   1.110873 S    
C44   H18   1.110523 S    
C45   H20   1.110869 S    
C32   C50   1.509686 S    
C21   C22   1.411549 A    
C34   C38   1.405546 A    
O6    C4    1.287971 A    
C48   H32   1.110618 S    
C31   N1    1.386614 A    
C30   C36   1.429984 A    
C10   C12   1.526252 S    
C49   H35   1.110597 S    
O8    C3    1.287431 A    
C15   C17   1.409058 A    
C50   H38   1.110055 S    
C25   C27   1.377672 A    
C44   H17   1.110366 S    
C40   H4    1.080832 S    
C39   C42   1.393644 A    
C5    C7    1.542565 S    
C40   C41   1.393644 A    
O6    Zn2   1.983702 S    
C28   H26   1.081124 S    
C8    C12   1.528561 S    
C7    H11   1.109988 S    
O4    C1    1.292458 A    
C46   H24   1.110331 S    
C8    H12   1.109989 S    
C29   C47   1.511065 S    
C19   C25   1.404002 A    
C3    C12   1.416901 S    
C16   C18   1.409094 A    
C23   C28   1.402879 A    
C20   C26   1.403930 A    
C30   C48   1.511066 S    
C43   H15   1.106037 S    
C18   C20   1.402622 A    
C44   H16   1.105957 S    
C19   C21   1.416941 A    
C29   N1    1.386872 A    
C20   C22   1.416971 A    
C9    H7    1.110200 S    
C26   C28   1.377684 A    
C31   C49   1.509681 S    
C13   C15   1.407626 A    
C10   H8    1.110198 S    
O2    Zn2   2.017086 S    
C45   H21   1.103535 S    
C36   C42   1.410996 A    
O7    C4    1.287444 A    
C46   H22   1.102828 S    
O5    Zn1   1.983704 S    
O1    Zn1   2.017088 S    
C6    C8    1.542557 S    
C5    H9    1.109993 S    
C27   H25   1.081156 S    
C6    H10   1.110015 S    
C48   H30   1.085328 S    
C31   C33   1.429613 A    
C32   C34   1.429613 A    
C14   C44   1.526131 S    
C7    C11   1.528568 S    
