data_mof_unit_47409.cif
_audit_creation_date              2012-12-10T16:59:20-0500
_audit_creation_method            fapswitch 2.2
_symmetry_space_group_name_H-M    P1
_symmetry_Int_Tables_number       1
_space_group_crystal_system       triclinic
_cell_length_a                    7.730665
_cell_length_b                    8.5519
_cell_length_c                    27.428198
_cell_angle_alpha                 90.81647
_cell_angle_beta                  86.360738
_cell_angle_gamma                 93.843182
_cell_volume                      1805.51243578

loop_
_atom_site_label
_atom_site_type_symbol
_atom_type_description
_atom_site_fract_x
_atom_site_fract_y
_atom_site_fract_z
_atom_type_partial_charge
C1    C     C_R   0.546195 0.794936 0.499464 0.946099
C2    C     C_R   0.723013 0.456653 0.127128 -0.030580
C3    C     C_R   0.512911 0.500126 0.647538 -0.171903
C4    C     C_R   0.487878 0.471581 0.354113 -0.152763
C5    C     C_R   0.729174 0.468398 0.024556 0.042920
C6    C     C_R   0.513135 0.251995 0.973073 0.041071
C7    C     C_R   0.502698 0.251285 0.024737 0.040867
C8    C     C_R   0.710528 0.490499 0.974311 0.042146
C9    C     C_R   0.613729 0.358147 0.050151 0.074466
C10   C     C_R   0.605556 0.379517 0.948548 0.077235
C11   C     C_R   0.854414 0.556803 0.050590 -0.216499
C12   C     C_R   0.454235 0.205183 0.502431 1.009913
C13   C     C_R   0.429484 0.133220 0.945025 -0.219680
C14   C     C_R   0.853121 0.548621 0.101169 -0.141791
C15   C     C_R   0.425850 0.146624 0.894620 -0.130620
C16   C     C_R   0.503964 0.502880 0.594263 0.923906
C17   C     C_R   0.496760 0.498550 0.406120 0.961681
C18   C     C_R   0.784938 0.624783 0.949580 -0.218246
C19   C     C_R   0.378292 0.153839 0.051970 -0.212193
C20   C     C_2   0.570905 0.958570 0.499730 -0.356627
C21   C     C_2   0.430898 0.041845 0.505938 -0.380813
C22   C     C_R   0.625722 0.559556 0.826010 0.518632
C23   C     C_R   0.588512 0.398739 0.898099 -0.058825
C24   C     C_R   0.448027 0.291780 0.178385 0.520064
C25   C     C_R   0.487027 0.302366 0.820943 0.568345
C26   C     C_R   0.705307 0.462494 0.178105 0.579084
C27   C     C_R   0.366656 0.446074 0.727732 0.553198
C28   C     C_R   0.519185 0.573726 0.271674 0.567106
C29   C     C_R   0.360322 0.465394 0.677061 -0.457492
C30   C     C_R   0.498791 0.598775 0.322454 -0.457347
C31   C     C_R   0.673062 0.529017 0.669134 0.460475
C32   C     C_R   0.483625 0.317273 0.335972 0.444867
C33   C     C_R   0.679678 0.501405 0.719056 -0.345652
C34   C     C_R   0.604016 0.360050 0.101694 -0.053254
C35   C     C_R   0.515170 0.292840 0.285845 -0.309464
C36   C     C_R   0.528923 0.463008 0.748381 0.194164
C37   C     C_R   0.531463 0.419115 0.253739 0.183980
C38   C     C_3   0.911224 0.708588 0.662616 0.102477
C39   C     C_3   0.024853 0.799389 0.623971 -0.841006
C40   C     C_3   0.308750 0.097482 0.355502 0.096230
C41   C     C_3   0.251361 0.986416 0.397045 -0.808487
C42   C     C_3   0.629668 0.823796 0.250214 0.138283
C43   C     C_3   0.670979 0.923344 0.204879 -0.773291
C44   C     C_3   0.104329 0.300640 0.741180 0.111090
C45   C     C_R   0.657828 0.536559 0.874863 -0.033842
C46   C     C_3   0.980520 0.241175 0.783254 -0.750405
C47   C     C_R   0.471368 0.269780 0.127788 -0.032462
C48   C     C_R   0.755477 0.648926 0.900919 -0.129166
C49   C     C_R   0.360657 0.165579 0.102647 -0.138657
C50   C     C_R   0.499431 0.281563 0.871090 -0.036631
H1    H     H_    0.013578 0.381600 0.463753 0.195174
H2    H     H_    0.368803 0.027275 0.961168 0.143550
H3    H     H_    0.702964 0.009863 0.493540 0.179208
H4    H     H_    0.299080 0.990394 0.512546 0.174388
H5    H     H_    0.997442 0.667571 0.690046 0.169660
H6    H     H_    0.820337 0.791312 0.680436 0.163214
H7    H     H_    0.943902 0.839721 0.595177 0.246285
H8    H     H_    0.091754 0.903358 0.641008 0.213916
H9    H     H_    0.124666 0.724221 0.607321 0.270635
H10   H     H_    0.338964 0.025160 0.322501 0.155537
H11   H     H_    0.197419 0.169343 0.348816 0.158237
H12   H     H_    0.985861 0.618691 0.535890 0.216797
H13   H     H_    0.204987 0.054356 0.429485 0.246608
H14   H     H_    0.143007 0.904499 0.385920 0.216727
H15   H     H_    0.360979 0.917199 0.406381 0.259876
H16   H     H_    0.492265 0.716017 0.337544 0.156358
H17   H     H_    0.236753 0.453276 0.660514 0.195813
H18   H     H_    0.754575 0.786679 0.263033 0.175104
H19   H     H_    0.566542 0.897445 0.278821 0.125552
H20   H     H_    0.549184 0.962779 0.191182 0.262718
H21   H     H_    0.756658 0.027884 0.213833 0.209235
H22   H     H_    0.738062 0.854039 0.175759 0.266113
H23   H     H_    0.802698 0.512457 0.735790 0.179299
H24   H     H_    0.176144 0.199797 0.726267 0.171331
H25   H     H_    0.025808 0.344569 0.712406 0.134616
H26   H     H_    0.908960 0.339093 0.799769 0.239495
H27   H     H_    0.885440 0.150183 0.769719 0.220309
H28   H     H_    0.054333 0.189431 0.811764 0.271526
H29   H     H_    0.858100 0.717591 0.967831 0.142374
H30   H     H_    0.285225 0.074793 0.034834 0.141379
H31   H     H_    0.527347 0.175416 0.271588 0.172314
H32   H     H_    0.810454 0.755881 0.883741 0.188597
H33   H     H_    0.258459 0.093807 0.122005 0.187690
H34   H     H_    0.949119 0.620722 0.119931 0.187389
H35   H     H_    0.359825 0.053203 0.874437 0.190553
H36   H     H_    0.955665 0.632105 0.032501 0.143017
N1    N     N_R   0.543752 0.442206 0.799749 -0.324144
N2    N     N_R   0.562632 0.389701 0.202405 -0.323732
N3    N     N_2   0.950320 0.457960 0.486880 -0.172121
N4    N     N_2   0.049680 0.542040 0.513120 -0.169883
O1    O     O_R   0.389250 0.738570 0.503220 -0.620468
O2    O     O_2   0.309770 0.218949 0.203141 -0.571295
O3    O     O_2   0.828121 0.541953 0.203216 -0.569031
O4    O     O_2   0.421050 0.183302 0.793533 -0.572030
O5    O     O_3   0.821697 0.578518 0.640629 -0.607495
O6    O     O_3   0.457165 0.192327 0.367958 -0.620979
O7    O     O_3   0.515769 0.694461 0.238400 -0.600831
O8    O     O_3   0.217389 0.423069 0.758517 -0.602180
O9    O     O_R   0.610750 0.261430 0.496780 -0.609439
O10   O     O_R   0.678390 0.711630 0.494810 -0.634814
O11   O     O_R   0.321610 0.288370 0.505190 -0.635244
O12   O     O_R   0.355440 0.513440 0.575450 -0.633700
O13   O     O_R   0.644560 0.486560 0.424550 -0.604419
O14   O     O_R   0.644590 0.486500 0.567040 -0.572841
O15   O     O_R   0.355410 0.513500 0.432960 -0.623445
O16   O     O_2   0.676131 0.698188 0.804840 -0.566755
Zn1   Zn    Zn3+2 0.306940 0.517990 0.505620 0.945538
Zn2   Zn    Zn3+2 0.693060 0.482010 0.494380 0.978112

loop_
_geom_bond_atom_site_label_1
_geom_bond_atom_site_label_2
_ccdc_geom_bond_type
C28   O7    S    
O11   Zn1   S    
C27   O8    S    
C43   H22   S    
C40   H10   S    
C27   C29   A    
C37   N2    S    
C14   H34   S    
C46   H26   S    
C35   H31   S    
C47   C49   A    
O9    Zn2   S    
O15   Zn1   S    
C23   C45   A    
C35   C37   A    
N4    Zn1   S    
C5    C11   A    
C21   H4    S    
C11   C14   A    
C11   H36   S    
C39   H7    S    
C25   N1    A    
C33   C36   A    
C15   C50   A    
C3    C29   A    
C25   C50   A    
C12   O9    A    
C29   H17   S    
C44   O8    S    
C16   O14   A    
C38   H5    S    
C18   H29   S    
C38   O5    S    
C31   C33   A    
O13   Zn2   S    
C15   H35   S    
C2    C34   A    
C26   O3    S    
C25   O4    S    
C1    O1    A    
C42   H18   S    
C40   O6    S    
C24   O2    S    
C1    O10   A    
C44   C46   S    
C36   N1    S    
O10   Zn2   S    
C32   C35   A    
O1    Zn1   S    
C42   O7    S    
C46   H28   S    
C23   C50   A    
C41   H15   S    
C22   O16   S    
C39   H8    S    
C12   C21   S    
C42   H19   S    
C8    C18   A    
C40   H11   S    
C44   H25   S    
C3    C31   A    
C5    C9    A    
C17   O15   A    
C5    C8    A    
C13   H2    S    
C19   C49   A    
C39   H9    S    
O12   Zn1   S    
C2    C26   A    
C30   H16   S    
C22   N1    A    
C44   H24   S    
C24   N2    A    
C4    C32   A    
C4    C17   S    
C16   O12   A    
C40   C41   S    
C32   O6    S    
C43   H20   S    
C7    C19   A    
C13   C15   A    
C9    C34   A    
C10   C23   A    
C42   C43   S    
C41   H13   S    
O14   Zn2   S    
C45   C48   A    
C33   H23   S    
C7    C9    A    
C1    C20   S    
C43   H21   S    
C24   C47   A    
C20   H3    S    
C18   C48   A    
C6    C10   A    
C46   H27   S    
C6    C7    A    
C27   C36   A    
C49   H33   S    
C28   C30   A    
C17   O13   A    
C12   O11   A    
H1    N3    S    
C6    C13   A    
C38   C39   S    
C28   C37   A    
C31   O5    S    
H12   N4    S    
N3    Zn2   S    
C48   H32   S    
C19   H30   S    
C2    C14   A    
C26   N2    A    
C22   C45   A    
C38   H6    S    
C20   C21   D    
C8    C10   A    
C34   C47   A    
C41   H14   S    
N3    N4    D    
C4    C30   A    
C3    C16   S    
