data_mof_unit_26516.cif
_audit_creation_date              2012-12-10T18:47:48-0500
_audit_creation_method            fapswitch 2.2
_symmetry_space_group_name_H-M    P1
_symmetry_Int_Tables_number       1
_space_group_crystal_system       triclinic
_cell_length_a                    10.085786
_cell_length_b                    10.62838
_cell_length_c                    15.310572
_cell_angle_alpha                 90.352472
_cell_angle_beta                  71.276585
_cell_angle_gamma                 88.945846
_cell_volume                      1553.981364

loop_
_atom_site_label
_atom_site_type_symbol
_atom_type_description
_atom_site_fract_x
_atom_site_fract_y
_atom_site_fract_z
_atom_type_partial_charge
C1    C     C_R   0.498561 0.738733 0.500565 0.917044
C2    C     C_R   0.482224 0.935021 0.424391 -0.051448
C3    C     C_R   0.502962 0.128274 0.500587 -0.179642
C4    C     C_R   0.494852 0.871901 0.502041 -0.186833
C5    C     C_R   0.952390 0.403488 0.459507 0.073188
C6    C     C_R   0.047660 0.596377 0.540595 0.070562
C7    C     C_R   0.093646 0.403856 0.460730 -0.187957
C8    C     C_R   0.906418 0.596128 0.539305 -0.152798
C9    C     C_R   0.413774 0.487721 0.674013 0.884124
C10   C     C_R   0.585704 0.497643 0.325519 1.020937
C11   C     C_R   0.364034 0.445649 0.770144 -0.275985
C12   C     C_R   0.500566 0.261357 0.500999 0.788997
C13   C     C_R   0.628531 0.482235 0.226209 -0.231682
C14   C     C_R   0.177680 0.431072 0.912729 0.544360
C15   C     C_R   0.767680 0.534331 0.071326 0.570734
C16   C     C_R   0.220568 0.430219 0.816792 0.398435
C17   C     C_R   0.739493 0.549249 0.166901 0.421065
C18   C     C_R   0.459252 0.418210 0.816686 -0.302783
C19   C     C_R   0.540815 0.412524 0.190489 -0.217699
C20   C     C_R   0.412381 0.377425 0.909090 0.004217
C21   C     C_R   0.562505 0.409464 0.096291 -0.011378
C22   C     C_R   0.268119 0.383531 0.957771 -0.169718
C23   C     C_R   0.312290 0.386733 0.103296 -0.102091
C24   C     C_R   0.693848 0.444735 0.038690 -0.243341
C25   C     C_R   0.506655 0.357467 0.958371 -0.086559
C26   C     C_R   0.459368 0.379452 0.055530 0.037679
C27   C     C_3   0.050685 0.235255 0.134073 -0.343581
C28   C     C_3   0.909492 0.240675 0.954876 -0.248165
C29   C     C_3   0.930919 0.601918 0.205741 -0.131835
C30   C     C_3   0.118710 0.327578 0.725584 -0.002465
C31   C     C_3   0.140768 0.638653 0.948185 -0.182887
C32   C     C_3   0.745768 0.715099 0.998063 -0.234867
C33   C     C_2   0.248764 0.441991 0.197101 0.390837
C34   C     C_R   0.650824 0.335849 0.912291 -0.154781
C35   C     C_2   0.696786 0.254535 0.828130 0.389522
C36   C     C_2   0.522003 0.861640 0.659767 0.501076
C37   C     C_2   0.499183 0.137992 0.337476 0.382806
C38   C     C_2   0.495979 0.139261 0.666141 0.409790
C39   C     C_2   0.467725 0.864278 0.343971 0.477416
C40   C     C_2   0.914843 0.295344 0.412299 0.394338
C41   C     C_2   0.085498 0.704029 0.588059 0.460835
C42   C     C_R   0.219424 0.366948 0.053610 0.461000
C43   C     C_R   0.746243 0.387002 0.951617 0.617474
C44   C     C_R   0.506814 0.934712 0.580320 -0.054580
C45   C     C_R   0.491165 0.065534 0.422325 -0.046572
C46   C     C_R   0.504907 0.065935 0.580992 -0.018871
H1    H     H_    0.454184 0.362969 0.236757 0.193909
H2    H     H_    0.861835 0.161915 0.928202 0.155199
H3    H     H_    0.923872 0.510498 0.241776 0.197989
H4    H     H_    0.969772 0.671854 0.245284 0.178048
H5    H     H_    0.008544 0.594304 0.135856 0.207694
H6    H     H_    0.070479 0.252008 0.774137 0.175631
H7    H     H_    0.224336 0.292859 0.682570 0.098053
H8    H     H_    0.056566 0.342844 0.678407 0.202041
H9    H     H_    0.160446 0.673407 0.876850 0.183737
H10   H     H_    0.239786 0.637836 0.965780 0.113179
H11   H     H_    0.070066 0.708293 0.995654 0.207723
H12   H     H_    0.568830 0.434757 0.781733 0.208604
H13   H     H_    0.679861 0.673240 0.959894 0.160712
H14   H     H_    0.806292 0.791474 0.955164 0.188598
H15   H     H_    0.678579 0.758451 0.064262 0.184369
H16   H     H_    0.164821 0.394813 0.248092 0.077790
H17   H     H_    0.623298 0.190628 0.814098 0.132956
H18   H     H_    0.470158 0.772436 0.677855 0.041574
H19   H     H_    0.564000 0.220325 0.320948 0.069767
H20   H     H_    0.553785 0.225190 0.661804 0.072859
H21   H     H_    0.381926 0.886063 0.318001 0.115399
H22   H     H_    0.954021 0.201917 0.420668 0.044033
H23   H     H_    0.165072 0.327169 0.428335 0.142501
H24   H     H_    0.049276 0.798044 0.578235 0.022923
H25   H     H_    0.835100 0.672887 0.571670 0.149903
H26   H     H_    0.081153 0.163486 0.077510 0.161480
H27   H     H_    0.936719 0.227578 0.170312 0.218251
H28   H     H_    0.105232 0.213779 0.184998 0.170904
H29   H     H_    0.868015 0.242860 0.031500 0.157977
H30   H     H_    0.023357 0.219724 0.934673 0.168670
N1    N     N_R   0.142780 0.500030 0.500020 -0.088125
N2    N     N_R   0.857220 0.499970 0.499980 -0.086488
O1    O     O_R   0.385370 0.683250 0.500010 -0.597313
O2    O     O_3   0.886944 0.356982 0.916585 -0.513400
O3    O     O_3   0.800209 0.644805 0.201569 -0.575671
O4    O     O_3   0.120672 0.442074 0.773070 -0.524832
O5    O     O_3   0.077323 0.518696 0.958986 -0.505493
O6    O     O_3   0.840985 0.625107 0.012546 -0.553412
O7    O     O_2   0.283515 0.545442 0.216034 -0.564387
O8    O     O_2   0.814329 0.259858 0.772931 -0.581878
O9    O     O_2   0.596924 0.897803 0.703204 -0.559910
O10   O     O_2   0.431833 0.109443 0.287122 -0.630179
O11   O     O_2   0.419136 0.106859 0.741508 -0.582068
O12   O     O_R   0.614630 0.316750 0.499990 -0.594765
O13   O     O_2   0.552736 0.782100 0.305641 -0.548971
O14   O     O_2   0.850179 0.309531 0.358121 -0.581705
O15   O     O_2   0.147065 0.688848 0.643938 -0.515725
O16   O     O_R   0.614700 0.683220 0.500000 -0.616265
O17   O     O_R   0.385300 0.316780 0.500000 -0.644677
O18   O     O_R   0.319830 0.500020 0.632250 -0.529023
O19   O     O_R   0.680170 0.499980 0.367750 -0.552732
O20   O     O_R   0.549160 0.499990 0.632240 -0.636457
O21   O     O_R   0.450840 0.500010 0.367760 -0.601138
O22   O     O_3   0.077170 0.358038 0.098962 -0.622688
Zn1   Zn    Zn3+2 0.346870 0.500020 0.500000 1.006237
Zn2   Zn    Zn3+2 0.653130 0.499980 0.500000 1.000676

loop_
_geom_bond_atom_site_label_1
_geom_bond_atom_site_label_2
_ccdc_geom_bond_type
C21   C26   A    
C11   C18   A    
C9    O20   A    
N2    Zn2   S    
C37   O10   D    
N1    Zn1   S    
C29   H3    S    
C30   H8    S    
C38   O11   D    
C23   C42   A    
C12   O12   A    
C19   C21   A    
C32   H15   S    
C35   O8    D    
C19   H1    S    
C20   C25   A    
C31   O5    S    
C34   C35   S    
C23   C26   A    
C33   O7    D    
O12   Zn2   S    
C3    C12   S    
C2    C39   S    
C18   H12   S    
C41   O15   D    
C38   H20   S    
C1    O16   A    
C23   C33   S    
C6    C41   S    
C37   H19   S    
C12   O17   A    
C31   H10   S    
C27   H28   S    
C18   C20   A    
O19   Zn2   S    
C25   C34   A    
C7    N1    A    
C36   O9    D    
O18   Zn1   S    
C8    N2    A    
C14   O5    S    
C39   O13   D    
C44   C46   A    
C29   H4    S    
C2    C45   A    
C32   O6    S    
C30   H7    S    
C27   O22   S    
C13   C19   A    
C5    C7    A    
C33   H16   S    
C6    N1    A    
C6    C8    A    
C4    C44   A    
C43   O2    S    
O20   Zn2   S    
C3    C45   A    
C30   O4    S    
C10   O19   A    
C2    C4    A    
C29   O3    S    
C42   O22   S    
C11   C16   A    
C16   O4    S    
C40   O14   D    
C9    C11   S    
C9    O18   A    
C15   C24   A    
O21   Zn1   S    
C20   C22   A    
C1    O1    A    
C14   C16   A    
C21   C24   A    
C36   C44   S    
C32   H14   S    
C37   C45   S    
C28   H30   S    
C29   H5    S    
C15   C17   A    
C30   H6    S    
C28   H2    S    
C8    H25   S    
C39   H21   S    
C34   C43   A    
C10   C13   S    
C7    H23   S    
C15   O6    S    
C3    C46   A    
C13   C17   A    
C1    C4    S    
C31   H11   S    
C25   C26   A    
C36   H18   S    
C14   C22   A    
C22   C42   A    
C17   O3    S    
C10   O21   A    
C28   O2    S    
C38   C46   S    
O16   Zn2   S    
C40   H22   S    
C5    C40   S    
C24   C43   A    
O1    Zn1   S    
C35   H17   S    
C32   H13   S    
C31   H9    S    
C5    N2    A    
C27   H27   S    
C28   H29   S    
C27   H26   S    
O17   Zn1   S    
C41   H24   S    
