data_mof_unit_66330.cif
_audit_creation_date              2012-12-10T16:51:43-0500
_audit_creation_method            fapswitch 2.2
_symmetry_space_group_name_H-M    P1
_symmetry_Int_Tables_number       1
_space_group_crystal_system       monoclinic
_cell_length_a                    30.101818
_cell_length_b                    30.60254
_cell_length_c                    21.63606
_cell_angle_alpha                 90.0
_cell_angle_beta                  134.392285
_cell_angle_gamma                 90.0
_cell_volume                      14242.0092182

loop_
_atom_site_label
_atom_site_type_symbol
_atom_type_description
_atom_site_fract_x
_atom_site_fract_y
_atom_site_fract_z
_atom_type_partial_charge
C1    C     C_R   0.689032 0.809802 0.881354 0.925635
C2    C     C_R   0.310968 0.809802 0.118646 0.925635
C3    C     C_R   0.189034 0.309802 0.881355 0.925524
C4    C     C_R   0.810966 0.309802 0.118645 0.925524
C5    C     C_R   0.453051 0.789979 0.998942 0.120366
C6    C     C_R   0.546949 0.789979 0.001058 0.120366
C7    C     C_R   0.953050 0.289983 0.998942 0.117217
C8    C     C_R   0.046950 0.289983 0.001058 0.117217
C9    C     C_R   0.477435 0.670157 0.001123 -0.211935
C10   C     C_R   0.522564 0.670157 0.998877 -0.211935
C11   C     C_R   0.977435 0.170160 0.001123 -0.213467
C12   C     C_R   0.022565 0.170160 0.998877 -0.213467
C13   C     C_R   0.523554 0.829608 0.000846 -0.213988
C14   C     C_R   0.476446 0.829608 0.999154 -0.213988
C15   C     C_R   0.023554 0.329611 0.000846 -0.206325
C16   C     C_R   0.976446 0.329611 0.999154 -0.206325
C17   C     C_2   0.559944 0.873619 0.680693 -0.153256
C18   C     C_2   0.440056 0.873619 0.319307 -0.153256
C19   C     C_2   0.059951 0.373631 0.680714 -0.151458
C20   C     C_2   0.940049 0.373631 0.319286 -0.151458
C21   C     C_2   0.590153 0.903381 0.676304 -0.333173
C22   C     C_2   0.409846 0.903381 0.323696 -0.333173
C23   C     C_2   0.090161 0.403392 0.676327 -0.325938
C24   C     C_2   0.909839 0.403392 0.323673 -0.325938
C25   C     C_2   0.594591 0.837463 0.742121 -0.154893
C26   C     C_2   0.405408 0.837463 0.257879 -0.154893
C27   C     C_2   0.094594 0.337472 0.742134 -0.156572
C28   C     C_2   0.905406 0.337472 0.257866 -0.156573
C29   C     C_2   0.652781 0.844059 0.818327 -0.336484
C30   C     C_2   0.347219 0.844059 0.181673 -0.336484
C31   C     C_2   0.152786 0.344062 0.818335 -0.331087
C32   C     C_2   0.847213 0.344062 0.181665 -0.331087
C33   C     C_R   0.132108 0.748787 0.078594 -0.246173
C34   C     C_R   0.867891 0.748787 0.921406 -0.246173
C35   C     C_R   0.632123 0.248920 0.078644 -0.254834
C36   C     C_R   0.367877 0.248920 0.921356 -0.254834
C37   C     C_R   0.115263 0.750162 0.999874 -0.054118
C38   C     C_R   0.884737 0.750162 0.000126 -0.054118
C39   C     C_R   0.615289 0.250274 0.999931 -0.068473
C40   C     C_R   0.384711 0.250274 0.000069 -0.068473
C41   C     C_R   0.052944 0.751507 0.921190 -0.235190
C42   C     C_R   0.947056 0.751507 0.078810 -0.235188
C43   C     C_R   0.552976 0.251750 0.921250 -0.231373
C44   C     C_R   0.447024 0.251750 0.078750 -0.231373
C45   C     C_R   0.663056 0.749934 0.999858 0.884849
C46   C     C_R   0.336944 0.749934 0.000141 0.884849
C47   C     C_R   0.163055 0.249935 0.999858 0.884602
C48   C     C_R   0.836945 0.249935 0.000142 0.884603
C49   C     C_R   0.006467 0.750798 0.920574 0.119364
C50   C     C_R   0.993533 0.750798 0.079426 0.119364
C51   C     C_R   0.506490 0.251068 0.920604 0.109596
C52   C     C_R   0.493510 0.251069 0.079396 0.109596
C53   C     C_R   0.023195 0.750145 0.999971 0.059606
C54   C     C_R   0.976805 0.750145 0.000029 0.059606
C55   C     C_R   0.523202 0.250401 0.999987 0.059289
C56   C     C_R   0.476798 0.250401 0.000013 0.059289
C57   C     C_R   0.086313 0.749483 0.079313 0.121442
C58   C     C_R   0.913686 0.749483 0.920687 0.121442
C59   C     C_R   0.586317 0.249706 0.079343 0.121681
C60   C     C_R   0.413683 0.249705 0.920657 0.121681
C61   C     C_R   0.943728 0.750604 0.842161 -0.206308
C62   C     C_R   0.056272 0.750604 0.157839 -0.206308
C63   C     C_R   0.443758 0.250890 0.842172 -0.197387
C64   C     C_R   0.556242 0.250891 0.157827 -0.197387
C65   C     C_R   0.897498 0.749637 0.842217 -0.207892
C66   C     C_R   0.102502 0.749637 0.157782 -0.207892
C67   C     C_R   0.397514 0.249887 0.842199 -0.214128
C68   C     C_R   0.602486 0.249888 0.157801 -0.214128
C69   C     C_2   0.910321 0.592140 0.253294 -0.177897
C70   C     C_2   0.089679 0.592140 0.746706 -0.177896
C71   C     C_2   0.440999 0.123032 0.313749 -0.170576
C72   C     C_2   0.559001 0.123032 0.686251 -0.170576
C73   C     C_2   0.900890 0.586836 0.304787 -0.392761
C74   C     C_2   0.099110 0.586836 0.695213 -0.392760
C75   C     C_2   0.411300 0.097378 0.325271 -0.386201
C76   C     C_2   0.588700 0.097378 0.674729 -0.386201
C77   C     C_2   0.871288 0.622224 0.179829 0.313592
C78   C     C_2   0.128712 0.622224 0.820171 0.313592
C79   C     C_2   0.408656 0.159738 0.253345 0.319466
C80   C     C_2   0.591344 0.159738 0.746654 0.319467
C81   C     C_2   0.849213 0.658209 0.186267 -0.410954
C82   C     C_2   0.150787 0.658209 0.813732 -0.410953
C83   C     C_2   0.347593 0.156115 0.182004 -0.404900
C84   C     C_2   0.652407 0.156115 0.817996 -0.404901
C85   C     C_R   0.060850 0.558190 0.621351 0.959054
C86   C     C_R   0.939150 0.558190 0.378649 0.959054
C87   C     C_R   0.558450 0.060634 0.616592 0.956365
C88   C     C_R   0.441550 0.060634 0.383408 0.956364
C89   C     C_R   0.811548 0.690416 0.118952 0.973743
C90   C     C_R   0.188452 0.690416 0.881048 0.973742
C91   C     C_R   0.311458 0.190246 0.118594 0.973071
C92   C     C_R   0.688542 0.190246 0.881406 0.973071
C93   C     C_R   0.558621 0.939438 0.616742 0.927379
C94   C     C_R   0.441379 0.939438 0.383258 0.927378
C95   C     C_R   0.058623 0.439440 0.616746 0.925325
C96   C     C_R   0.941377 0.439440 0.383254 0.925324
C97   C     C_R   0.836918 0.750038 0.000077 0.905817
C98   C     C_R   0.163081 0.750038 0.999923 0.905816
C99   C     C_R   0.336903 0.250067 0.000045 0.904500
C100  C     C_R   0.663097 0.250067 0.999955 0.904499
C101  C     C_R   0.406264 0.789646 0.997696 -0.255242
C102  C     C_R   0.593736 0.789646 0.002303 -0.255241
C103  C     C_R   0.906264 0.289649 0.997696 -0.248766
C104  C     C_R   0.093736 0.289649 0.002304 -0.248766
C105  C     C_R   0.384903 0.749892 0.000464 -0.059466
C106  C     C_R   0.615097 0.749892 0.999536 -0.059467
C107  C     C_R   0.884903 0.249895 0.000465 -0.058267
C108  C     C_R   0.115097 0.249895 0.999535 -0.058267
C109  C     C_R   0.409027 0.710128 0.003221 -0.254402
C110  C     C_R   0.590973 0.710128 0.996779 -0.254402
C111  C     C_R   0.909028 0.210131 0.003221 -0.254415
C112  C     C_R   0.090972 0.210131 0.996779 -0.254415
C113  C     C_R   0.454388 0.709785 0.001614 0.119322
C114  C     C_R   0.545612 0.709785 0.998386 0.119322
C115  C     C_R   0.954388 0.209788 0.001614 0.122061
C116  C     C_R   0.045612 0.209788 0.998386 0.122062
C117  C     C_R   0.476863 0.749880 0.000146 0.058026
C118  C     C_R   0.523137 0.749880 0.999854 0.058026
C119  C     C_R   0.976863 0.249884 0.000146 0.058651
C120  C     C_R   0.023137 0.249884 0.999854 0.058651
H1    H     H_    0.387230 0.820176 0.996268 0.150160
H2    H     H_    0.612770 0.820176 0.003732 0.150159
H3    H     H_    0.887229 0.320179 0.996267 0.153092
H4    H     H_    0.112771 0.320179 0.003733 0.153092
H5    H     H_    0.040867 0.752176 0.860753 0.151559
H6    H     H_    0.959133 0.752176 0.139247 0.151559
H7    H     H_    0.540897 0.252495 0.860828 0.188379
H8    H     H_    0.459103 0.252495 0.139172 0.188379
H9    H     H_    0.930486 0.750965 0.780949 0.150837
H10   H     H_    0.069514 0.750965 0.219051 0.150837
H11   H     H_    0.430538 0.251257 0.780974 0.167355
H12   H     H_    0.569461 0.251258 0.219026 0.167355
H13   H     H_    0.849167 0.749250 0.781044 0.150456
H14   H     H_    0.150833 0.749250 0.218956 0.150456
H15   H     H_    0.349187 0.249483 0.781015 0.152280
H16   H     H_    0.650813 0.249484 0.218985 0.152280
H17   H     H_    0.945882 0.573571 0.263778 0.196864
H18   H     H_    0.054118 0.573571 0.736222 0.196864
H19   H     H_    0.489836 0.117916 0.350679 0.195289
H20   H     H_    0.510164 0.117916 0.649321 0.195289
H21   H     H_    0.861440 0.601853 0.289475 0.161201
H22   H     H_    0.138560 0.601853 0.710524 0.161201
H23   H     H_    0.364473 0.104987 0.295170 0.161314
H24   H     H_    0.635527 0.104987 0.704830 0.161314
H25   H     H_    0.864149 0.666757 0.247230 0.135934
H26   H     H_    0.135851 0.666757 0.752770 0.135934
H27   H     H_    0.323676 0.125193 0.165380 0.131959
H28   H     H_    0.676324 0.125193 0.834620 0.131960
H29   H     H_    0.391431 0.679607 0.004676 0.152063
H30   H     H_    0.608569 0.679607 0.995324 0.152063
H31   H     H_    0.891432 0.179609 0.004675 0.148245
H32   H     H_    0.108568 0.179609 0.995325 0.148245
H33   H     H_    0.460312 0.639242 0.001977 0.152274
H34   H     H_    0.539688 0.639242 0.998023 0.152274
H35   H     H_    0.960312 0.139246 0.001977 0.148501
H36   H     H_    0.039688 0.139246 0.998023 0.148501
H37   H     H_    0.541446 0.860523 0.001515 0.150461
H38   H     H_    0.458554 0.860523 0.998485 0.150461
H39   H     H_    0.041446 0.360526 0.001515 0.156623
H40   H     H_    0.958554 0.360526 0.998485 0.156623
H41   H     H_    0.509740 0.874791 0.637072 0.167861
H42   H     H_    0.490260 0.874791 0.362929 0.167860
H43   H     H_    0.009746 0.374802 0.637087 0.169057
H44   H     H_    0.990254 0.374802 0.362913 0.169057
H45   H     H_    0.639094 0.899333 0.712798 0.157491
H46   H     H_    0.360905 0.899333 0.287202 0.157491
H47   H     H_    0.139104 0.399348 0.712826 0.158714
H48   H     H_    0.860896 0.399348 0.287174 0.158714
H49   H     H_    0.571698 0.806136 0.726180 0.168423
H50   H     H_    0.428302 0.806136 0.273820 0.168422
H51   H     H_    0.071696 0.306147 0.726190 0.168346
H52   H     H_    0.928304 0.306147 0.273810 0.168346
H53   H     H_    0.673036 0.876600 0.838257 0.158414
H54   H     H_    0.326964 0.876600 0.161743 0.158414
H55   H     H_    0.173047 0.376602 0.838271 0.163022
H56   H     H_    0.826953 0.376602 0.161729 0.163022
H57   H     H_    0.180814 0.748062 0.139012 0.149495
H58   H     H_    0.819185 0.748062 0.860988 0.149495
H59   H     H_    0.680825 0.248140 0.139066 0.150879
H60   H     H_    0.319175 0.248139 0.860934 0.150879
O1    O     O_R   0.679230 0.769690 0.858450 -0.620060
O2    O     O_R   0.320770 0.769690 0.141550 -0.620060
O3    O     O_R   0.179230 0.269690 0.858450 -0.620502
O4    O     O_R   0.820770 0.269690 0.141550 -0.620502
O5    O     O_R   0.082500 0.545230 0.590410 -0.621197
O6    O     O_R   0.917500 0.545230 0.409590 -0.621197
O7    O     O_R   0.582500 0.045230 0.590410 -0.622559
O8    O     O_R   0.417500 0.045230 0.409590 -0.622559
O9    O     O_R   0.507930 0.954750 0.590450 -0.615445
O10   O     O_R   0.492070 0.954750 0.409550 -0.615444
O11   O     O_R   0.007930 0.454750 0.590450 -0.616225
O12   O     O_R   0.992070 0.454750 0.409550 -0.616225
O13   O     O_R   0.582530 0.954770 0.590430 -0.626988
O14   O     O_R   0.417470 0.954770 0.409570 -0.626988
O15   O     O_R   0.082530 0.454770 0.590430 -0.626461
O16   O     O_R   0.917470 0.454770 0.409570 -0.626461
O17   O     O_R   0.730270 0.820760 0.960570 -0.626455
O18   O     O_R   0.269730 0.820760 0.039430 -0.626455
O19   O     O_R   0.230270 0.320760 0.960570 -0.622998
O20   O     O_R   0.769730 0.320760 0.039430 -0.622998
O21   O     O_R   0.658400 0.724440 0.948940 -0.626626
O22   O     O_R   0.341600 0.724440 0.051060 -0.626627
O23   O     O_R   0.158400 0.224440 0.948940 -0.629185
O24   O     O_R   0.841600 0.224440 0.051060 -0.629185
O25   O     O_R   0.709450 0.775510 0.051050 -0.624748
O26   O     O_R   0.290550 0.775510 0.948950 -0.624748
O27   O     O_R   0.209450 0.275510 0.051050 -0.620065
O28   O     O_R   0.790550 0.275510 0.948950 -0.620065
O29   O     O_R   0.769710 0.679220 0.039380 -0.572556
O30   O     O_R   0.230290 0.679220 0.960620 -0.572556
O31   O     O_R   0.269710 0.179220 0.039380 -0.632955
O32   O     O_R   0.730290 0.179220 0.960620 -0.632955
O33   O     O_R   0.820750 0.730290 0.141500 -0.631393
O34   O     O_R   0.179250 0.730290 0.858500 -0.631393
O35   O     O_R   0.320750 0.230290 0.141500 -0.568097
O36   O     O_R   0.679250 0.230290 0.858500 -0.568096
O37   O     O_R   0.790530 0.724470 0.948890 -0.600825
O38   O     O_R   0.209470 0.724470 0.051110 -0.600824
O39   O     O_R   0.290530 0.224470 0.948890 -0.625786
O40   O     O_R   0.709470 0.224470 0.051110 -0.625786
O41   O     O_R   0.841580 0.775540 0.051010 -0.632199
O42   O     O_R   0.158420 0.775540 0.948990 -0.632198
O43   O     O_R   0.341580 0.275540 0.051010 -0.607338
O44   O     O_R   0.658420 0.275540 0.948990 -0.607338
O45   O     O_R   0.007900 0.545210 0.590430 -0.615716
O46   O     O_R   0.992100 0.545210 0.409570 -0.615715
O47   O     O_R   0.507900 0.045210 0.590430 -0.616839
O48   O     O_R   0.492100 0.045210 0.409570 -0.616838
Zn1   Zn    Zn3+2 0.715910 0.715890 0.931790 1.005517
Zn2   Zn    Zn3+2 0.284090 0.715890 0.068210 1.005518
Zn3   Zn    Zn3+2 0.215910 0.215890 0.931790 0.958290
Zn4   Zn    Zn3+2 0.784090 0.215890 0.068210 0.958290
Zn5   Zn    Zn3+2 0.784070 0.784090 0.068160 0.958273
Zn6   Zn    Zn3+2 0.215930 0.784090 0.931840 0.958273
Zn7   Zn    Zn3+2 0.284070 0.284090 0.068160 1.017488
Zn8   Zn    Zn3+2 0.715930 0.284090 0.931840 1.017488
Zn9   Zn    Zn3+2 0.450180 0.999980 0.499990 0.962386
Zn10  Zn    Zn3+2 0.549820 0.999980 0.500010 0.962386
Zn11  Zn    Zn3+2 0.950180 0.499980 0.499990 0.968134
Zn12  Zn    Zn3+2 0.049820 0.499980 0.500010 0.968134
Br1   Br    Br    0.860753 0.610676 0.082802 -0.484719
Br2   Br    Br    0.139246 0.610676 0.917198 -0.484719
Br3   Br    Br    0.458017 0.209019 0.276062 -0.515944
Br4   Br    Br    0.541983 0.209019 0.723938 -0.515944

loop_
_geom_bond_atom_site_label_1
_geom_bond_atom_site_label_2
_ccdc_geom_bond_type
C79   C83   D    
C55   C56   A    
C29   H53   S    
C75   H23   S    
C55   C59   A    
C16   H40   S    
C62   H10   S    
C35   C39   A    
C47   C108  S    
C36   H60   S    
C104  C108  A    
C57   C66   A    
C72   C76   D    
C101  H1    S    
O9    Zn9   S    
C10   H34   S    
C40   C99   S    
C71   C79   S    
O27   Zn7   S    
C31   H55   S    
C53   C54   A    
C15   H39   S    
C32   H56   S    
C50   C54   A    
O31   Zn3   S    
C14   H38   S    
C77   Br1   S    
C64   C68   A    
C97   O37   A    
C95   O15   A    
C24   H48   S    
C41   H5    S    
C2    O18   A    
C38   C42   A    
O19   Zn7   S    
C24   C96   S    
C54   C58   A    
O32   Zn4   S    
C49   C53   A    
O12   Zn12  S    
C48   C107  S    
C70   C78   S    
C100  O44   A    
C15   C16   A    
C20   H44   S    
C46   C105  S    
C92   O36   A    
C21   H45   S    
C35   C59   A    
C2    O2    A    
C96   O16   A    
C41   C49   A    
C97   O41   A    
O38   Zn2   S    
C91   O35   A    
O8    Zn9   S    
O37   Zn1   S    
C66   H14   S    
C69   C77   S    
O2    Zn2   S    
C44   H8    S    
C64   H12   S    
C60   C67   A    
O1    Zn1   S    
O10   Zn10  S    
C70   C74   D    
O11   Zn11  S    
C3    O19   A    
C112  H32   S    
C69   C73   D    
C22   H46   S    
C79   Br3   S    
C19   C27   S    
C9    C10   A    
C110  C114  A    
C4    O20   A    
C10   C114  A    
C11   H35   S    
O22   Zn2   S    
C81   C89   S    
C44   C52   A    
O21   Zn1   S    
C74   H22   S    
C46   O22   A    
C103  H3    S    
O14   Zn9   S    
C94   O14   A    
C13   C14   A    
C25   C29   D    
C22   C94   S    
O34   Zn6   S    
C12   H36   S    
C38   C97   S    
O33   Zn5   S    
C35   H59   S    
C28   C32   D    
C13   H37   S    
C37   C98   S    
C82   H26   S    
C28   H52   S    
C99   O43   A    
C84   H28   S    
C69   H17   S    
O13   Zn10  S    
C5    C101  A    
C101  C105  A    
O46   Zn12  S    
O40   Zn4   S    
C27   C31   D    
C80   C84   D    
C20   C24   D    
O15   Zn12  S    
C36   C40   A    
C62   C66   A    
C51   C63   A    
O4    Zn4   S    
C53   C57   A    
C73   H21   S    
C93   O9    A    
C52   C64   A    
C43   H7    S    
C90   O30   A    
C1    O1    A    
C71   H19   S    
C20   C28   S    
C36   C60   A    
C19   H43   S    
C33   H57   S    
C33   C37   A    
C108  C112  A    
C115  C119  A    
C5    C117  A    
C80   Br4   S    
O20   Zn8   S    
C34   C38   A    
O24   Zn4   S    
C19   C23   D    
C94   O10   A    
C63   C67   A    
O48   Zn10  S    
C67   H15   S    
C7    C119  A    
C59   C68   A    
C111  C115  A    
C78   C82   D    
C58   C65   A    
C61   C65   A    
C88   O8    A    
C109  H29   S    
C119  C120  A    
C18   C26   S    
C48   O28   A    
C1    C29   S    
O30   Zn2   S    
O35   Zn7   S    
O29   Zn1   S    
C4    O4    A    
C68   H16   S    
C3    C31   S    
C109  C113  A    
C8    C104  A    
C76   C87   S    
C100  O40   A    
C5    C14   A    
C4    C32   S    
C17   H41   S    
C63   H11   S    
C42   C50   A    
C61   H9    S    
C23   H47   S    
C76   H24   S    
C26   H50   S    
C91   O31   A    
C7    C16   A    
C99   O39   A    
C70   H18   S    
C8    C15   A    
C81   H25   S    
C98   O38   A    
O18   Zn6   S    
O45   Zn11  S    
C83   H27   S    
C34   H58   S    
C86   O46   A    
C85   O45   A    
C2    C30   S    
C72   H20   S    
C27   H51   S    
C90   O34   A    
O7    Zn10  S    
C11   C115  A    
C45   C106  S    
C8    C120  A    
C89   O33   A    
C106  C110  A    
C113  C117  A    
C25   H49   S    
C46   O26   A    
O28   Zn8   S    
O42   Zn6   S    
C45   O25   A    
C95   O11   A    
C47   O23   A    
C85   O5    A    
O41   Zn5   S    
C18   C22   D    
C107  C111  A    
C1    O17   A    
O43   Zn7   S    
O39   Zn3   S    
C110  H30   S    
C111  H31   S    
C87   O7    A    
C11   C12   A    
C112  C116  A    
C86   O6    A    
C104  H4    S    
C33   C57   A    
C83   C91   S    
C48   O24   A    
C87   O47   A    
C21   C93   S    
C82   C90   S    
C47   O27   A    
O26   Zn6   S    
C17   C25   S    
C96   O12   A    
O25   Zn5   S    
O44   Zn8   S    
C9    C113  A    
C72   C80   S    
C117  C118  A    
C6    C13   A    
C71   C75   D    
C18   H42   S    
C49   C61   A    
O17   Zn5   S    
C39   C100  S    
C88   O48   A    
C105  C109  A    
C43   C51   A    
C50   C62   A    
C98   O42   A    
C7    C103  A    
C114  C118  A    
O36   Zn8   S    
C23   C95   S    
O23   Zn3   S    
C102  C106  A    
O16   Zn11  S    
C51   C55   A    
C6    C102  A    
C74   C85   S    
C37   C41   A    
C17   C21   D    
C73   C86   S    
C92   O32   A    
C42   H6    S    
C9    H33   S    
O6    Zn11  S    
O5    Zn12  S    
C116  C120  A    
C75   C88   S    
C40   C44   A    
C56   C60   A    
C39   C43   A    
C45   O21   A    
C77   C81   D    
C93   O13   A    
C34   C58   A    
C89   O29   A    
C30   H54   S    
C103  C107  A    
C84   C92   S    
C102  H2    S    
O3    Zn3   S    
C3    O3    A    
C78   Br2   S    
C65   H13   S    
C52   C56   A    
C6    C118  A    
C12   C116  A    
C26   C30   D    
O47   Zn9   S    
