data_mof_unit_46388.cif
_audit_creation_date              2012-12-10T20:49:46-0500
_audit_creation_method            fapswitch 2.2
_symmetry_space_group_name_H-M    P1
_symmetry_Int_Tables_number       1
_space_group_crystal_system       triclinic
_cell_length_a                    8.106358
_cell_length_b                    8.934479
_cell_length_c                    16.828896
_cell_angle_alpha                 90.016458
_cell_angle_beta                  85.976601
_cell_angle_gamma                 89.991198
_cell_volume                      1215.84710517

loop_
_atom_site_label
_atom_site_type_symbol
_atom_type_description
_atom_site_fract_x
_atom_site_fract_y
_atom_site_fract_z
_atom_type_partial_charge
C1    C     C_R   0.499993 0.782021 0.500002 0.940135
C2    C     C_R   0.500003 0.217979 0.500030 0.944773
C3    C     C_1   0.499987 0.934813 0.500027 -0.169597
C4    C     C_1   0.500007 0.065183 0.500033 -0.170015
C5    C     C_R   0.478627 0.507358 0.653289 0.900841
C6    C     C_R   0.521414 0.495778 0.346550 0.900868
C7    C     C_R   0.469085 0.545936 0.737319 -0.094315
C8    C     C_R   0.531203 0.480069 0.260503 -0.128842
C9    C     C_R   0.608706 0.607627 0.769793 -0.273933
C10   C     C_R   0.388501 0.440623 0.222841 -0.249620
C11   C     C_R   0.603768 0.646628 0.849745 0.437800
C12   C     C_R   0.392121 0.431495 0.140432 0.485074
C13   C     C_R   0.457453 0.620011 0.897652 0.003028
C14   C     C_R   0.540783 0.465529 0.095759 -0.020493
C15   C     C_R   0.314705 0.568946 0.864202 -0.097494
C16   C     C_R   0.685435 0.495661 0.133278 -0.142047
C17   C     C_R   0.320092 0.532405 0.783952 -0.204824
C18   C     C_R   0.681120 0.502568 0.215679 -0.171588
C19   C     C_2   0.462594 0.606390 0.983017 -0.063035
C20   C     C_2   0.543633 0.489754 0.010853 -0.075271
H1    H     H_    0.203001 0.546793 0.901416 0.244839
H2    H     H_    0.799225 0.521730 0.098566 0.244312
H3    H     H_    0.616208 0.414951 0.971201 0.193041
H4    H     H_    0.388818 0.680739 0.022333 0.198894
N1    N     N_1   0.926360 0.500000 0.499990 -0.027349
N2    N     N_1   0.073640 0.500000 0.500010 -0.027306
O1    O     O_R   0.363150 0.714660 0.500000 -0.612106
O2    O     O_R   0.636850 0.285340 0.500000 -0.609653
O3    O     O_R   0.636850 0.714660 0.500000 -0.614533
O4    O     O_R   0.363150 0.285340 0.500000 -0.611848
O5    O     O_R   0.346950 0.500000 0.615800 -0.621571
O6    O     O_R   0.653050 0.500000 0.384200 -0.617963
O7    O     O_R   0.620700 0.500000 0.615800 -0.622293
O8    O     O_R   0.379300 0.500000 0.384200 -0.620770
Zn1   Zn    Zn3+2 0.317220 0.500000 0.500010 1.007329
Zn2   Zn    Zn3+2 0.682780 0.500000 0.499990 1.007735
S1    S     S_3+6 0.208691 0.381380 0.095599 0.009783
O9    O     O_2   0.122315 0.521418 0.071730 -0.322399
O10   O     O_2   0.249684 0.286768 0.023001 -0.267335
O11   O     O_3   0.082496 0.285010 0.160642 -0.558786
H5    H     H_    0.981820 0.265607 0.132131 0.392955
S2    S     S_3+6 0.783703 0.720905 0.888947 0.035934
O12   O     O_2   0.736266 0.835399 0.951896 -0.224457
O13   O     O_2   0.877506 0.596883 0.925866 -0.326717
O14   O     O_3   0.905866 0.802470 0.816413 -0.519125
H6    H     H_    0.978203 0.721431 0.793791 0.350524
H7    H     H_    0.722233 0.624271 0.733009 0.184178
H8    H     H_    0.273478 0.418737 0.257584 0.211437
H9    H     H_    0.792967 0.530816 0.243996 0.195340
H10   H     H_    0.210213 0.488403 0.759203 0.176464

loop_
_geom_bond_atom_site_label_1
_geom_bond_atom_site_label_2
_ccdc_geom_bond_type
C17   H10   S    
C1    C3    S    
C7    C17   A    
C6    O6    A    
C15   C17   A    
S1    O9    D    
C14   C16   A    
C14   C20   S    
C11   C13   A    
C2    C4    S    
C19   C20   D    
C20   H3    S    
C2    O4    A    
C1    O1    A    
C1    O3    A    
C19   H4    S    
S1    O10   D    
O14   H6    S    
C9    C11   A    
O3    Zn2   S    
S2    O13   D    
O4    Zn1   S    
O6    Zn2   S    
C8    C10   A    
O11   H5    S    
C12   C14   A    
C9    H7    S    
S1    O11   S    
C10   C12   A    
C13   C15   A    
C10   H8    S    
O5    Zn1   S    
C2    O2    A    
S2    O12   D    
C13   C19   S    
N1    Zn2   S    
C3    C4    T    
C7    C9    A    
N2    Zn1   S    
C15   H1    S    
O7    Zn2   S    
O2    Zn2   S    
C11   S2    S    
C16   C18   A    
O8    Zn1   S    
C12   S1    S    
C5    C7    S    
C6    C8    S    
O1    Zn1   S    
N1    N2    T    
C8    C18   A    
C6    O8    A    
C18   H9    S    
C16   H2    S    
C5    O5    A    
S2    O14   S    
C5    O7    A    
