data_mof_unit_40970.cif
_audit_creation_date              2012-12-10T18:28:24-0500
_audit_creation_method            fapswitch 2.2
_symmetry_space_group_name_H-M    P1
_symmetry_Int_Tables_number       1
_space_group_crystal_system       triclinic
_cell_length_a                    23.299166
_cell_length_b                    20.241991
_cell_length_c                    14.995263
_cell_angle_alpha                 89.999482
_cell_angle_beta                  98.838213
_cell_angle_gamma                 90.001241
_cell_volume                      6988.11548632

loop_
_atom_site_label
_atom_site_type_symbol
_atom_type_description
_atom_site_fract_x
_atom_site_fract_y
_atom_site_fract_z
_atom_type_partial_charge
C1    C     C_R   0.576429 0.086184 0.554238 0.872543
C2    C     C_R   0.423529 0.913866 0.445737 0.868121
C3    C     C_R   0.423498 0.086100 0.445718 0.870037
C4    C     C_R   0.574335 0.911243 0.552689 0.868551
C5    C     C_R   0.074295 0.588828 0.552641 0.870489
C6    C     C_R   0.925707 0.411189 0.447350 0.866812
C7    C     C_R   0.923606 0.586220 0.445780 0.871533
C8    C     C_R   0.074254 0.411121 0.552605 0.868108
C9    C     C_R   0.205744 0.177821 0.636806 0.426413
C10   C     C_R   0.722486 0.733663 0.310633 0.422533
C11   C     C_R   0.793200 0.178845 0.362065 0.426034
C12   C     C_R   0.206317 0.821664 0.637423 0.426438
C13   C     C_R   0.707409 0.679408 0.638565 0.425543
C14   C     C_R   0.222588 0.233922 0.310103 0.422715
C15   C     C_R   0.222496 0.766271 0.310256 0.422789
C16   C     C_R   0.777477 0.233779 0.689552 0.422640
C17   C     C_R   0.628367 0.001830 0.202226 -0.310016
C18   C     C_R   0.371568 0.999621 0.797702 -0.310491
C19   C     C_R   0.128365 0.499566 0.202206 -0.310763
C20   C     C_R   0.871599 0.501869 0.797726 -0.310179
C21   C     C_R   0.607210 0.001053 0.283513 0.010228
C22   C     C_R   0.392769 0.999657 0.716434 0.011825
C23   C     C_R   0.107207 0.499618 0.283497 0.008435
C24   C     C_R   0.892784 0.501081 0.716454 0.010252
C25   C     C_R   0.509755 0.999664 0.208520 -0.063133
C26   C     C_R   0.490211 0.000411 0.791501 -0.061093
C27   C     C_R   0.009755 0.500432 0.208520 -0.065148
C28   C     C_R   0.990214 0.499646 0.791499 -0.063576
C29   C     C_R   0.528210 0.000554 0.123681 0.000755
C30   C     C_R   0.471714 0.000568 0.876316 0.000071
C31   C     C_R   0.028217 0.500567 0.123677 0.001212
C32   C     C_R   0.971732 0.500551 0.876319 0.000416
C33   C     C_R   0.588990 0.001592 0.121903 0.178881
C34   C     C_R   0.410925 0.000015 0.878062 0.183141
C35   C     C_R   0.088996 0.499979 0.121894 0.175237
C36   C     C_R   0.910953 0.501616 0.878073 0.179437
C37   C     C_R   0.488782 0.000502 0.041630 0.080184
C38   C     C_R   0.511124 0.001100 0.958372 0.079919
C39   C     C_R   0.988800 0.501105 0.041628 0.080402
C40   C     C_R   0.011143 0.500490 0.958371 0.080204
C41   C     C_R   0.572016 0.002307 0.959848 -0.234239
C42   C     C_R   0.427880 0.999972 0.040146 -0.236263
C43   C     C_R   0.072039 0.499936 0.959846 -0.232680
C44   C     C_R   0.927910 0.502330 0.040146 -0.234604
C45   C     C_R   0.610034 0.002527 0.040252 -0.193855
C46   C     C_R   0.389865 0.999810 0.959719 -0.192808
C47   C     C_R   0.110051 0.499760 0.040247 -0.195467
C48   C     C_R   0.889898 0.502562 0.959723 -0.193796
C49   C     C_R   0.610036 0.852938 0.578660 -0.059948
C50   C     C_R   0.373311 0.126441 0.409093 -0.058458
C51   C     C_R   0.373391 0.873467 0.409148 -0.056735
C52   C     C_R   0.626460 0.126764 0.590758 -0.059840
C53   C     C_R   0.109617 0.352444 0.578202 -0.060538
C54   C     C_R   0.873639 0.626878 0.409303 -0.058459
C55   C     C_R   0.890170 0.352723 0.421536 -0.058824
C56   C     C_R   0.109809 0.647361 0.578385 -0.062330
C57   C     C_R   0.643149 0.764587 0.682604 -0.133910
C58   C     C_R   0.312565 0.180381 0.284895 -0.135579
C59   C     C_R   0.312454 0.819805 0.284910 -0.135582
C60   C     C_R   0.687523 0.180275 0.714999 -0.135908
C61   C     C_R   0.141765 0.263195 0.681216 -0.132406
C62   C     C_R   0.812401 0.680139 0.285037 -0.135774
C63   C     C_R   0.857446 0.264024 0.317949 -0.132904
C64   C     C_R   0.142341 0.736266 0.681762 -0.132436
C65   C     C_R   0.611610 0.822669 0.662999 -0.226958
C66   C     C_R   0.362961 0.145676 0.318315 -0.230284
C67   C     C_R   0.362893 0.854452 0.318288 -0.230856
C68   C     C_R   0.637082 0.145606 0.681685 -0.231464
C69   C     C_R   0.110652 0.321628 0.662068 -0.228680
C70   C     C_R   0.862872 0.645506 0.318299 -0.231241
C71   C     C_R   0.888832 0.322230 0.337393 -0.227475
C72   C     C_R   0.111089 0.677946 0.662456 -0.227524
C73   C     C_R   0.639007 0.824107 0.514033 -0.225895
C74   C     C_R   0.332434 0.140590 0.465021 -0.228784
C75   C     C_R   0.332666 0.859097 0.465224 -0.228505
C76   C     C_R   0.667001 0.141439 0.534513 -0.228955
C77   C     C_R   0.138685 0.323756 0.513537 -0.224996
C78   C     C_R   0.833263 0.641795 0.465700 -0.228117
C79   C     C_R   0.861159 0.323951 0.486173 -0.225124
C80   C     C_R   0.138813 0.676133 0.513714 -0.225801
C81   C     C_R   0.668592 0.764379 0.530446 0.040263
C82   C     C_R   0.280439 0.172582 0.432199 0.040505
C83   C     C_R   0.280606 0.827251 0.432443 0.040305
C84   C     C_R   0.719117 0.173162 0.567256 0.040256
C85   C     C_R   0.167880 0.263715 0.529487 0.040811
C86   C     C_R   0.781091 0.673390 0.433008 0.039832
C87   C     C_R   0.831710 0.264116 0.469922 0.040714
C88   C     C_R   0.168138 0.736074 0.529830 0.040700
C89   C     C_R   0.672795 0.735580 0.617541 0.114091
C90   C     C_R   0.271504 0.195408 0.341617 0.116226
C91   C     C_R   0.271493 0.804660 0.341755 0.116314
C92   C     C_R   0.728391 0.195539 0.658044 0.116135
C93   C     C_R   0.171540 0.234369 0.616163 0.113890
C94   C     C_R   0.771642 0.695535 0.342119 0.116068
C95   C     C_R   0.827711 0.235114 0.382983 0.114169
C96   C     C_R   0.172012 0.765208 0.616670 0.113656
C97   C     C_R   0.697857 0.735863 0.464114 0.023893
C98   C     C_R   0.239585 0.186907 0.490052 0.025374
C99   C     C_R   0.239850 0.812860 0.490416 0.025532
C100  C     C_R   0.759817 0.187551 0.509203 0.025072
C101  C     C_R   0.197290 0.235364 0.463176 0.023621
C102  C     C_R   0.740495 0.687850 0.491185 0.025224
C103  C     C_R   0.802364 0.235685 0.536228 0.023904
C104  C     C_R   0.197459 0.764525 0.463489 0.023600
C105  C     C_R   0.240412 0.155333 0.574433 -0.323518
C106  C     C_R   0.686654 0.754695 0.372184 -0.327235
C107  C     C_R   0.758622 0.156300 0.424517 -0.323692
C108  C     C_R   0.240869 0.844258 0.574958 -0.323623
C109  C     C_R   0.741877 0.656769 0.576026 -0.324391
C110  C     C_R   0.186563 0.254781 0.371467 -0.325692
C111  C     C_R   0.186557 0.745322 0.371699 -0.326045
C112  C     C_R   0.813398 0.254722 0.628082 -0.325713
H1    H     H_    0.592253 0.003293 0.900065 0.140596
H2    H     H_    0.407639 0.999786 0.099944 0.140852
H3    H     H_    0.092287 0.499740 0.900065 0.140274
H4    H     H_    0.907682 0.503319 0.099940 0.140404
H5    H     H_    0.342714 0.128266 0.535622 0.164179
H6    H     H_    0.639763 0.850190 0.451539 0.163803
H7    H     H_    0.656409 0.129622 0.463785 0.164357
H8    H     H_    0.343100 0.871168 0.535890 0.164179
H9    H     H_    0.844010 0.630229 0.536489 0.164800
H10   H     H_    0.139829 0.350183 0.451410 0.162994
H11   H     H_    0.139787 0.649853 0.451430 0.163440
H12   H     H_    0.860247 0.350168 0.548523 0.163327
H13   H     H_    0.393736 0.134122 0.273305 0.166176
H14   H     H_    0.588706 0.843857 0.713762 0.167955
H15   H     H_    0.606525 0.133707 0.726907 0.165766
H16   H     H_    0.393568 0.866160 0.273178 0.165175
H17   H     H_    0.893320 0.633439 0.272972 0.165494
H18   H     H_    0.087628 0.342639 0.712807 0.167058
H19   H     H_    0.088147 0.656840 0.713231 0.168241
H20   H     H_    0.911803 0.343340 0.286654 0.167479
H21   H     H_    0.644764 0.743028 0.749047 0.197349
H22   H     H_    0.306298 0.196064 0.215019 0.196177
H23   H     H_    0.306057 0.804299 0.214959 0.196092
H24   H     H_    0.694033 0.195626 0.785016 0.196230
H25   H     H_    0.142953 0.241213 0.747323 0.197784
H26   H     H_    0.805764 0.695317 0.214947 0.196401
H27   H     H_    0.856004 0.242299 0.251638 0.197615
H28   H     H_    0.143710 0.758074 0.748009 0.197964
H29   H     H_    0.266807 0.112041 0.592180 0.137012
H30   H     H_    0.649324 0.784503 0.346477 0.146704
H31   H     H_    0.732006 0.113206 0.406572 0.138087
H32   H     H_    0.267336 0.887488 0.592773 0.136830
H33   H     H_    0.768561 0.613736 0.594036 0.137866
H34   H     H_    0.149468 0.284960 0.345785 0.147263
H35   H     H_    0.149391 0.715252 0.346017 0.147266
H36   H     H_    0.850662 0.284634 0.653790 0.147182
H37   H     H_    0.656380 0.003464 0.038423 0.154969
H38   H     H_    0.343511 0.999428 0.961534 0.156530
H39   H     H_    0.156403 0.499355 0.038419 0.152557
H40   H     H_    0.843551 0.503516 0.961536 0.154460
H41   H     H_    0.535004 0.000455 0.782125 0.125794
H42   H     H_    0.464969 0.998812 0.217921 0.125808
H43   H     H_    0.034997 0.498772 0.782116 0.127263
H44   H     H_    0.964964 0.500511 0.217917 0.127132
H45   H     H_    0.363094 0.999364 0.653392 0.124023
H46   H     H_    0.636895 0.001444 0.346532 0.131258
H47   H     H_    0.863114 0.501487 0.653420 0.131140
H48   H     H_    0.136887 0.499304 0.346510 0.137818
H49   H     H_    0.674872 0.002742 0.202101 0.149547
H50   H     H_    0.325049 0.999255 0.797777 0.143787
H51   H     H_    0.174871 0.499170 0.202063 0.154838
H52   H     H_    0.825091 0.502803 0.797820 0.148983
N1    N     N_R   0.549130 0.000000 0.284090 -0.100233
N2    N     N_R   0.450870 0.000000 0.715910 -0.098473
N3    N     N_R   0.049130 0.500000 0.284090 -0.102053
N4    N     N_R   0.950870 0.500000 0.715910 -0.100471
O1    O     O_R   0.541320 0.066090 0.608930 -0.612794
O2    O     O_R   0.458680 0.933910 0.391070 -0.615664
O3    O     O_R   0.458680 0.066090 0.391070 -0.612978
O4    O     O_R   0.541320 0.933910 0.608930 -0.613851
O5    O     O_R   0.041320 0.566090 0.608930 -0.612215
O6    O     O_R   0.958680 0.433910 0.391070 -0.615110
O7    O     O_R   0.958680 0.566090 0.391070 -0.614190
O8    O     O_R   0.041320 0.433910 0.608930 -0.614835
O9    O     O_R   0.572880 0.066110 0.470280 -0.619284
O10   O     O_R   0.427120 0.933890 0.529720 -0.621118
O11   O     O_R   0.427120 0.066110 0.529720 -0.620201
O12   O     O_R   0.572880 0.933890 0.470280 -0.621684
O13   O     O_R   0.072880 0.566110 0.470280 -0.620164
O14   O     O_R   0.927120 0.433890 0.529720 -0.622166
O15   O     O_R   0.927120 0.566110 0.529720 -0.619795
O16   O     O_R   0.072880 0.433890 0.470280 -0.621077
Zn1   Zn    Zn3+2 0.478910 0.000000 0.592580 0.942791
Zn2   Zn    Zn3+2 0.521090 0.000000 0.407420 0.940999
Zn3   Zn    Zn3+2 0.978910 0.500000 0.592580 0.940715
Zn4   Zn    Zn3+2 0.021090 0.500000 0.407420 0.938990
O17   O     O_3   0.206763 0.147154 0.719445 -0.773954
H53   H     H_    0.233383 0.108675 0.723405 0.333763
O18   O     O_3   0.711687 0.752286 0.220891 -0.776346
H54   H     H_    0.675883 0.779475 0.210260 0.338876
O19   O     O_3   0.791797 0.148529 0.279112 -0.775782
H55   H     H_    0.764941 0.110257 0.274954 0.333574
O20   O     O_3   0.207538 0.852139 0.720232 -0.774038
H56   H     H_    0.234208 0.890576 0.724244 0.333585
O21   O     O_3   0.709007 0.649276 0.721680 -0.776798
H57   H     H_    0.735914 0.611050 0.725888 0.333333
O22   O     O_3   0.212260 0.253145 0.220576 -0.776352
H58   H     H_    0.176579 0.280540 0.209903 0.339012
O23   O     O_3   0.211997 0.747266 0.220651 -0.776243
H59   H     H_    0.176277 0.719936 0.209996 0.339142
O24   O     O_3   0.788110 0.252610 0.779221 -0.776069
H60   H     H_    0.823882 0.279853 0.789877 0.339131

loop_
_geom_bond_atom_site_label_1
_geom_bond_atom_site_label_2
_ccdc_geom_bond_type
C79   H12   S    
O24   H60   S    
C88   C96   A    
C63   C95   A    
N2    Zn1   S    
C33   C45   A    
C21   H46   S    
C5    C56   S    
C53   C77   A    
C81   C89   A    
C6    C55   S    
C53   C69   A    
C76   C84   A    
C79   C87   A    
C24   H47   S    
C58   H22   S    
C99   C108  A    
C30   C38   A    
C98   C105  A    
C57   C89   A    
C72   H19   S    
C6    O14   A    
C32   C36   A    
C24   N4    A    
C74   C82   A    
C111  H35   S    
C50   C74   A    
C105  H29   S    
C61   C93   A    
C10   C94   A    
C9    C105  A    
C20   H52   S    
C29   C33   A    
C21   N1    A    
C62   C70   A    
C42   C46   A    
C5    O13   A    
C37   C42   A    
C78   H9    S    
C3    O11   A    
C14   C90   A    
C13   C109  A    
C77   H10   S    
C86   C94   A    
C59   C67   A    
C71   H20   S    
C49   C65   A    
O10   Zn1   S    
C1    O9    A    
C42   H2    S    
C40   C43   A    
C26   N2    A    
C20   C24   A    
C69   H18   S    
C56   C72   A    
C87   C95   A    
C28   H43   S    
C26   H41   S    
C34   C46   A    
C16   O24   S    
C60   H24   S    
C45   H37   S    
C97   C102  A    
C52   C68   A    
C43   H3    S    
C8    O16   A    
C32   C40   A    
C99   C104  A    
O7    Zn4   S    
C35   C47   A    
O22   H58   S    
N4    Zn3   S    
C83   C99   A    
C82   C98   A    
C57   H21   S    
O17   H53   S    
C85   C93   A    
C4    O12   A    
C9    O17   S    
C58   C90   A    
C73   C81   A    
C88   C104  A    
O13   Zn4   S    
C58   C66   A    
C106  H30   S    
C60   C92   A    
C25   C29   A    
C76   H7    S    
C30   C34   A    
C27   C31   A    
O18   H54   S    
C84   C100  A    
C75   C83   A    
C15   C111  A    
C28   C32   A    
C61   H25   S    
C64   C96   A    
C38   C41   A    
C41   H1    S    
C39   C40   A    
C12   C108  A    
C28   N4    A    
C51   C67   A    
C6    O6    A    
C25   N1    A    
C101  C110  A    
C100  C103  A    
C17   C21   A    
O9    Zn2   S    
O16   Zn4   S    
C7    O7    A    
C103  C112  A    
C22   N2    A    
C15   O23   S    
C19   C23   A    
C62   C94   A    
C37   C38   A    
O15   Zn3   S    
C55   C79   A    
C13   O21   S    
C54   C70   A    
O4    Zn1   S    
C57   C65   A    
C23   H48   S    
O2    Zn2   S    
C8    O8    A    
C17   C33   A    
C19   H51   S    
C62   H26   S    
C84   C92   A    
C18   C34   A    
C68   H15   S    
C44   H4    S    
C17   H49   S    
C2    O2    A    
C23   N3    A    
C97   C106  A    
O6    Zn4   S    
C46   H38   S    
C63   C71   A    
C26   C30   A    
C3    O3    A    
C11   C107  A    
C12   O20   S    
C87   C103  A    
C59   C91   A    
C10   C106  A    
C107  H31   S    
C86   C102  A    
C9    C93   A    
C108  H32   S    
C85   C101  A    
C16   C112  A    
O8    Zn3   S    
C3    C50   S    
C64   H28   S    
C11   C95   A    
C27   H44   S    
C14   C110  A    
C74   H5    S    
O5    Zn3   S    
C100  C107  A    
C73   H6    S    
C4    O4    A    
O3    Zn2   S    
C13   C89   A    
C25   H42   S    
C18   C22   A    
C5    O5    A    
C59   H23   S    
C109  H33   S    
C75   H8    S    
C11   O19   S    
C51   C75   A    
C52   C76   A    
C82   C90   A    
C8    C53   S    
C104  C111  A    
C50   C66   A    
C16   C92   A    
C39   C44   A    
O11   Zn1   S    
C22   H45   S    
C63   H27   S    
C98   C101  A    
C83   C91   A    
C14   O22   S    
C10   O18   S    
C56   C80   A    
C66   H13   S    
C7    O15   A    
C4    C49   S    
O12   Zn2   S    
C61   C69   A    
C65   H14   S    
C48   H40   S    
O1    Zn1   S    
C80   C88   A    
C19   C35   A    
C67   H16   S    
C18   H50   S    
C78   C86   A    
C81   C97   A    
C77   C85   A    
N3    Zn4   S    
C31   C35   A    
C1    O1    A    
C31   C39   A    
C36   C48   A    
C49   C73   A    
O14   Zn3   S    
C64   C72   A    
O21   H57   S    
C1    C52   S    
C2    C51   S    
C47   H39   S    
C15   C91   A    
O20   H56   S    
C20   C36   A    
C112  H36   S    
O23   H59   S    
C60   C68   A    
O19   H55   S    
C70   H17   S    
C29   C37   A    
C41   C45   A    
C12   C96   A    
C102  C109  A    
C2    O10   A    
C7    C54   S    
C110  H34   S    
C43   C47   A    
C55   C71   A    
C44   C48   A    
N1    Zn2   S    
C27   N3    A    
C54   C78   A    
C80   H11   S    
