data_mof_unit_18351.cif
_audit_creation_date              2012-12-10T17:02:14-0500
_audit_creation_method            fapswitch 2.2
_symmetry_space_group_name_H-M    P1
_symmetry_Int_Tables_number       1
_space_group_crystal_system       triclinic
_cell_length_a                    10.727383
_cell_length_b                    10.732075
_cell_length_c                    9.997581
_cell_angle_alpha                 90.348813
_cell_angle_beta                  88.576257
_cell_angle_gamma                 91.706889
_cell_volume                      1150.10993672

loop_
_atom_site_label
_atom_site_type_symbol
_atom_type_description
_atom_site_fract_x
_atom_site_fract_y
_atom_site_fract_z
_atom_type_partial_charge
C1    C     C_R   0.494808 0.262626 0.499732 0.933167
C2    C     C_R   0.065116 0.593483 0.595512 0.076264
C3    C     C_R   0.127970 0.511947 0.506544 -0.165540
C4    C     C_R   0.065035 0.441265 0.411203 -0.310815
C5    C     C_R   0.937569 0.442307 0.407087 0.452920
C6    C     C_R   0.873015 0.523998 0.491981 -0.250674
C7    C     C_2   0.468159 0.931120 0.389867 -0.136121
C8    C     C_2   0.492145 0.868931 0.501198 -0.334580
C9    C     C_2   0.477372 0.065580 0.387313 -0.184312
C10   C     C_2   0.473904 0.131579 0.500726 -0.337961
C11   C     C_2   0.552521 0.588130 0.924482 -0.301405
C12   C     C_R   0.260265 0.504071 0.502171 0.888973
C13   C     C_2   0.568443 0.578898 0.075497 0.518811
C14   C     C_R   0.493690 0.737026 0.500344 0.899576
C15   C     C_R   0.740007 0.507401 0.498201 0.892331
C16   C     C_R   0.126383 0.663764 0.696793 -0.163856
C17   C     C_R   0.060779 0.743440 0.780535 -0.199572
C18   C     C_R   0.938473 0.768976 0.753587 -0.156526
C19   C     C_R   0.880360 0.713094 0.643428 0.201582
C20   C     C_R   0.936750 0.609454 0.577882 0.000013
H1    H     H_    0.114832 0.381279 0.341819 0.173785
H2    H     H_    0.451287 0.091152 0.597589 0.150805
H3    H     H_    0.588372 0.670891 0.873371 0.164873
H4    H     H_    0.476779 0.418486 0.898019 0.159225
H5    H     H_    0.433714 0.447879 0.101941 0.103613
H6    H     H_    0.224511 0.660401 0.714888 0.180332
H7    H     H_    0.107879 0.793054 0.860243 0.144624
H8    H     H_    0.893295 0.841813 0.810534 0.129661
H9    H     H_    0.448575 0.882942 0.296441 0.182490
H10   H     H_    0.517884 0.913210 0.594406 0.148204
H11   H     H_    0.490613 0.109971 0.290425 0.170468
N1    N     N_2   0.501340 0.501330 0.852150 -0.200605
N2    N     N_2   0.501380 0.501360 0.147810 -0.212654
O1    O     O_R   0.499980 0.319060 0.613040 -0.619715
O2    O     O_R   0.500020 0.319100 0.386900 -0.620229
O3    O     O_R   0.316750 0.499980 0.613090 -0.629213
O4    O     O_R   0.316790 0.500020 0.386950 -0.622159
O5    O     O_R   0.499980 0.680900 0.613100 -0.644358
O6    O     O_R   0.500020 0.680940 0.386960 -0.569169
O7    O     O_R   0.683210 0.499980 0.613050 -0.619082
O8    O     O_R   0.683250 0.500020 0.386910 -0.529270
Zn1   Zn    Zn3+2 0.499970 0.499970 0.650990 0.924762
Zn2   Zn    Zn3+2 0.500030 0.500030 0.349010 0.994840
O9    O     O_3   0.646103 0.662320 0.143781 -0.571373
C21   C     C_3   0.757181 0.691594 0.070415 0.095629
H12   H     H_    0.739994 0.764742 0.995462 0.120581
H13   H     H_    0.796218 0.607910 0.019765 0.155320
C22   C     C_3   0.854239 0.743621 0.165877 -0.789942
H14   H     H_    0.875323 0.672531 0.241587 0.270720
H15   H     H_    0.941437 0.769523 0.109204 0.199153
H16   H     H_    0.818808 0.827733 0.217831 0.248187
C23   C     C_3   0.775927 0.783939 0.584225 -0.397119
C24   C     C_3   0.819936 0.914583 0.539470 -0.919251
H17   H     H_    0.848751 0.973033 0.625943 0.256925
H18   H     H_    0.899369 0.908454 0.466486 0.268210
H19   H     H_    0.742593 0.961543 0.490641 0.263570
H20   H     H_    0.739964 0.737776 0.493635 0.216782
H21   H     H_    0.700510 0.792392 0.661222 0.207183
O10   O     O_3   0.876640 0.370849 0.311639 -0.587376
C25   C     C_3   0.862855 0.246801 0.356987 0.111397
H22   H     H_    0.805441 0.242158 0.451367 0.129416
H23   H     H_    0.955176 0.205485 0.373793 0.131087
C26   C     C_3   0.796649 0.169342 0.250787 -0.808771
H24   H     H_    0.853092 0.170429 0.156137 0.249512
H25   H     H_    0.783483 0.071489 0.284537 0.203298
H26   H     H_    0.704019 0.208229 0.231805 0.263358

loop_
_geom_bond_atom_site_label_1
_geom_bond_atom_site_label_2
_ccdc_geom_bond_type
O4    Zn2   S    
O6    Zn2   S    
H4    N1    S    
C13   N2    D    
C7    H9    S    
C14   O5    A    
C2    C16   A    
C9    C10   D    
C24   H18   S    
O3    Zn1   S    
C19   C20   A    
O1    Zn1   S    
C8    H10   S    
C26   H25   S    
H5    N2    S    
O7    Zn1   S    
C2    C3    A    
C6    C15   S    
C26   H26   S    
C18   H8    S    
O10   C25   S    
C24   H17   S    
C10   H2    S    
C25   H23   S    
C4    H1    S    
O8    Zn2   S    
C15   O8    A    
N1    Zn1   S    
C23   H21   S    
C25   C26   S    
C4    C5    A    
C22   H15   S    
C22   H14   S    
C1    O1    A    
O5    Zn1   S    
C21   H13   S    
C13   O9    S    
C16   H6    S    
C5    C6    A    
C15   O7    A    
C21   C22   S    
C11   C13   S    
C12   O3    A    
C23   H20   S    
C5    O10   S    
C2    C20   A    
C3    C4    A    
C17   H7    S    
O2    Zn2   S    
C7    C8    D    
C6    C20   A    
O9    C21   S    
C1    O2    A    
C17   C18   A    
C18   C19   A    
C24   H19   S    
C11   H3    S    
C12   O4    A    
C7    C9    S    
C9    H11   S    
C16   C17   A    
C8    C14   S    
C3    C12   S    
C14   O6    A    
C21   H12   S    
C19   C23   S    
C22   H16   S    
C1    C10   S    
C26   H24   S    
C23   C24   S    
C25   H22   S    
C11   N1    D    
N2    Zn2   S    
