data_mof_unit_62158.cif
_audit_creation_date              2012-12-10T17:24:55-0500
_audit_creation_method            fapswitch 2.2
_symmetry_space_group_name_H-M    P1
_symmetry_Int_Tables_number       1
_space_group_crystal_system       triclinic
_cell_length_a                    10.113952
_cell_length_b                    10.825933
_cell_length_c                    19.229075
_cell_angle_alpha                 90.02505
_cell_angle_beta                  81.801563
_cell_angle_gamma                 95.323391
_cell_volume                      2074.76801874

loop_
_atom_site_label
_atom_site_type_symbol
_atom_type_description
_atom_site_fract_x
_atom_site_fract_y
_atom_site_fract_z
_atom_type_partial_charge
C1    C     C_R   0.556202 0.732624 0.497202 0.953591
C2    C     C_R   0.499709 0.502747 0.365869 0.890664
C3    C     C_R   0.432299 0.581516 0.750098 -0.217669
C4    C     C_R   0.568574 0.419260 0.249784 -0.217131
C5    C     C_R   0.432336 0.583278 0.822058 -0.144285
C6    C     C_R   0.568733 0.417672 0.177810 -0.144221
C7    C     C_R   0.501347 0.497730 0.853939 0.041470
C8    C     C_R   0.499109 0.502785 0.145990 0.041937
C9    C     C_R   0.569799 0.410032 0.812973 -0.173457
C10   C     C_R   0.429839 0.589875 0.187033 -0.174403
C11   C     C_R   0.570239 0.407665 0.740751 0.148590
C12   C     C_R   0.443912 0.267395 0.506540 0.949739
C13   C     C_R   0.429184 0.592064 0.259275 0.147937
C14   C     C_R   0.501734 0.494883 0.709173 -0.076039
C15   C     C_R   0.498325 0.505274 0.290799 -0.080378
C16   C     C_R   0.499657 0.501461 0.070138 0.307942
C17   C     C_R   0.500936 0.499172 0.929779 0.308033
C18   C     C_2   0.588283 0.864546 0.501703 -0.355210
C19   C     C_2   0.412243 0.135539 0.516333 -0.352836
C20   C     C_2   0.488266 0.934043 0.522454 -0.134348
C21   C     C_2   0.512937 0.066119 0.520561 -0.118545
C22   C     C_2   0.927301 0.510109 0.505739 -0.094763
C23   C     C_2   0.072691 0.489876 0.494273 -0.093084
C24   C     C_R   0.500297 0.497285 0.634125 0.883658
H1    H     H_    0.379261 0.648909 0.726177 0.161481
H2    H     H_    0.691161 0.904875 0.487510 0.157240
H3    H     H_    0.108729 0.422141 0.456264 0.164682
H4    H     H_    0.891257 0.577835 0.543753 0.165000
H5    H     H_    0.120044 0.614818 0.564278 0.166158
H6    H     H_    0.879965 0.385195 0.435717 0.167472
H7    H     H_    0.622134 0.352210 0.273639 0.162970
H8    H     H_    0.378447 0.651725 0.852510 0.163213
H9    H     H_    0.623276 0.349706 0.147298 0.163208
H10   H     H_    0.622057 0.342220 0.836932 0.176064
H11   H     H_    0.377064 0.657335 0.163122 0.175568
H12   H     H_    0.616389 0.106035 0.517810 0.200620
H13   H     H_    0.385083 0.894181 0.536540 0.191126
H14   H     H_    0.309075 0.095164 0.518999 0.156899
I1    I     I_    0.667465 0.263684 0.684954 -0.366615
I2    I     I_    0.330610 0.735215 0.315160 -0.352421
N1    N     N_R   0.567959 0.417238 0.961034 -0.169125
N2    N     N_R   0.432649 0.583409 0.038882 -0.169168
N3    N     N_R   0.567340 0.418368 0.030031 -0.170418
N4    N     N_R   0.433272 0.582281 0.969884 -0.170414
N5    N     N_2   0.842710 0.448880 0.471430 -0.188405
N6    N     N_2   0.157290 0.551120 0.528570 -0.187941
O1    O     O_R   0.431050 0.692470 0.505750 -0.602893
O2    O     O_R   0.568950 0.307530 0.494250 -0.605603
O3    O     O_R   0.651120 0.659650 0.487410 -0.612444
O4    O     O_R   0.348880 0.340350 0.512590 -0.612088
O5    O     O_R   0.389930 0.516430 0.611030 -0.615319
O6    O     O_R   0.610070 0.483570 0.388970 -0.611965
O7    O     O_R   0.610000 0.483610 0.592700 -0.592437
O8    O     O_R   0.390000 0.516390 0.407300 -0.589652
Zn1   Zn    Zn3+2 0.353060 0.521920 0.512240 0.974371
Zn2   Zn    Zn3+2 0.646940 0.478080 0.487760 0.973643

loop_
_geom_bond_atom_site_label_1
_geom_bond_atom_site_label_2
_ccdc_geom_bond_type
N6    Zn1   S    
C12   O4    A    
N2    N4    A    
C10   H11   S    
C20   H13   S    
C19   H14   S    
C23   H3    S    
O3    Zn2   S    
C9    C11   A    
H6    N5    S    
C18   C20   D    
O4    Zn1   S    
C18   H2    S    
C6    H9    S    
H5    N6    S    
C12   O2    A    
C5    H8    S    
C7    C9    A    
C24   O5    A    
C17   N4    A    
C5    C7    A    
C8    C16   S    
C21   H12   S    
C22   H4    S    
C11   I1    S    
C2    C15   S    
N1    N3    A    
C16   N3    A    
C1    C18   S    
C3    C14   A    
C2    O6    A    
C4    C15   A    
C12   C19   S    
C4    C6    A    
C19   C21   D    
C23   N6    D    
O5    Zn1   S    
C13   C15   A    
C9    H10   S    
C11   C14   A    
C17   N1    A    
C4    H7    S    
C16   N2    A    
C3    H1    S    
C22   N5    D    
C20   C21   S    
O1    Zn1   S    
C2    O8    A    
O7    Zn2   S    
C14   C24   S    
O2    Zn2   S    
C22   C23   S    
C1    O1    A    
C13   I2    S    
C6    C8    A    
C3    C5    A    
C24   O7    A    
O8    Zn1   S    
C1    O3    A    
C8    C10   A    
O6    Zn2   S    
N5    Zn2   S    
C7    C17   S    
C10   C13   A    
