data_mof_unit_7523.cif
_audit_creation_date              2012-10-26T19:35:16-0400
_audit_creation_method            fapswitch 2.2
_symmetry_space_group_name_H-M    P1
_symmetry_Int_Tables_number       1
_space_group_crystal_system       triclinic
_cell_length_a                    10.773536
_cell_length_b                    10.826761
_cell_length_c                    9.57854
_cell_angle_alpha                 89.768216
_cell_angle_beta                  89.517909
_cell_angle_gamma                 90.269418
_cell_volume                      1117.20362339

loop_
_atom_site_label
_atom_site_type_symbol
_atom_type_description
_atom_site_fract_x
_atom_site_fract_y
_atom_site_fract_z
_atom_type_partial_charge
C1    C     C_R   0.502373 0.262476 0.500101 0.544825
C2    C     C_R   0.530282 0.936400 0.373848 -0.158176
C3    C     C_R   0.514114 0.870987 0.499813 0.003572
C4    C     C_R   0.262632 0.502876 0.500483 0.538338
C5    C     C_R   0.515695 0.936263 0.625419 0.009924
C6    C     C_3   0.428565 0.930114 0.747657 -0.263351
C7    C     C_3   0.428581 0.070149 0.746871 -0.268055
C8    C     C_R   0.602901 0.536250 0.072244 0.147213
C9    C     C_R   0.403904 0.451368 0.076666 0.049922
C10   C     C_R   0.404374 0.448240 0.928834 0.325571
C11   C     C_R   0.603174 0.535790 0.925394 0.133640
C12   C     C_R   0.065072 0.609289 0.564279 0.036007
C13   C     C_3   0.668942 0.656932 0.918003 -0.281137
C14   C     C_3   0.666700 0.658529 0.076667 -0.268707
C15   C     C_R   0.502067 0.737661 0.499855 0.528362
C16   C     C_R   0.737296 0.502664 0.499354 0.536451
C17   C     C_R   0.128474 0.709464 0.626001 -0.094282
C18   C     C_R   0.062973 0.808146 0.683452 -0.120397
C19   C     C_R   0.933976 0.809806 0.678707 -0.126326
C20   C     C_R   0.869630 0.712482 0.617325 -0.118549
C21   C     C_R   0.933915 0.610306 0.561224 0.024714
C22   C     C_R   0.128782 0.509862 0.501057 0.014615
C23   C     C_R   0.064261 0.416095 0.432817 -0.148967
C24   C     C_R   0.936107 0.416285 0.431636 -0.148723
C25   C     C_R   0.870972 0.510733 0.497835 0.003816
C26   C     C_R   0.515628 0.063523 0.625169 0.021347
C27   C     C_R   0.514847 0.129476 0.499851 0.009755
C28   C     C_R   0.530922 0.065124 0.373845 -0.160031
Cu1   Cu    Cu3+1 0.499990 0.499980 0.640670 0.947162
Cu2   Cu    Cu3+1 0.500010 0.500020 0.359330 0.929446
H1    H     H_    0.113520 0.341088 0.382587 0.120827
H2    H     H_    0.228628 0.713375 0.628532 0.130799
H3    H     H_    0.112322 0.884466 0.730389 0.108698
H4    H     H_    0.883528 0.887242 0.721811 0.116570
H5    H     H_    0.769603 0.718920 0.613003 0.127754
H6    H     H_    0.887300 0.341128 0.381203 0.125123
H7    H     H_    0.537698 0.113503 0.274858 0.137040
H8    H     H_    0.536243 0.888972 0.274910 0.127207
H9    H     H_    0.337311 0.889240 0.720912 0.130285
H10   H     H_    0.339955 0.342595 0.787804 0.358341
H11   H     H_    0.472312 0.890942 0.842384 0.130658
H12   H     H_    0.337145 0.110274 0.719161 0.136877
H13   H     H_    0.473265 0.111007 0.840256 0.142492
H14   H     H_    0.326047 0.412147 0.133713 0.146950
H15   H     H_    0.764240 0.647528 0.874550 0.144547
H16   H     H_    0.612416 0.730608 0.869623 0.142588
H17   H     H_    0.760576 0.652270 0.123368 0.139848
H18   H     H_    0.606646 0.732183 0.120229 0.139342
N1    N     N_R   0.500790 0.500930 0.147930 -0.269105
N2    N     N_R   0.500790 0.500890 0.852020 -0.238602
O1    O     O_R   0.500000 0.319640 0.618810 -0.521836
O2    O     O_R   0.500010 0.319680 0.381230 -0.508679
O3    O     O_R   0.319640 0.499980 0.618820 -0.479446
O4    O     O_R   0.319650 0.500020 0.381230 -0.512421
O5    O     O_R   0.499990 0.680320 0.618770 -0.513826
O6    O     O_R   0.500000 0.680360 0.381190 -0.504149
O7    O     O_R   0.680350 0.499980 0.618770 -0.501105
O8    O     O_R   0.680360 0.500020 0.381180 -0.498375
O9    O     O_3   0.306003 0.390065 0.866772 -0.706381

loop_
_geom_bond_atom_site_label_1
_geom_bond_atom_site_label_2
_ccdc_geom_bond_type
C12   C17   A    
C8    C14   S    
C23   C24   A    
C19   H4    S    
C6    C7    S    
C7    H13   S    
C4    O3    A    
C11   C13   S    
C9    C10   A    
C2    H8    S    
C19   C20   A    
C24   H6    S    
C16   O7    A    
C1    C27   S    
C15   O6    A    
C2    C3    A    
C3    C15   S    
H10   O9    S    
C16   O8    A    
C13   C14   S    
C24   C25   A    
C13   H15   S    
Cu2   O4    S    
C26   C27   A    
Cu1   Cu2   S    
C7    C26   S    
Cu1   O3    S    
C28   H7    S    
C8    C11   A    
Cu2   O8    S    
C18   H3    S    
Cu2   N1    S    
Cu1   O7    S    
C10   O9    S    
C4    C22   S    
Cu1   N2    S    
C22   C23   A    
C5    C6    S    
C1    O2    A    
C8    N1    A    
C2    C28   A    
C5    C26   A    
C10   N2    A    
C12   C22   A    
C16   C25   S    
C9    N1    A    
C20   C21   A    
C17   C18   A    
C18   C19   A    
Cu1   O1    S    
C7    H12   S    
C27   C28   A    
C11   N2    A    
C17   H2    S    
C21   C25   A    
C13   H16   S    
C9    H14   S    
C14   H18   S    
C1    O1    A    
Cu1   O5    S    
C4    O4    A    
C6    H9    S    
C14   H17   S    
Cu2   O6    S    
C12   C21   A    
C20   H5    S    
C15   O5    A    
Cu2   O2    S    
C3    C5    A    
C6    H11   S    
C23   H1    S    
