data_mof_unit_17771.cif
_audit_creation_date              2012-12-10T18:33:45-0500
_audit_creation_method            fapswitch 2.2
_symmetry_space_group_name_H-M    P1
_symmetry_Int_Tables_number       1
_space_group_crystal_system       triclinic
_cell_length_a                    10.496484
_cell_length_b                    14.975325
_cell_length_c                    15.346728
_cell_angle_alpha                 81.66185
_cell_angle_beta                  90.107203
_cell_angle_gamma                 104.49392
_cell_volume                      2309.37076119

loop_
_atom_site_label
_atom_site_type_symbol
_atom_type_description
_atom_site_fract_x
_atom_site_fract_y
_atom_site_fract_z
_atom_type_partial_charge
C1    C     C_R   0.480465 0.441651 0.662935 0.909344
C2    C     C_R   0.588543 0.483241 0.047639 -0.198726
C3    C     C_R   0.574323 0.387388 0.081097 0.504522
C4    C     C_R   0.673648 0.605460 0.924632 0.515565
C5    C     C_R   0.543677 0.320144 0.024097 0.395977
C6    C     C_R   0.697467 0.672798 0.981674 0.392706
C7    C     C_R   0.725321 0.845905 0.619938 0.060159
C8    C     C_R   0.286737 0.152846 0.374751 0.053273
C9    C     C_R   0.680586 0.755151 0.602552 0.045288
C10   C     C_R   0.319396 0.241656 0.398306 0.044257
C11   C     C_R   0.510767 0.794762 0.515304 -0.025339
C12   C     C_R   0.519862 0.558458 0.337323 0.903683
C13   C     C_R   0.500719 0.209992 0.477708 -0.014859
C14   C     C_R   0.558933 0.889672 0.522513 -0.012748
C15   C     C_R   0.463277 0.115677 0.466775 -0.017303
C16   C     C_R   0.742329 0.500542 0.500970 0.932513
C17   C     C_R   0.257716 0.499626 0.498515 0.926940
C18   C     C_R   0.660707 0.913356 0.582230 0.062326
C19   C     C_R   0.361660 0.089798 0.407115 0.079874
C20   C     C_R   0.502911 0.959792 0.477654 0.029093
C21   C     C_R   0.527826 0.048311 0.508220 0.027811
C22   C     C_R   0.614115 0.063888 0.579837 0.106917
C23   C     C_R   0.510772 0.471621 0.817004 0.573266
C24   C     C_R   0.422744 0.945019 0.403535 0.109836
C25   C     C_R   0.687873 0.000864 0.608756 -0.165898
C26   C     C_R   0.345152 0.005411 0.375113 -0.170079
C27   C     C_3   0.927442 0.415235 0.537743 -0.304882
C28   C     C_3   0.072442 0.584943 0.460866 -0.296564
C29   C     C_3   0.036642 0.482008 0.580657 0.620590
C30   C     C_3   0.963249 0.518207 0.417947 0.619217
C31   C     C_3   0.122338 0.498903 0.497098 -0.130808
C32   C     C_3   0.877699 0.501373 0.501608 -0.132117
C33   C     C_3   0.014576 0.432522 0.452475 -0.301053
C34   C     C_R   0.523593 0.530444 0.183447 0.596781
C35   C     C_3   0.985419 0.567617 0.546151 -0.286506
C36   C     C_R   0.483250 0.407124 0.757268 -0.214831
C37   C     C_R   0.552275 0.593691 0.244019 -0.199237
C38   C     C_R   0.489600 0.282925 0.876155 -0.112079
C39   C     C_R   0.673467 0.712461 0.129011 -0.118671
C40   C     C_R   0.470160 0.312422 0.787824 -0.253543
C41   C     C_R   0.627146 0.685078 0.216355 -0.227140
C42   C     C_3   0.982532 0.433626 0.727923 -0.341204
C43   C     C_3   0.010525 0.546097 0.268919 -0.353114
C44   C     C_3   0.402675 0.189433 0.095451 -0.199081
C45   C     C_R   0.553205 0.444943 0.901230 -0.064403
C46   C     C_3   0.671024 0.810620 0.911559 -0.196473
C47   C     C_3   0.304822 0.465230 0.176750 -0.372483
C48   C     C_3   0.358702 0.555312 0.821773 -0.301307
C49   C     C_3   0.731342 0.375320 0.180890 -0.218297
C50   C     C_3   0.846693 0.610598 0.834321 -0.270049
C51   C     C_R   0.592013 0.552105 0.101782 -0.064623
C52   C     C_R   0.529827 0.348602 0.933953 -0.109431
C53   C     C_R   0.655242 0.646519 0.070592 -0.120184
C54   C     C_R   0.604585 0.511791 0.956564 -0.198140
H1    H     H_    0.591931 0.239688 0.506304 0.169320
H2    H     H_    0.442532 0.261154 0.743825 0.220168
H3    H     H_    0.473930 0.208926 0.898730 0.206254
H4    H     H_    0.726293 0.784418 0.108142 0.204564
H5    H     H_    0.756628 0.016989 0.660199 0.200084
H6    H     H_    0.280430 0.989509 0.321527 0.198711
H7    H     H_    0.928481 0.360571 0.723240 0.201430
H8    H     H_    0.913408 0.479544 0.721328 0.149134
H9    H     H_    0.023457 0.434601 0.794590 0.183353
H10   H     H_    0.030764 0.477194 0.265862 0.149984
H11   H     H_    0.102872 0.598631 0.279351 0.173225
H12   H     H_    0.421409 0.769200 0.482303 0.164941
H13   H     H_    0.974064 0.569973 0.204033 0.196751
H14   H     H_    0.325297 0.196140 0.046964 0.142947
H15   H     H_    0.388178 0.222565 0.153773 0.215845
H16   H     H_    0.390370 0.113987 0.118741 0.204830
H17   H     H_    0.591598 0.809649 0.959954 0.135893
H18   H     H_    0.627686 0.780378 0.852816 0.202384
H19   H     H_    0.722543 0.884664 0.889126 0.208612
H20   H     H_    0.305567 0.486489 0.104120 0.160025
H21   H     H_    0.279515 0.518897 0.211822 0.143560
H22   H     H_    0.226424 0.399718 0.193878 0.203267
H23   H     H_    0.262560 0.290994 0.375332 0.154614
H24   H     H_    0.344401 0.537657 0.894676 0.137369
H25   H     H_    0.285629 0.504605 0.788860 0.194432
H26   H     H_    0.340060 0.625063 0.802288 0.199734
H27   H     H_    0.780953 0.450910 0.165754 0.145998
H28   H     H_    0.777012 0.334906 0.140341 0.158024
H29   H     H_    0.747456 0.352159 0.251120 0.210690
H30   H     H_    0.837589 0.534561 0.852982 0.126042
H31   H     H_    0.918516 0.651059 0.876558 0.184872
H32   H     H_    0.886250 0.630907 0.765340 0.190587
H33   H     H_    0.730166 0.702476 0.629074 0.168845
H34   H     H_    0.864039 0.347373 0.569511 0.187898
H35   H     H_    0.135426 0.652773 0.428590 0.181354
H36   H     H_    0.031279 0.378995 0.413866 0.172282
H37   H     H_    0.968855 0.620738 0.585342 0.171871
H38   H     H_    0.650355 0.735056 0.262074 0.213576
I1    I     I_    0.891208 0.874031 0.700719 -0.350731
I2    I     I_    0.123705 0.120834 0.292168 -0.419454
I3    I     I_    0.622618 0.161371 0.669992 -0.466370
I4    I     I_    0.436228 0.852758 0.311535 -0.426878
N1    N     N_R   0.574200 0.731700 0.552740 -0.122525
N2    N     N_R   0.425800 0.268300 0.447260 -0.117751
O1    O     O_R   0.462600 0.383110 0.605620 -0.610026
O2    O     O_3   0.912705 0.538441 0.334204 -0.603977
O3    O     O_3   0.530101 0.226923 0.056526 -0.597064
O4    O     O_3   0.763240 0.764004 0.950141 -0.586616
O5    O     O_3   0.426103 0.448117 0.203487 -0.552835
O6    O     O_3   0.488605 0.559414 0.794760 -0.556441
O7    O     O_3   0.594751 0.358381 0.168678 -0.551425
O8    O     O_3   0.723485 0.631539 0.838749 -0.547650
O9    O     O_R   0.537400 0.616890 0.394380 -0.612168
O10   O     O_R   0.510210 0.531900 0.639510 -0.553347
O11   O     O_R   0.489790 0.468100 0.360490 -0.548647
O12   O     O_R   0.662240 0.425610 0.483080 -0.615481
O13   O     O_R   0.337760 0.574390 0.516920 -0.611866
O14   O     O_R   0.709860 0.574400 0.516970 -0.634312
O15   O     O_R   0.290140 0.425600 0.483030 -0.631639
O16   O     O_3   0.087444 0.464690 0.664821 -0.620246
Zn1   Zn    Zn3+2 0.468210 0.400660 0.477370 0.994532
Zn2   Zn    Zn3+2 0.531790 0.599340 0.522630 0.990683

loop_
_geom_bond_atom_site_label_1
_geom_bond_atom_site_label_2
_ccdc_geom_bond_type
C38   C40   A    
C29   O16   S    
C23   C45   A    
C27   C29   S    
C34   C37   A    
C22   I3    S    
C14   C18   A    
C1    O1    A    
C16   O12   A    
C39   C41   A    
C3    O7    S    
C15   C19   A    
C46   O4    S    
C34   C51   A    
C48   H25   S    
C24   C26   A    
C47   H22   S    
C24   I4    S    
O1    Zn1   S    
C11   C14   A    
C38   C52   A    
C48   H24   S    
C48   O6    S    
C30   O2    S    
C12   C37   S    
C49   H27   S    
C13   N2    A    
C10   N2    A    
C19   C26   A    
C50   H31   S    
C42   O16   S    
C20   C24   A    
C28   C35   S    
C40   H2    S    
C22   C25   A    
C31   C33   S    
C5    C52   A    
C44   H16   S    
O13   Zn2   S    
C42   H8    S    
C46   H18   S    
C11   H12   S    
C21   C22   A    
C18   C25   A    
C17   O13   A    
C12   O11   A    
C10   H23   S    
C43   H10   S    
C7    I1    S    
C5    O3    S    
C8    C19   A    
C47   O5    S    
C17   O15   A    
C32   C35   S    
C14   C20   A    
C49   H29   S    
C36   C40   A    
C8    I2    S    
C43   O2    S    
C4    C6    A    
C2    C54   A    
O11   Zn1   S    
C49   O7    S    
C45   C52   A    
C39   H4    S    
C4    O8    S    
C27   C33   S    
C51   C53   A    
C49   H28   S    
C38   H3    S    
C23   O6    S    
C43   H11   S    
C7    C18   A    
C44   H15   S    
N1    Zn2   S    
C42   H7    S    
C46   H17   S    
C28   H35   S    
C8    C10   A    
C45   C54   A    
C13   C15   A    
C17   C31   S    
C44   H14   S    
C6    C53   A    
O14   Zn2   S    
C16   O14   A    
C7    C9    A    
C9    N1    A    
C30   C33   S    
C4    C54   A    
C27   C32   S    
C28   C31   S    
C47   H20   S    
C3    C5    A    
C12   O9    A    
C44   O3    S    
C16   C32   S    
C29   C35   S    
C34   O5    S    
C11   N1    A    
C48   H26   S    
C28   C30   S    
C2    C3    A    
C47   H21   S    
C29   C31   S    
C33   H36   S    
C9    H33   S    
C30   C32   S    
O10   Zn2   S    
N2    Zn1   S    
C39   C53   A    
O12   Zn1   S    
C50   H30   S    
C6    O4    S    
C37   C41   A    
C27   H34   S    
O9    Zn2   S    
C2    C51   A    
C50   H32   S    
C1    O10   A    
C15   C21   A    
C41   H38   S    
C20   C21   A    
C43   H13   S    
C23   C36   A    
C50   O8    S    
C25   H5    S    
C13   H1    S    
C26   H6    S    
C42   H9    S    
C46   H19   S    
C1    C36   S    
O15   Zn1   S    
C35   H37   S    
