data_mof_unit_66165.cif
_audit_creation_date              2012-12-10T17:20:02-0500
_audit_creation_method            fapswitch 2.2
_symmetry_space_group_name_H-M    P1
_symmetry_Int_Tables_number       1
_space_group_crystal_system       triclinic
_cell_length_a                    38.716918
_cell_length_b                    21.709771
_cell_length_c                    21.685892
_cell_angle_alpha                 90.00002
_cell_angle_beta                  124.17942
_cell_angle_gamma                 90.000063
_cell_volume                      15079.5056581

loop_
_atom_site_label
_atom_site_type_symbol
_atom_type_description
_atom_site_fract_x
_atom_site_fract_y
_atom_site_fract_z
_atom_type_partial_charge
C1    C     C_R   0.999975 0.999975 0.118881 0.776739
C2    C     C_R   0.000025 0.999975 0.881119 0.776738
C3    C     C_R   0.499976 0.499975 0.118881 0.776728
C4    C     C_R   0.500024 0.499975 0.881118 0.776728
C5    C     C_3   0.274117 0.000308 0.207053 -0.371734
C6    C     C_3   0.725883 0.000567 0.792945 -0.371732
C7    C     C_3   0.774117 0.503228 0.207127 -0.371725
C8    C     C_3   0.225882 0.498565 0.792930 -0.371753
C9    C     C_3   0.225621 0.000280 0.158600 -0.375388
C10   C     C_3   0.774379 0.000539 0.841399 -0.375395
C11   C     C_3   0.725621 0.503201 0.158673 -0.375432
C12   C     C_3   0.274378 0.498538 0.841383 -0.375353
C13   C     C_1   0.337392 0.000110 0.337221 -0.113126
C14   C     C_1   0.662607 0.000110 0.662779 -0.113126
C15   C     C_1   0.837392 0.500110 0.337221 -0.113125
C16   C     C_1   0.162607 0.500109 0.662779 -0.113125
C17   C     C_1   0.162581 0.000013 0.162548 -0.113491
C18   C     C_1   0.837419 0.000013 0.837452 -0.113491
C19   C     C_1   0.662581 0.500013 0.162548 -0.113491
C20   C     C_1   0.337419 0.500013 0.837452 -0.113490
C21   C     C_1   0.124868 0.000003 0.124867 -0.173097
C22   C     C_1   0.875132 0.000002 0.875132 -0.173097
C23   C     C_1   0.624868 0.500003 0.124867 -0.173095
C24   C     C_1   0.375132 0.500003 0.875132 -0.173096
C25   C     C_R   0.972461 0.038431 0.190208 -0.178837
C26   C     C_R   0.027538 0.038431 0.809791 -0.178838
C27   C     C_R   0.472457 0.538424 0.190203 -0.178841
C28   C     C_R   0.527543 0.538424 0.809797 -0.178840
C29   C     C_R   0.971930 0.037541 0.253772 -0.176476
C30   C     C_R   0.028070 0.037542 0.746228 -0.176477
C31   C     C_R   0.471925 0.537535 0.253767 -0.176464
C32   C     C_R   0.528075 0.537535 0.746233 -0.176464
C33   C     C_R   0.999898 0.999709 0.313884 -0.009699
C34   C     C_R   0.000102 0.999709 0.686116 -0.009697
C35   C     C_R   0.499898 0.499711 0.313884 -0.009706
C36   C     C_R   0.500102 0.499711 0.686116 -0.009709
C37   C     C_R   0.027873 0.961943 0.309815 -0.184989
C38   C     C_R   0.972127 0.961943 0.690185 -0.184990
C39   C     C_R   0.527878 0.461952 0.309822 -0.185032
C40   C     C_R   0.472121 0.461953 0.690178 -0.185030
C41   C     C_R   0.027347 0.961165 0.245200 -0.179191
C42   C     C_R   0.972653 0.961165 0.754799 -0.179186
C43   C     C_R   0.527353 0.461174 0.245207 -0.179121
C44   C     C_R   0.472646 0.461174 0.754792 -0.179121
C45   C     C_R   0.079968 0.000000 0.079993 0.823651
C46   C     C_R   0.920032 0.000000 0.920006 0.823651
C47   C     C_R   0.579968 0.500000 0.079993 0.823646
C48   C     C_R   0.420032 0.500000 0.920006 0.823646
C49   C     C_R   0.999933 0.999870 0.185676 -0.003286
C50   C     C_R   0.000067 0.999871 0.814324 -0.003285
C51   C     C_R   0.499933 0.499871 0.185677 -0.003259
C52   C     C_R   0.500066 0.499871 0.814323 -0.003262
C53   C     C_R   0.500000 0.186603 0.500000 -0.130781
C54   C     C_R   0.000000 0.686608 0.500001 -0.130834
C55   C     C_R   0.500000 0.881213 0.500000 0.777443
C56   C     C_R   1.000000 0.381213 0.500000 0.777444
C57   C     C_R   0.420007 0.000166 0.419980 0.827554
C58   C     C_R   0.579993 0.000166 0.580019 0.827553
C59   C     C_R   0.920007 0.500166 0.419980 0.827569
C60   C     C_R   0.079993 0.500165 0.580019 0.827566
C61   C     C_R   0.500000 0.119351 0.500000 0.808555
C62   C     C_R   0.000000 0.619353 0.500001 0.808584
C63   C     C_R   1.000000 0.881111 0.500001 0.773125
C64   C     C_R   0.500000 0.381109 0.499999 0.773173
C65   C     C_R   0.999974 0.999798 0.380838 0.777242
C66   C     C_R   0.000026 0.999798 0.619162 0.777239
C67   C     C_R   0.499974 0.499799 0.380838 0.777262
C68   C     C_R   0.500026 0.499799 0.619162 0.777262
C69   C     C_R   1.000000 0.119110 0.500000 0.788484
C70   C     C_R   0.500000 0.619110 0.500000 0.788481
C71   C     C_R   0.526684 0.782199 0.486971 -0.177357
C72   C     C_R   0.473316 0.782198 0.513029 -0.177357
C73   C     C_R   0.026684 0.282199 0.486971 -0.177359
C74   C     C_R   0.973315 0.282198 0.513029 -0.177355
C75   C     C_R   0.027205 0.218122 0.488270 -0.179030
C76   C     C_R   0.972795 0.218122 0.511730 -0.179028
C77   C     C_R   0.527205 0.718122 0.488270 -0.179028
C78   C     C_R   0.472795 0.718122 0.511730 -0.179030
C79   C     C_3   0.225812 0.942028 0.258983 -0.373165
C80   C     C_3   0.774188 0.941900 0.741243 -0.373153
C81   C     C_3   0.725808 0.440632 0.256409 -0.373028
C82   C     C_3   0.274185 0.442914 0.739512 -0.373248
C83   C     C_R   1.000000 0.186016 0.500000 -0.013783
C84   C     C_R   0.500000 0.686016 0.500000 -0.013780
C85   C     C_R   0.500000 0.814305 0.500000 -0.006998
C86   C     C_R   1.000000 0.314305 0.500000 -0.006998
C87   C     C_R   0.505359 0.218623 0.449944 -0.166469
C88   C     C_R   0.494642 0.218623 0.550056 -0.166473
C89   C     C_R   0.005124 0.718631 0.449661 -0.166474
C90   C     C_R   0.994875 0.718630 0.550340 -0.166467
C91   C     C_R   0.005234 0.783005 0.448786 0.125481
C92   C     C_R   0.994761 0.783004 0.551211 0.125478
C93   C     C_R   0.505472 0.282998 0.449071 0.125558
C94   C     C_R   0.494529 0.282998 0.550929 0.125558
C95   C     C_R   0.999999 0.814555 0.500000 -0.114109
C96   C     C_R   0.500000 0.314551 0.500000 -0.114206
C97   C     C_3   0.225784 0.057827 0.259362 -0.373002
C98   C     C_3   0.774216 0.057695 0.740413 -0.373009
C99   C     C_3   0.725788 0.556302 0.261862 -0.373103
C100  C     C_3   0.274219 0.558683 0.742160 -0.372949
C101  C     C_3   0.274278 0.057854 0.307814 -0.374428
C102  C     C_3   0.725721 0.057723 0.691962 -0.374425
C103  C     C_3   0.774283 0.556329 0.310313 -0.374354
C104  C     C_3   0.225725 0.558711 0.693708 -0.374458
C105  C     C_1   0.375106 0.000135 0.374966 -0.172862
C106  C     C_1   0.624894 0.000135 0.625034 -0.172863
C107  C     C_1   0.875106 0.500135 0.374966 -0.172864
C108  C     C_1   0.124894 0.500135 0.625034 -0.172864
C109  C     C_3   0.208696 0.000036 0.208620 0.322364
C110  C     C_3   0.791304 0.000035 0.791380 0.322364
C111  C     C_3   0.708696 0.500035 0.208620 0.322367
C112  C     C_3   0.291304 0.500035 0.791380 0.322360
C113  C     C_3   0.274307 0.942055 0.307435 -0.375230
C114  C     C_3   0.725693 0.941926 0.692791 -0.375238
C115  C     C_3   0.774303 0.440658 0.304861 -0.375325
C116  C     C_3   0.225690 0.442940 0.691061 -0.375167
C117  C     C_3   0.291277 0.000082 0.291129 0.322249
C118  C     C_3   0.708723 0.000082 0.708871 0.322250
C119  C     C_3   0.791277 0.500082 0.291129 0.322256
C120  C     C_3   0.208723 0.500082 0.708871 0.322241
Cu1   Cu    Cu3+1 0.000000 0.938160 0.000000 0.945987
Cu2   Cu    Cu3+1 0.500000 0.438160 0.000000 0.946017
Cu3   Cu    Cu3+1 0.000000 0.061840 0.000000 0.946956
Cu4   Cu    Cu3+1 0.500000 0.561840 0.000000 0.946959
Cu5   Cu    Cu3+1 0.500000 0.000210 0.561820 0.943337
Cu6   Cu    Cu3+1 0.500000 0.000210 0.438180 0.943336
Cu7   Cu    Cu3+1 0.000000 0.500210 0.561820 0.943322
Cu8   Cu    Cu3+1 1.000000 0.500210 0.438180 0.943323
Cu9   Cu    Cu3+1 0.958680 0.999890 0.458710 0.937197
Cu10  Cu    Cu3+1 0.041320 0.999890 0.541290 0.937200
Cu11  Cu    Cu3+1 0.458680 0.499890 0.458710 0.937187
Cu12  Cu    Cu3+1 0.541320 0.499890 0.541290 0.937186
H1    H     H_    0.285982 0.940800 0.367469 0.162172
H2    H     H_    0.714018 0.940484 0.632762 0.162166
H3    H     H_    0.785979 0.437294 0.364795 0.162100
H4    H     H_    0.214015 0.442945 0.631010 0.162215
H5    H     H_    0.214192 0.899712 0.223983 0.163078
H6    H     H_    0.785808 0.899675 0.776407 0.163083
H7    H     H_    0.714184 0.399377 0.219577 0.163108
H8    H     H_    0.285803 0.400003 0.773398 0.163061
H9    H     H_    0.285866 0.899751 0.295593 0.161525
H10   H     H_    0.714134 0.899714 0.704797 0.161534
H11   H     H_    0.785858 0.399416 0.291187 0.161603
H12   H     H_    0.214129 0.400042 0.701788 0.161484
H13   H     H_    0.285652 0.041704 0.193593 0.162828
H14   H     H_    0.714348 0.042060 0.806244 0.162823
H15   H     H_    0.785655 0.545675 0.195504 0.162770
H16   H     H_    0.214349 0.539297 0.807463 0.162854
H17   H     H_    0.951052 0.068290 0.144180 0.136169
H18   H     H_    0.048947 0.068291 0.855819 0.136169
H19   H     H_    0.451044 0.568277 0.144171 0.136162
H20   H     H_    0.548956 0.568276 0.855829 0.136165
H21   H     H_    0.950328 0.067088 0.256669 0.139159
H22   H     H_    0.049672 0.067089 0.743330 0.139158
H23   H     H_    0.450319 0.567076 0.256660 0.139159
H24   H     H_    0.549681 0.567075 0.743341 0.139163
H25   H     H_    0.049573 0.932508 0.356052 0.138048
H26   H     H_    0.950427 0.932508 0.643948 0.138047
H27   H     H_    0.549582 0.432524 0.356064 0.138086
H28   H     H_    0.450418 0.432525 0.643936 0.138087
H29   H     H_    0.048773 0.931358 0.242103 0.135264
H30   H     H_    0.951227 0.931357 0.757897 0.135262
H31   H     H_    0.548783 0.431372 0.242114 0.135217
H32   H     H_    0.451217 0.431373 0.757885 0.135218
H33   H     H_    0.547532 0.806717 0.477130 0.136945
H34   H     H_    0.452468 0.806717 0.522870 0.136944
H35   H     H_    0.047532 0.306717 0.477130 0.136944
H36   H     H_    0.952468 0.306717 0.522870 0.136944
H37   H     H_    0.048229 0.193604 0.478868 0.138504
H38   H     H_    0.951771 0.193604 0.521132 0.138506
H39   H     H_    0.548229 0.693604 0.478868 0.138505
H40   H     H_    0.451771 0.693604 0.521132 0.138505
H41   H     H_    0.509623 0.192812 0.412113 0.173518
H42   H     H_    0.490378 0.192812 0.587887 0.173518
H43   H     H_    0.009202 0.692824 0.411600 0.173575
H44   H     H_    0.990797 0.692823 0.588402 0.173576
H45   H     H_    0.214309 0.940762 0.295859 0.160972
H46   H     H_    0.785691 0.940446 0.704372 0.160975
H47   H     H_    0.714305 0.437256 0.293185 0.161000
H48   H     H_    0.285689 0.442907 0.702620 0.160956
H49   H     H_    0.214143 0.100293 0.224639 0.163106
H50   H     H_    0.785857 0.100251 0.774971 0.163108
H51   H     H_    0.714150 0.599735 0.229022 0.163144
H52   H     H_    0.285862 0.600534 0.777985 0.163079
H53   H     H_    0.214280 0.058740 0.296245 0.161822
H54   H     H_    0.785720 0.058421 0.703527 0.161813
H55   H     H_    0.714285 0.555103 0.298739 0.161746
H56   H     H_    0.285723 0.560856 0.705317 0.161867
H57   H     H_    0.285953 0.058782 0.367855 0.162538
H58   H     H_    0.714047 0.058463 0.631917 0.162539
H59   H     H_    0.785958 0.555145 0.370349 0.162567
H60   H     H_    0.214050 0.560897 0.633707 0.162527
H61   H     H_    0.285816 0.100334 0.296250 0.162155
H62   H     H_    0.714183 0.100292 0.703360 0.162150
H63   H     H_    0.785824 0.599776 0.300632 0.162124
H64   H     H_    0.214189 0.600575 0.706374 0.162175
H65   H     H_    0.213998 0.959061 0.121709 0.162695
H66   H     H_    0.786002 0.959418 0.878450 0.162690
H67   H     H_    0.713994 0.463124 0.120001 0.162623
H68   H     H_    0.285999 0.456675 0.877188 0.162742
H69   H     H_    0.213977 0.041662 0.121978 0.161743
H70   H     H_    0.786023 0.042018 0.877860 0.161748
H71   H     H_    0.713979 0.545634 0.123889 0.161801
H72   H     H_    0.286024 0.539255 0.879078 0.161710
H73   H     H_    0.285673 0.959101 0.193323 0.162864
H74   H     H_    0.714327 0.959459 0.806836 0.162870
H75   H     H_    0.785669 0.463164 0.191614 0.162924
H76   H     H_    0.214324 0.456715 0.805574 0.162828
O1    O     O_R   0.999990 0.947780 0.090170 -0.586146
O2    O     O_R   0.000010 0.947780 0.909830 -0.586144
O3    O     O_R   0.499990 0.447780 0.090170 -0.586130
O4    O     O_R   0.500010 0.447780 0.909830 -0.586129
O5    O     O_R   0.965120 0.999890 0.374970 -0.585872
O6    O     O_R   0.034880 0.999890 0.625030 -0.585872
O7    O     O_R   0.465120 0.499890 0.374970 -0.585826
O8    O     O_R   0.534880 0.499890 0.625030 -0.585827
O9    O     O_R   0.034900 0.999930 0.444740 -0.589258
O10   O     O_R   0.965100 0.999930 0.555260 -0.589259
O11   O     O_R   0.534900 0.499930 0.444740 -0.589297
O12   O     O_R   0.465100 0.499930 0.555260 -0.589296
O13   O     O_R   0.965090 0.090120 0.465150 -0.585606
O14   O     O_R   0.034910 0.090120 0.534850 -0.585608
O15   O     O_R   0.465090 0.590120 0.465150 -0.585610
O16   O     O_R   0.534910 0.590120 0.534850 -0.585609
O17   O     O_R   0.999990 0.052220 0.090220 -0.585845
O18   O     O_R   0.000010 0.052220 0.909780 -0.585845
O19   O     O_R   0.499990 0.552220 0.090220 -0.585848
O20   O     O_R   0.500010 0.552220 0.909780 -0.585848
O21   O     O_R   0.060280 0.947780 0.060280 -0.581168
O22   O     O_R   0.939720 0.947780 0.939720 -0.581167
O23   O     O_R   0.560280 0.447780 0.060280 -0.581167
O24   O     O_R   0.439720 0.447780 0.939720 -0.581165
O25   O     O_R   0.060280 0.052220 0.060320 -0.581114
O26   O     O_R   0.939720 0.052220 0.939680 -0.581114
O27   O     O_R   0.560280 0.552220 0.060320 -0.581113
O28   O     O_R   0.439720 0.552220 0.939680 -0.581115
O29   O     O_R   0.500000 0.909980 0.552210 -0.586052
O30   O     O_R   0.500000 0.909980 0.447790 -0.586052
O31   O     O_R   0.000000 0.409980 0.552210 -0.586053
O32   O     O_R   0.000000 0.409980 0.447790 -0.586052
O33   O     O_R   0.439710 0.000200 0.491930 -0.583534
O34   O     O_R   0.560290 0.000200 0.508070 -0.583534
O35   O     O_R   0.939710 0.500200 0.491930 -0.583509
O36   O     O_R   0.060290 0.500200 0.508070 -0.583508
O37   O     O_R   0.439720 0.000170 0.387560 -0.579014
O38   O     O_R   0.560280 0.000170 0.612440 -0.579013
O39   O     O_R   0.939720 0.500170 0.387560 -0.579036
O40   O     O_R   0.060280 0.500170 0.612440 -0.579036
O41   O     O_R   0.500000 0.090430 0.552220 -0.593331
O42   O     O_R   0.500000 0.090430 0.447780 -0.593332
O43   O     O_R   0.000000 0.590430 0.552220 -0.593360
O44   O     O_R   0.000000 0.590430 0.447780 -0.593359
O45   O     O_R   0.965130 0.909670 0.465120 -0.587656
O46   O     O_R   0.034870 0.909670 0.534880 -0.587646
O47   O     O_R   0.465130 0.409670 0.465120 -0.587674
O48   O     O_R   0.534870 0.409670 0.534880 -0.587677
C121  C     C_3   0.010687 0.819488 0.394525 -0.389886
C122  C     C_3   0.014827 0.781689 0.339475 -0.864275
H77   H     H_    0.043093 0.752112 0.369687 0.249842
H78   H     H_    0.986540 0.753013 0.303772 0.255502
H79   H     H_    0.018052 0.813355 0.302764 0.248887
H80   H     H_    0.983416 0.850649 0.361462 0.203260
H81   H     H_    0.039066 0.848613 0.427235 0.203754
C123  C     C_3   0.989296 0.819487 0.605458 -0.389899
C124  C     C_3   0.985135 0.781688 0.660484 -0.864276
H82   H     H_    0.956872 0.752105 0.630250 0.249847
H83   H     H_    0.013422 0.753018 0.696212 0.255501
H84   H     H_    0.981892 0.813354 0.697170 0.248876
H85   H     H_    0.016569 0.850644 0.638538 0.203251
H86   H     H_    0.960920 0.848616 0.572735 0.203768
C125  C     C_3   0.511164 0.319475 0.395095 -0.389902
C126  C     C_3   0.515511 0.281668 0.340289 -0.864365
H87   H     H_    0.543765 0.252082 0.370715 0.249825
H88   H     H_    0.487246 0.253001 0.304390 0.255587
H89   H     H_    0.518885 0.313328 0.303751 0.248740
H90   H     H_    0.483924 0.350655 0.361839 0.203037
H91   H     H_    0.539537 0.348579 0.428026 0.204056
C127  C     C_3   0.488839 0.319474 0.604908 -0.389898
C128  C     C_3   0.484499 0.281668 0.659722 -0.864359
H92   H     H_    0.456246 0.252080 0.629304 0.249824
H93   H     H_    0.512765 0.253002 0.695615 0.255587
H94   H     H_    0.481129 0.313327 0.696265 0.248742
H95   H     H_    0.516077 0.350659 0.638157 0.203037
H96   H     H_    0.460464 0.348575 0.571979 0.204053

loop_
_geom_bond_atom_site_label_1
_geom_bond_atom_site_label_2
_ccdc_geom_bond_type
C80   H46   S    
C57   C105  S    
Cu7   O31   S    
C123  H85   S    
C98   C110  S    
C41   H29   S    
Cu10  O9    S    
C46   O22   A    
C56   O31   A    
C67   O7    A    
C12   C112  S    
C73   H35   S    
C30   C34   A    
C75   C83   A    
C34   C66   S    
C74   H36   S    
C72   C85   A    
C30   H22   S    
C33   C65   S    
C80   C110  S    
Cu3   O18   S    
C20   C112  S    
C97   H53   S    
Cu2   O23   S    
C123  C124  S    
C2    O18   A    
Cu8   O44   S    
C76   H38   S    
C74   C76   A    
C4    C52   S    
C91   C121  S    
Cu8   O32   S    
C114  H10   S    
C25   H17   S    
Cu9   O13   S    
C68   O12   A    
C35   C67   S    
C45   O25   A    
C116  H4    S    
C54   C90   A    
C101  H57   S    
C16   C108  T    
C26   C50   A    
C56   O32   A    
C6    H14   S    
Cu11  O47   S    
C13   C117  S    
C63   O46   A    
C47   O23   A    
C15   C107  T    
C125  C126  S    
C104  H60   S    
C29   C33   A    
C100  C104  S    
C88   H42   S    
Cu1   Cu3   S    
C60   O40   A    
C59   O35   A    
C121  C122  S    
C8    H76   S    
C128  H94   S    
C37   H25   S    
C58   O34   A    
C3    C51   S    
C72   C78   A    
C2    C50   S    
C102  H58   S    
C116  H12   S    
Cu4   O27   S    
C53   C61   S    
C12   H72   S    
C81   C111  S    
C115  H3    S    
C9    H65   S    
C126  H87   S    
C14   C118  S    
C25   C49   A    
Cu6   O34   S    
C70   O16   A    
C128  H92   S    
C79   H45   S    
C66   O10   A    
Cu5   O33   S    
Cu12  O8    S    
Cu1   O1    S    
Cu12  O16   S    
C18   C22   T    
C70   C84   S    
C124  H82   S    
C82   H8    S    
C60   C108  S    
C8    C12   S    
C43   H31   S    
C92   C95   A    
C64   O47   A    
C44   C52   A    
C71   C85   A    
C4    O20   A    
C65   O5    A    
Cu2   O3    S    
Cu3   O25   S    
C75   H37   S    
Cu6   O37   S    
C25   C29   A    
C73   C75   A    
C81   C115  S    
Cu5   O38   S    
C8    H16   S    
C103  H63   S    
C17   C109  S    
C100  H52   S    
C102  H62   S    
C76   C83   A    
C41   C49   A    
Cu9   O5    S    
Cu4   O20   S    
C100  H56   S    
C101  H61   S    
C7    C11   S    
C2    O2    A    
C21   C45   S    
C9    C109  S    
C125  H90   S    
C87   H41   S    
C69   O14   A    
C115  H11   S    
C66   O6    A    
C60   O36   A    
C13   C105  T    
C23   C47   S    
C79   C109  S    
C1    O1    A    
C121  H80   S    
C24   C48   S    
C55   O29   A    
C20   C24   T    
C28   C32   A    
C63   C95   S    
C5    H13   S    
C81   H47   S    
C54   C89   A    
C7    H75   S    
C99   C103  S    
C3    O19   A    
C15   C119  S    
C90   H44   S    
C19   C23   T    
C61   O42   A    
C11   H71   S    
C62   O44   A    
C54   C62   S    
C77   C84   A    
C98   C102  S    
C27   C31   A    
Cu11  O15   S    
C7    H15   S    
C59   C107  S    
C116  C120  S    
C5    C117  S    
Cu11  O12   S    
C58   C106  S    
C82   C112  S    
C55   C85   S    
C32   H24   S    
C35   C39   A    
Cu11  O7    S    
C5    C9    S    
Cu9   O10   S    
C69   C83   S    
Cu4   O28   S    
C7    C119  S    
C94   C127  S    
Cu3   O26   S    
C124  H83   S    
C90   C92   A    
C93   C125  S    
C36   C40   A    
C77   H39   S    
C26   H18   S    
C99   C111  S    
C40   H28   S    
C42   H30   S    
C70   O15   A    
C114  H2    S    
Cu7   O35   S    
C122  H79   S    
C53   C87   A    
C10   H66   S    
Cu1   O2    S    
C56   C86   S    
C32   C36   A    
C94   C96   A    
C10   H70   S    
C38   H26   S    
C48   O28   A    
Cu10  O6    S    
C9    H69   S    
C42   C50   A    
C22   C46   S    
C113  C117  S    
Cu10  O46   S    
C126  H88   S    
C62   O43   A    
C79   H5    S    
C80   C114  S    
C53   C88   A    
C100  C112  S    
C93   C96   A    
C115  C119  S    
C127  H95   S    
C79   C113  S    
Cu5   Cu6   S    
Cu8   O36   S    
Cu2   O4    S    
C12   H68   S    
Cu10  O14   S    
C103  H59   S    
C89   H43   S    
C121  H81   S    
Cu2   Cu4   S    
Cu7   Cu8   S    
Cu6   O30   S    
C46   O26   A    
C122  H78   S    
C71   C77   A    
Cu4   O19   S    
Cu5   O29   S    
C8    C120  S    
Cu7   O43   S    
C33   C37   A    
Cu9   Cu10  S    
C1    O17   A    
C81   H7    S    
C47   O27   A    
C114  C118  S    
C92   C123  S    
C123  H86   S    
Cu1   O22   S    
C16   C120  S    
C39   H27   S    
C34   C38   A    
Cu8   O39   S    
C72   H34   S    
C45   O21   A    
C38   C42   A    
C103  C119  S    
C18   C110  S    
C27   H19   S    
C102  C118  S    
Cu9   O45   S    
C125  H91   S    
C31   H23   S    
C36   C68   S    
C97   H49   S    
Cu3   O17   S    
C19   C111  S    
C98   H50   S    
C74   C86   A    
Cu2   O24   S    
C4    O4    A    
Cu6   O42   S    
Cu12  O11   S    
C101  C117  S    
C82   H48   S    
C28   H20   S    
C67   O11   A    
C97   C109  S    
C99   H55   S    
C29   H21   S    
C82   C116  S    
C98   H54   S    
C11   C111  S    
Cu1   O21   S    
C28   C52   A    
C43   C51   A    
C63   O45   A    
C65   O9    A    
C57   O33   A    
C126  H89   S    
C80   H6    S    
C87   C93   A    
C3    O3    A    
Cu5   O41   S    
C27   C51   A    
C113  H9    S    
C10   C110  S    
C64   C96   S    
C31   C35   A    
C128  H93   S    
C55   O30   A    
C37   C41   A    
C68   O8    A    
C124  H84   S    
C11   H67   S    
C73   C86   A    
C6    H74   S    
C6    C10   S    
Cu12  O48   S    
C5    H73   S    
C48   O24   A    
C113  H1    S    
C78   C84   A    
C40   C44   A    
C58   O38   A    
C39   C43   A    
C91   C95   A    
C61   O41   A    
C89   C91   A    
C71   H33   S    
C14   C106  T    
C122  H77   S    
C88   C94   A    
C127  C128  S    
C127  H96   S    
C99   H51   S    
C44   H32   S    
C69   O13   A    
C104  C120  S    
C78   H40   S    
Cu7   O40   S    
C1    C49   S    
C57   O37   A    
C6    C118  S    
C97   C101  S    
Cu11  Cu12  S    
C104  H64   S    
C59   O39   A    
C64   O48   A    
C26   C30   A    
C17   C21   T    
