data_mof_unit_40174.cif
_audit_creation_date              2013-03-05T15:44:23-0500
_audit_creation_method            fapswitch 2.2
_symmetry_space_group_name_H-M    P1
_symmetry_Int_Tables_number       1
_space_group_crystal_system       triclinic
_cell_length_a                    19.056186
_cell_length_b                    10.953544
_cell_length_c                    18.777597
_cell_angle_alpha                 90.057989
_cell_angle_beta                  90.267505
_cell_angle_gamma                 89.943836
_cell_volume                      3919.45327881

loop_
_atom_site_label
_atom_site_type_symbol
_atom_site_description
_atom_site_fract_x
_atom_site_fract_y
_atom_site_fract_z
_atom_type_partial_charge
O1    O     O_R   0.784320 0.290430 0.830510 -0.515378
O2    O     O_R   0.215680 0.290430 0.169490 -0.522227
O3    O     O_R   0.284320 0.790430 0.830510 -0.525962
O4    O     O_R   0.715680 0.790430 0.169490 -0.516772
O5    O     O_R   0.762640 0.040960 0.825200 -0.502987
O6    O     O_R   0.237360 0.040960 0.174800 -0.510016
O7    O     O_R   0.262640 0.540960 0.825200 -0.510054
O8    O     O_R   0.737360 0.540960 0.174800 -0.501757
C1    C     C_R   0.725513 0.959392 0.855157 0.561365
C2    C     C_R   0.274494 0.959303 0.144853 0.544863
C3    C     C_R   0.227322 0.456033 0.853323 0.545545
C4    C     C_R   0.772647 0.455837 0.146730 0.561463
O9    O     O_R   0.667400 0.923970 0.829950 -0.510490
O10   O     O_R   0.332600 0.923970 0.170050 -0.520599
O11   O     O_R   0.167400 0.423970 0.829950 -0.516936
O12   O     O_R   0.832600 0.423970 0.170050 -0.510101
O13   O     O_R   0.553960 0.081340 0.821780 -0.496073
O14   O     O_R   0.446040 0.081340 0.178220 -0.496789
O15   O     O_R   0.053960 0.581340 0.821780 -0.492901
O16   O     O_R   0.946040 0.581340 0.178220 -0.489956
C5    C     C_R   0.529949 0.177678 0.850846 0.558183
C6    C     C_R   0.470246 0.177546 0.149281 0.551582
C7    C     C_R   0.029895 0.677639 0.850773 0.552488
C8    C     C_R   0.969865 0.677524 0.149061 0.560987
O17   O     O_R   0.543180 0.283240 0.826740 -0.507852
O18   O     O_R   0.456820 0.283240 0.173260 -0.511846
O19   O     O_R   0.043180 0.783240 0.826740 -0.515963
O20   O     O_R   0.956820 0.783240 0.173260 -0.511047
O21   O     O_R   0.678360 0.375140 0.822710 -0.493978
O22   O     O_R   0.321640 0.375140 0.177290 -0.502065
O23   O     O_R   0.178360 0.875140 0.822710 -0.503708
O24   O     O_R   0.821640 0.875140 0.177290 -0.497423
C9    C     C_R   0.736728 0.357657 0.854955 0.557119
C10   C     C_R   0.263306 0.357415 0.145015 0.546470
C11   C     C_R   0.238389 0.864903 0.852351 0.544485
C12   C     C_R   0.761519 0.864978 0.147720 0.555222
O25   O     O_R   0.785050 0.289380 0.670560 -0.471828
O26   O     O_R   0.214950 0.289380 0.329440 -0.460500
O27   O     O_R   0.285050 0.789380 0.670560 -0.461391
O28   O     O_R   0.714950 0.789380 0.329440 -0.472873
O29   O     O_R   0.763320 0.039990 0.676930 -0.471018
O30   O     O_R   0.236680 0.039990 0.323070 -0.489047
O31   O     O_R   0.263320 0.539990 0.676930 -0.476010
O32   O     O_R   0.736680 0.539990 0.323070 -0.469375
C13   C     C_R   0.709448 0.001876 0.639589 0.539968
C14   C     C_R   0.271692 0.953784 0.351953 0.557353
C15   C     C_R   0.227889 0.453332 0.647923 0.562102
C16   C     C_R   0.789972 0.500378 0.360730 0.533132
O33   O     O_R   0.668130 0.922920 0.670000 -0.453452
O34   O     O_R   0.331870 0.922920 0.330000 -0.498021
O35   O     O_R   0.168130 0.422920 0.670000 -0.494473
O36   O     O_R   0.831870 0.422920 0.330000 -0.466732
O37   O     O_R   0.554640 0.080370 0.673500 -0.514049
O38   O     O_R   0.445360 0.080370 0.326500 -0.492060
O39   O     O_R   0.054640 0.580370 0.673500 -0.494482
O40   O     O_R   0.945360 0.580370 0.326500 -0.490930
C17   C     C_R   0.564459 0.181012 0.637672 0.537994
C18   C     C_R   0.472276 0.176319 0.353799 0.563531
C19   C     C_R   0.026481 0.676757 0.646951 0.561584
C20   C     C_R   0.935195 0.681764 0.362424 0.540783
O41   O     O_R   0.543920 0.282180 0.666790 -0.453672
O42   O     O_R   0.456080 0.282180 0.333210 -0.461061
O43   O     O_R   0.043920 0.782180 0.666790 -0.466504
O44   O     O_R   0.956080 0.782180 0.333210 -0.454623
O45   O     O_R   0.679040 0.374160 0.674430 -0.466910
O46   O     O_R   0.320960 0.374160 0.325570 -0.451842
O47   O     O_R   0.179040 0.874160 0.674430 -0.450270
O48   O     O_R   0.820960 0.874160 0.325570 -0.470611
C21   C     C_R   0.742361 0.369005 0.649190 0.572585
C22   C     C_R   0.260576 0.362915 0.353859 0.569118
C23   C     C_R   0.239765 0.861799 0.645820 0.573601
C24   C     C_R   0.757924 0.868563 0.351272 0.564018
Cr1   Cr    Cr6+3 0.769270 0.163730 0.750710 1.082371
Cr2   Cr    Cr6+3 0.230730 0.163730 0.249290 1.079120
Cr3   Cr    Cr6+3 0.269270 0.663730 0.750710 1.081929
Cr4   Cr    Cr6+3 0.730730 0.663730 0.249290 1.081627
Cr5   Cr    Cr6+3 0.612620 0.009790 0.748780 1.067530
Cr6   Cr    Cr6+3 0.387380 0.009790 0.251220 1.079693
Cr7   Cr    Cr6+3 0.112620 0.509790 0.748780 1.084758
Cr8   Cr    Cr6+3 0.887380 0.509790 0.251220 1.080614
Cr9   Cr    Cr6+3 0.614160 0.322500 0.747710 1.097674
Cr10  Cr    Cr6+3 0.385840 0.322500 0.252290 1.111096
Cr11  Cr    Cr6+3 0.114160 0.822500 0.747710 1.107676
Cr12  Cr    Cr6+3 0.885840 0.822500 0.252290 1.094984
O49   O     O_3   0.665350 0.165340 0.749070 -0.329425
O50   O     O_3   0.334650 0.165340 0.250930 -0.286779
O51   O     O_3   0.165350 0.665340 0.749070 -0.284208
O52   O     O_3   0.834650 0.665340 0.250930 -0.327746
C25   C     C_2   0.497949 0.168887 0.921246 -0.106461
C26   C     C_2   0.502647 0.168686 0.079071 -0.101374
C27   C     C_2   0.997201 0.668481 0.920765 -0.104920
C28   C     C_2   0.001828 0.668126 0.078712 -0.109077
C29   C     C_2   0.493282 0.068925 0.038467 -0.163023
C30   C     C_2   0.507789 0.069125 0.961708 -0.165064
C31   C     C_2   0.990721 0.569239 0.037734 -0.157415
C32   C     C_2   0.007256 0.569083 0.961484 -0.155168
H1    H     H_    0.525167 0.251100 0.056552 0.113631
H2    H     H_    0.475256 0.251180 0.943902 0.112739
H3    H     H_    0.026036 0.749386 0.056542 0.106733
H4    H     H_    0.973331 0.750144 0.943010 0.107807
C33   C     C_R   0.698419 0.468714 0.963312 -0.138602
C34   C     C_R   0.300982 0.469588 0.037000 -0.139961
C35   C     C_R   0.191702 0.954732 0.963647 -0.142333
C36   C     C_R   0.807643 0.956795 0.036791 -0.141627
C37   C     C_R   0.703174 0.484629 0.036553 -0.134016
C38   C     C_R   0.296204 0.485821 0.963803 -0.132835
C39   C     C_R   0.198237 0.965441 0.037207 -0.147154
C40   C     C_R   0.801310 0.967399 0.963199 -0.146717
H5    H     H_    0.671702 0.555343 0.061150 0.138583
H6    H     H_    0.327128 0.557360 0.939483 0.138943
H7    H     H_    0.154203 0.998756 0.067942 0.123168
H8    H     H_    0.845068 0.002347 0.932770 0.123957
C41   C     C_R   0.751973 0.415735 0.076364 0.028511
C42   C     C_R   0.248040 0.416117 0.923697 0.029670
C43   C     C_R   0.261454 0.932183 0.070444 0.035123
C44   C     C_R   0.738644 0.932115 0.929558 0.033278
C45   C     C_R   0.791978 0.325495 0.043611 -0.136028
C46   C     C_R   0.208726 0.324843 0.956116 -0.136680
C47   C     C_R   0.318690 0.893980 0.029438 -0.131787
C48   C     C_R   0.681742 0.891671 0.970228 -0.132922
H9    H     H_    0.829232 0.270502 0.073362 0.137628
H10   H     H_    0.171984 0.269239 0.926107 0.135924
H11   H     H_    0.368712 0.870244 0.053202 0.129364
H12   H     H_    0.632122 0.866170 0.946210 0.129292
C49   C     C_R   0.788339 0.311581 0.971086 -0.125946
C50   C     C_R   0.212462 0.310451 0.028618 -0.124530
C51   C     C_R   0.313286 0.888806 0.956690 -0.132133
C52   C     C_R   0.686869 0.886610 0.042990 -0.131063
H13   H     H_    0.821249 0.241987 0.947386 0.140604
H14   H     H_    0.180188 0.239927 0.052098 0.141215
H15   H     H_    0.358512 0.857345 0.927008 0.135979
H16   H     H_    0.641873 0.853460 0.072332 0.138558
C53   C     C_R   0.742946 0.385127 0.930106 0.033318
C54   C     C_R   0.257131 0.384820 0.069881 0.034412
C55   C     C_R   0.248955 0.913227 0.923436 0.033121
C56   C     C_R   0.750740 0.913223 0.076648 0.033541
C57   C     C_R   0.564775 0.276882 0.517985 0.135257
C58   C     C_R   0.546803 0.272609 0.445978 0.169431
C59   C     C_R   0.955034 0.780863 0.554392 0.163315
C60   C     C_R   0.941977 0.786253 0.480845 0.128488
C61   C     C_R   0.512301 0.168260 0.419302 -0.006446
C62   C     C_R   0.552376 0.174474 0.561283 -0.046649
C63   C     C_R   0.945087 0.678279 0.439753 -0.046521
C64   C     C_R   0.983485 0.671541 0.582650 -0.011652
C65   C     C_R   0.505206 0.064055 0.461204 -0.118350
C66   C     C_R   0.525473 0.067400 0.531690 -0.165069
C67   C     C_R   0.960063 0.567526 0.472734 -0.140296
C68   C     C_R   0.982903 0.564609 0.542566 -0.113302
H17   H     H_    0.479406 0.982912 0.441029 0.223054
H18   H     H_    0.516951 0.988090 0.564303 0.218855
H19   H     H_    0.959368 0.484173 0.442589 0.215057
H20   H     H_    0.004298 0.480435 0.563623 0.222253
C69   C     C_R   0.825604 0.393161 0.547657 0.143294
C70   C     C_R   0.188724 0.368480 0.462292 0.162313
C71   C     C_R   0.306844 0.846141 0.533000 0.158818
C72   C     C_R   0.672718 0.902222 0.451129 0.153850
C73   C     C_R   0.827380 0.406453 0.474182 -0.128571
C74   C     C_R   0.186118 0.370563 0.535167 -0.084176
C75   C     C_R   0.304829 0.847897 0.460041 -0.099173
C76   C     C_R   0.667428 0.921817 0.524062 -0.110194
H21   H     H_    0.868873 0.362593 0.445104 0.225756
H22   H     H_    0.136725 0.344999 0.559461 0.218914
H23   H     H_    0.348037 0.805118 0.432181 0.231161
H24   H     H_    0.621730 0.888566 0.551506 0.216450
C77   C     C_R   0.780238 0.482419 0.438360 -0.078425
C78   C     C_R   0.242863 0.413996 0.575502 -0.055894
C79   C     C_R   0.254051 0.914771 0.423632 -0.066839
C80   C     C_R   0.718380 0.986861 0.561690 -0.080086
C81   C     C_R   0.732521 0.551337 0.478982 -0.127815
C82   C     C_R   0.304986 0.446538 0.541867 -0.110314
C83   C     C_R   0.199897 0.971525 0.461155 -0.120696
C84   C     C_R   0.770901 0.047047 0.522850 -0.132005
H25   H     H_    0.701211 0.621183 0.453334 0.195650
H26   H     H_    0.349610 0.473641 0.573638 0.218763
H27   H     H_    0.161134 0.024215 0.432669 0.223334
H28   H     H_    0.804286 0.112755 0.549393 0.199887
C85   C     C_R   0.724655 0.528691 0.552653 0.176523
C86   C     C_R   0.308094 0.450955 0.467507 0.153612
C87   C     C_R   0.198957 0.969030 0.535567 0.155680
C88   C     C_R   0.779519 0.023577 0.449372 0.165945
C89   C     C_R   0.765690 0.436590 0.584788 0.006660
C90   C     C_R   0.250514 0.405248 0.427037 -0.021228
C91   C     C_R   0.251311 0.901282 0.572277 -0.019277
C92   C     C_R   0.735427 0.937394 0.415787 -0.000540
H29   H     H_    0.473747 0.984865 0.061491 0.144150
H30   H     H_    0.527688 0.985291 0.938527 0.143971
H31   H     H_    0.968149 0.486597 0.059871 0.159077
H32   H     H_    0.029266 0.485934 0.939217 0.160032
N1    N     N_R   0.678883 0.603576 0.594871 0.101795
O53   O     O_R   0.691710 0.621051 0.662240 -0.307368
O54   O     O_R   0.629770 0.667432 0.564609 -0.273557
N2    N     N_R   0.367522 0.508295 0.434452 0.109293
O55   O     O_R   0.357995 0.581581 0.380743 -0.322207
O56   O     O_R   0.428140 0.509006 0.466579 -0.245506
N3    N     N_R   0.148080 0.042074 0.572823 0.094744
O57   O     O_R   0.166667 0.103282 0.629261 -0.331629
O58   O     O_R   0.087198 0.064644 0.544070 -0.243976
N4    N     N_R   0.829223 0.092477 0.408529 0.094126
O59   O     O_R   0.816173 0.119020 0.342234 -0.309472
O60   O     O_R   0.882797 0.143052 0.439499 -0.265038
H33   H     H_    0.661421 0.522791 0.932735 0.132863
H34   H     H_    0.337435 0.524370 0.067816 0.130417
H35   H     H_    0.141348 0.973262 0.938897 0.132299
H36   H     H_    0.857613 0.977153 0.061850 0.132413
N5    N     N_R   0.585894 0.390051 0.548862 -0.137559
O61   O     O_R   0.539012 0.471622 0.565138 -0.000253
O62   O     O_R   0.538889 0.471520 0.565102 -0.000253
N6    N     N_R   0.555286 0.378118 0.401397 -0.123797
O63   O     O_R   0.613939 0.439128 0.400740 -0.000640
O64   O     O_R   0.613848 0.439369 0.400587 -0.000641
N7    N     N_R   0.945069 0.884569 0.601228 -0.137247
O65   O     O_R   0.918821 0.987972 0.579869 -0.000157
O66   O     O_R   0.918845 0.987894 0.579912 -0.000157
N8    N     N_R   0.935526 0.901930 0.446587 -0.104030
O67   O     O_R   0.991216 0.967949 0.435155 -0.000360
O68   O     O_R   0.991072 0.967769 0.435177 -0.000360
N9    N     N_R   0.885793 0.340295 0.583700 0.079234
O69   O     O_R   0.931246 0.275855 0.548147 -0.264173
O70   O     O_R   0.904243 0.380178 0.646459 -0.321004
N10   N     N_R   0.125709 0.336985 0.424813 0.111003
O71   O     O_R   0.074081 0.415717 0.424262 -0.348644
O72   O     O_R   0.112009 0.222367 0.411516 -0.276339
N11   N     N_R   0.368694 0.794390 0.565064 0.113767
O73   O     O_R   0.429287 0.838702 0.547529 -0.331467
O74   O     O_R   0.367234 0.682996 0.588350 -0.288050
N12   N     N_R   0.613483 0.849834 0.413819 0.085302
O75   O     O_R   0.570184 0.777800 0.446874 -0.247163
O76   O     O_R   0.595018 0.892526 0.351794 -0.322347

loop_
_geom_bond_atom_site_label_1
_geom_bond_atom_site_label_2
_geom_bond_distance
_ccdc_geom_bond_type
C18   O42   1.260307 A    
Cr11  O51   1.977931 S    
C57   C62   1.406875 A    
O4    C12   1.265830 A    
O47   Cr11  1.939346 S    
C29   C30   1.468877 S    
O39   C19   1.283983 A    
O20   Cr12  2.057432 S    
C62   C66   1.394413 A    
C71   N11   1.437266 S    
C31   C32   1.467492 S    
C60   C63   1.412842 A    
C64   C68   1.391655 A    
O26   C22   1.269606 A    
C65   C66   1.377476 A    
C72   C92   1.423274 A    
O1    C9    1.255917 A    
C57   N5    1.425504 S    
N5    O61   1.300119 A    
O7    C3    1.265994 A    
C74   C78   1.400679 A    
O39   Cr7   1.950022 S    
C17   C62   1.453402 S    
C38   C42   1.409344 A    
N11   O74   1.296933 A    
C76   H24   1.077847 S    
C37   C41   1.409367 A    
C51   C55   1.398873 A    
C70   C74   1.369716 A    
O25   C21   1.256880 A    
C52   C56   1.399646 A    
C20   C63   1.463882 S    
C38   H6    1.083493 S    
C71   C91   1.426097 A    
O47   C23   1.285069 A    
C30   H30   1.084686 S    
O34   Cr6   2.057215 S    
C10   C54   1.446946 S    
C72   N12   1.444771 S    
O21   C9    1.278273 A    
O8    Cr4   1.943800 S    
O23   Cr11  1.948384 S    
O32   Cr4   1.941994 S    
O30   C14   1.275679 A    
C73   H21   1.075596 S    
C81   C85   1.414358 A    
C25   C30   1.344048 D    
N1    O54   1.297157 A    
C3    C42   1.445417 S    
C45   H9    1.084010 S    
O44   Cr12  2.068016 S    
C65   H17   1.083357 S    
C1    O9    1.263544 A    
C67   C68   1.380092 A    
C27   C32   1.344113 D    
C66   H18   1.076284 S    
C3    O11   1.271089 A    
C22   C90   1.463197 S    
O11   Cr7   2.069450 S    
C16   C77   1.483643 S    
C4    O12   1.270322 A    
C50   H14   1.083288 S    
O33   Cr5   2.054869 S    
N6    O63   1.302914 A    
C88   C92   1.410750 A    
N4    O59   1.301442 A    
O27   Cr3   2.063734 S    
C27   H4    1.087081 S    
O3    Cr3   2.060631 S    
Cr4   O52   1.980510 S    
C26   H1    1.086789 S    
C69   N9    1.449537 S    
C26   C29   1.343381 D    
O2    Cr2   2.062296 S    
C60   N8    1.426527 S    
N12   O76   1.302268 A    
C40   H8    1.083452 S    
C84   C88   1.413533 A    
C76   C80   1.394103 A    
O42   Cr10  2.068016 S    
Cr5   O49   1.978894 S    
O18   Cr10  2.057432 S    
O28   C24   1.260360 A    
C33   C37   1.388657 A    
C83   C87   1.397769 A    
C39   H7    1.083446 S    
C36   H36   1.083475 S    
C12   C56   1.449531 S    
C87   N3    1.439865 S    
Cr7   O51   1.978894 S    
N10   O71   1.307675 A    
Cr9   O49   1.977931 S    
O6    Cr2   1.943800 S    
C87   C91   1.419278 A    
N5    O62   1.300807 A    
C77   C81   1.408006 A    
O24   Cr12  1.948519 S    
O16   Cr8   1.939326 S    
O9    Cr5   2.069450 S    
O30   Cr2   1.941994 S    
C85   N1    1.437289 S    
C14   C79   1.453575 S    
O22   C10   1.278507 A    
C31   H31   1.086465 S    
O48   Cr12  1.937826 S    
C23   C91   1.465173 S    
C72   C76   1.390114 A    
C24   C92   1.490709 S    
N11   O73   1.297016 A    
C2    O10   1.262673 A    
C73   C77   1.394950 A    
C15   C78   1.455524 S    
C58   N6    1.437406 S    
N8    O67   1.303518 A    
O7    Cr3   1.945927 S    
O26   Cr2   2.061307 S    
C59   N7    1.448810 S    
N9    O69   1.302847 A    
Cr10  O50   1.979551 S    
C25   H2    1.086597 S    
C71   C75   1.370504 A    
C5    C25   1.461704 S    
C28   C31   1.344382 D    
O13   C5    1.273186 A    
C44   C48   1.401643 A    
C48   H12   1.082492 S    
O48   C24   1.298156 A    
O12   Cr8   2.068979 S    
N2    O56   1.300731 A    
O41   Cr9   2.067920 S    
O22   Cr10  1.948519 S    
C67   H19   1.073809 S    
O21   Cr9   1.948384 S    
C34   C54   1.396105 A    
C46   H10   1.084041 S    
O5    C1    1.273271 A    
C9    C53   1.446915 S    
O46   Cr10  1.937826 S    
C86   N2    1.439096 S    
C59   C64   1.416595 A    
O45   Cr9   1.939346 S    
N7    O65   1.300711 A    
O3    C11   1.265313 A    
O8    C4    1.265085 A    
Cr1   O49   1.980476 S    
C33   C53   1.396176 A    
C37   H5    1.083476 S    
O13   Cr5   1.937317 S    
C13   O33   1.304041 A    
C6    C26   1.461491 S    
N12   O75   1.302181 A    
C86   C90   1.422900 A    
O29   C13   1.308960 A    
Cr2   O50   1.980510 S    
O15   Cr7   1.937317 S    
O35   Cr7   2.054869 S    
C39   C43   1.402169 A    
C42   C46   1.392254 A    
C41   C45   1.392162 A    
Cr3   O51   1.980476 S    
O14   Cr6   1.939326 S    
N7    O66   1.299538 A    
C82   C86   1.398722 A    
C19   C64   1.457100 S    
C78   C82   1.391283 A    
O31   C15   1.284660 A    
C7    O19   1.268228 A    
C49   H13   1.083249 S    
O37   Cr5   1.950022 S    
C8    C28   1.460730 S    
C8    O20   1.268300 A    
C75   H23   1.083507 S    
C29   H29   1.084566 S    
C70   N10   1.431334 S    
O24   C12   1.275717 A    
C63   C67   1.391365 A    
C36   C40   1.391533 A    
O15   C7    1.272619 A    
O31   Cr3   1.940191 S    
C4    C41   1.445099 S    
O38   C18   1.275905 A    
O25   Cr1   2.063734 S    
C49   C53   1.408215 A    
O45   C21   1.299609 A    
C5    O17   1.268126 A    
C52   H16   1.084469 S    
O27   C23   1.259126 A    
C36   C56   1.404651 A    
O14   C6    1.273972 A    
C1    C44   1.449516 S    
C19   O43   1.257543 A    
O5    Cr1   1.945927 S    
C11   C55   1.448701 S    
C68   H20   1.082193 S    
C69   C89   1.421852 A    
N4    O60   1.297008 A    
C58   C61   1.409562 A    
O37   C17   1.306123 A    
O6    C2    1.272174 A    
C15   O35   1.258990 A    
C59   C60   1.403419 A    
C48   C52   1.370494 A    
C17   O41   1.296171 A    
C82   H26   1.078219 S    
C47   H11   1.082202 S    
N9    O70   1.303310 A    
C57   C58   1.394010 A    
C14   O34   1.265958 A    
C43   C47   1.401397 A    
O40   Cr8   1.949746 S    
C79   C83   1.397319 A    
N10   O72   1.306176 A    
C20   O44   1.293542 A    
C80   C84   1.406177 A    
O1    Cr1   2.060631 S    
N2    O55   1.301565 A    
C40   C44   1.402810 A    
C51   H15   1.084284 S    
O19   Cr11  2.058617 S    
C34   H34   1.083426 S    
N8    O68   1.300120 A    
Cr8   O52   1.977206 S    
O32   C16   1.308711 A    
C33   H33   1.083374 S    
C18   C61   1.446982 S    
O2    C10   1.256642 A    
O46   C22   1.275754 A    
Cr12  O52   1.979551 S    
C83   H27   1.077476 S    
C35   C55   1.404689 A    
C85   C89   1.410179 A    
C70   C90   1.412670 A    
O23   C11   1.274687 A    
C61   C65   1.394021 A    
C75   C79   1.390598 A    
C34   C38   1.388666 A    
C7    C27   1.460680 S    
O10   Cr6   2.068979 S    
C69   C73   1.388071 A    
N1    O53   1.301292 A    
C13   C80   1.482380 S    
C35   H35   1.083323 S    
O4    Cr4   2.062296 S    
C88   N4    1.436753 S    
C74   H22   1.085012 S    
O29   Cr1   1.940191 S    
N3    O57   1.301376 A    
O28   Cr4   2.061307 S    
C16   O36   1.300870 A    
O40   C20   1.313518 A    
C50   C54   1.407992 A    
N6    O64   1.302842 A    
Cr6   O50   1.977206 S    
C6    O18   1.268058 A    
O43   Cr11  2.067920 S    
C81   H25   1.081861 S    
C35   C39   1.391140 A    
C46   C50   1.372188 A    
N3    O58   1.300958 A    
O36   Cr8   2.057215 S    
C45   C49   1.371636 A    
C32   H32   1.086449 S    
O16   C8    1.272922 A    
O17   Cr9   2.058617 S    
C2    C43   1.448542 S    
C84   H28   1.080914 S    
C28   H3    1.087065 S    
C21   C89   1.488488 S    
O38   Cr6   1.949746 S    
C47   C51   1.370542 A    
