data_mof_unit_39742.cif
_audit_creation_date              2012-12-10T20:27:54-0500
_audit_creation_method            fapswitch 2.2
_symmetry_space_group_name_H-M    P1
_symmetry_Int_Tables_number       1
_space_group_crystal_system       triclinic
_cell_length_a                    12.91455
_cell_length_b                    10.620439
_cell_length_c                    9.887521
_cell_angle_alpha                 89.289146
_cell_angle_beta                  96.322247
_cell_angle_gamma                 91.46852
_cell_volume                      1347.40132502

loop_
_atom_site_label
_atom_site_type_symbol
_atom_type_description
_atom_site_fract_x
_atom_site_fract_y
_atom_site_fract_z
_atom_type_partial_charge
C1    C     C_R   0.511185 0.260500 0.502011 0.886852
C2    C     C_R   0.563028 0.935998 0.389913 -0.170254
C3    C     C_R   0.533052 0.871497 0.504379 -0.159147
C4    C     C_R   0.298432 0.501350 0.474226 0.900353
C5    C     C_R   0.539437 0.934452 0.627124 0.075808
C6    C     C_3   0.475415 0.923893 0.743345 -0.474025
C7    C     C_3   0.482360 0.066662 0.747720 0.210234
C8    C     C_R   0.412978 0.462084 0.059070 0.106933
C9    C     C_R   0.577060 0.560694 0.080814 0.407389
C10   C     C_R   0.578629 0.556672 0.937563 -0.146398
C11   C     C_R   0.412227 0.464896 0.916859 0.139250
C12   C     C_R   0.028519 0.485647 0.568150 0.162015
C13   C     C_3   0.352747 0.343530 0.901446 -0.507532
C14   C     C_3   0.356593 0.337526 0.055581 0.228380
C15   C     C_R   0.506275 0.740343 0.500250 0.904135
C16   C     C_R   0.701613 0.499039 0.526131 0.904907
C17   C     C_R   0.813361 0.495376 0.542414 -0.108962
C18   C     C_R   0.186729 0.505227 0.460444 -0.060707
C19   C     C_R   0.023734 0.538381 0.325185 -0.165294
C20   C     C_R   0.131111 0.536281 0.335807 -0.118997
C21   C     C_R   0.135838 0.480781 0.575621 -0.270022
C22   C     C_3   0.031540 0.435222 0.823231 -0.833682
C23   C     C_R   0.972527 0.513015 0.440280 0.122880
C24   C     C_3   0.611929 0.134803 0.272218 -0.714556
C25   C     C_R   0.865785 0.515683 0.428507 -0.238473
C26   C     C_R   0.867472 0.470335 0.670007 -0.176901
C27   C     C_R   0.975578 0.464222 0.684496 0.151267
C28   C     C_R   0.544467 0.062690 0.629152 0.115002
C29   C     C_R   0.542453 0.130718 0.507234 -0.179877
C30   C     C_R   0.572136 0.067542 0.391887 0.129815
Cl1   Cl    Cl    0.561956 0.122264 0.895508 -0.648406
Cl2   Cl    Cl    0.670489 0.657747 0.172710 -0.651587
Cl3   Cl    Cl    0.230465 0.344872 0.111462 -0.637509
H1    H     H_    0.823833 0.534003 0.329821 0.221322
H2    H     H_    0.170431 0.560055 0.247408 0.199604
H3    H     H_    0.180519 0.458525 0.671147 0.171239
H4    H     H_    0.574189 0.885715 0.298149 0.217762
H5    H     H_    0.395153 0.886566 0.712411 0.173628
H6    H     H_    0.976643 0.423130 0.901651 0.255624
H7    H     H_    0.074496 0.346346 0.819519 0.257715
H8    H     H_    0.086930 0.513547 0.855876 0.248700
H9    H     H_    0.546408 0.172449 0.203899 0.255555
H10   H     H_    0.667097 0.212425 0.307964 0.232664
H11   H     H_    0.654631 0.069867 0.212132 0.259906
H12   H     H_    0.517387 0.875858 0.832982 0.250396
H13   H     H_    0.405624 0.110985 0.722861 0.100145
H14   H     H_    0.642182 0.601586 0.891000 0.178580
H15   H     H_    0.273508 0.355233 0.848010 0.210816
H16   H     H_    0.397597 0.270499 0.858984 0.226602
H17   H     H_    0.403892 0.259966 0.102789 0.145110
H18   H     H_    0.825386 0.453946 0.757825 0.178740
H19   H     H_    0.980884 0.561164 0.227790 0.163889
N1    N     N_R   0.499290 0.499140 0.142710 -0.158416
N2    N     N_R   0.499290 0.499180 0.857070 -0.114152
O1    O     O_R   0.500010 0.316790 0.614690 -0.599020
O2    O     O_R   0.500000 0.316760 0.385350 -0.615269
O3    O     O_R   0.346360 0.499990 0.595720 -0.630711
O4    O     O_R   0.346350 0.499960 0.366370 -0.584423
O5    O     O_R   0.500000 0.683240 0.614650 -0.619716
O6    O     O_R   0.499990 0.683210 0.385310 -0.588335
O7    O     O_R   0.653650 0.500040 0.633630 -0.630771
O8    O     O_R   0.653640 0.500010 0.404280 -0.580629
Zn1   Zn    Zn3+2 0.500010 0.500020 0.653130 0.976240
Zn2   Zn    Zn3+2 0.499990 0.499980 0.346870 1.014314

loop_
_geom_bond_atom_site_label_1
_geom_bond_atom_site_label_2
_ccdc_geom_bond_type
C8    N1    A    
C4    O3    A    
C13   H15   S    
C19   C23   A    
C6    H5    S    
C6    C7    S    
C6    H12   S    
C5    C28   A    
C24   H9    S    
C15   O6    A    
O5    Zn1   S    
C19   C20   A    
C12   C23   A    
C22   H7    S    
O6    Zn2   S    
C25   H1    S    
C2    C30   A    
C17   C25   A    
C14   Cl3   S    
C1    C29   S    
C2    C3    A    
C1    O1    A    
C4    C18   S    
C21   H3    S    
C13   C14   S    
C11   C13   S    
C2    H4    S    
C26   C27   A    
C14   H17   S    
C11   N2    A    
C16   O8    A    
C8    C14   S    
C8    C11   A    
C13   H16   S    
C22   H6    S    
C12   C21   A    
C28   C29   A    
C1    O2    A    
O3    Zn1   S    
C18   C20   A    
C22   C27   S    
C23   C25   A    
O4    Zn2   S    
C5    C6    S    
C24   H11   S    
N1    Zn2   S    
C24   C30   S    
C22   H8    S    
C9    N1    A    
C16   O7    A    
C17   C26   A    
C10   N2    A    
C29   C30   A    
C18   C21   A    
C7    H13   S    
O2    Zn2   S    
C7    Cl1   S    
C9    C10   A    
C4    O4    A    
C10   H14   S    
O7    Zn1   S    
C24   H10   S    
N2    Zn1   S    
C3    C15   S    
O8    Zn2   S    
C12   C27   A    
C9    Cl2   S    
C26   H18   S    
C20   H2    S    
C15   O5    A    
C19   H19   S    
C7    C28   S    
C16   C17   S    
C3    C5    A    
O1    Zn1   S    
