data_mof_unit_41472.cif
_audit_creation_date              2012-10-26T21:17:40-0400
_audit_creation_method            fapswitch 2.2
_symmetry_space_group_name_H-M    P1
_symmetry_Int_Tables_number       1
_space_group_crystal_system       triclinic
_cell_length_a                    10.89359
_cell_length_b                    9.094373
_cell_length_c                    7.795008
_cell_angle_alpha                 90.003379
_cell_angle_beta                  90.000103
_cell_angle_gamma                 89.999951
_cell_volume                      772.254331363

loop_
_atom_site_label
_atom_site_type_symbol
_atom_type_description
_atom_site_fract_x
_atom_site_fract_y
_atom_site_fract_z
_atom_type_partial_charge
Br1   Br    Br    0.229805 0.662203 0.919968 -0.464053
Br2   Br    Br    0.770191 0.662199 0.919971 -0.464052
C1    C     C_R   0.500000 0.220065 0.499983 0.549161
C2    C     C_R   0.064842 0.524895 0.674563 0.027300
C3    C     C_R   0.128908 0.540031 0.515773 0.002031
C4    C     C_R   0.871092 0.540031 0.515774 0.002031
C5    C     C_R   0.063702 0.579152 0.368639 -0.156261
C6    C     C_R   0.936297 0.579152 0.368639 -0.156261
C7    C     C_1   0.500000 0.065370 0.500014 -0.020339
C8    C     C_1   0.500000 0.934610 0.500028 -0.007412
C9    C     C_R   0.500000 0.779942 0.499993 0.563198
C10   C     C_R   0.261981 0.513287 0.502539 0.548347
C11   C     C_R   0.738019 0.513288 0.502539 0.548348
C12   C     C_R   0.124125 0.507941 0.835836 0.184734
C13   C     C_R   0.875876 0.507941 0.835837 0.184734
C14   C     C_R   0.063669 0.431277 0.965307 -0.127408
C15   C     C_R   0.936333 0.431277 0.965307 -0.127408
C16   C     C_R   0.935158 0.524896 0.674564 0.027300
Cu1   Cu    Cu3+1 0.500000 0.500000 0.669080 1.117270
Cu2   Cu    Cu3+1 0.500000 0.500000 0.330920 1.086882
H1    H     H_    0.111729 0.607282 0.252180 0.182499
H2    H     H_    0.888269 0.607283 0.252181 0.182500
H3    H     H_    0.112104 0.399848 0.080687 0.144864
H4    H     H_    0.887899 0.399848 0.080689 0.144864
N1    N     N_1   0.500000 0.500000 0.076820 -0.036083
N2    N     N_1   0.500000 0.500000 0.923180 -0.020835
O1    O     O_R   0.500000 0.288390 0.642760 -0.500304
O2    O     O_R   0.500000 0.711610 0.642760 -0.458867
O3    O     O_R   0.500000 0.288370 0.357190 -0.501583
O4    O     O_R   0.500000 0.711630 0.357190 -0.485446
O5    O     O_R   0.319650 0.500000 0.642810 -0.479515
O6    O     O_R   0.680350 0.500000 0.642810 -0.479515
O7    O     O_R   0.319630 0.500000 0.357240 -0.505361
O8    O     O_R   0.680370 0.500000 0.357240 -0.505360

loop_
_geom_bond_atom_site_label_1
_geom_bond_atom_site_label_2
_ccdc_geom_bond_type
C13   C16   A    
C6    H2    S    
Cu1   O2    S    
Cu1   O1    S    
C7    C8    T    
C11   O6    A    
Cu1   Cu2   S    
C2    C16   A    
C1    O1    A    
N1    N2    T    
Cu1   O5    S    
C5    C6    A    
Cu2   O4    S    
C4    C11   S    
Br2   C13   S    
C9    O2    A    
C1    C7    S    
Cu2   O7    S    
C14   H3    S    
C3    C5    A    
Cu2   O3    S    
C10   O5    A    
C2    C12   A    
C4    C16   A    
C12   C14   A    
C15   H4    S    
Cu2   N1    S    
Cu1   O6    S    
Cu2   O8    S    
C11   O8    A    
C3    C10   S    
C1    O3    A    
C8    C9    S    
C13   C15   A    
Cu1   N2    S    
C2    C3    A    
C4    C6    A    
Br1   C12   S    
C10   O7    A    
C5    H1    S    
C9    O4    A    
C14   C15   A    
