data_mof_unit_13688.cif
_audit_creation_date              2012-12-11T14:29:23-0500
_audit_creation_method            fapswitch 2.2
_symmetry_space_group_name_H-M    P1
_symmetry_Int_Tables_number       1
_space_group_crystal_system       triclinic
_cell_length_a                    6.942373
_cell_length_b                    14.807176
_cell_length_c                    16.174373
_cell_angle_alpha                 90.411853
_cell_angle_beta                  89.768607
_cell_angle_gamma                 89.964003
_cell_volume                      1662.61915942

loop_
_atom_site_label
_atom_site_type_symbol
_atom_type_description
_atom_site_fract_x
_atom_site_fract_y
_atom_site_fract_z
_atom_type_partial_charge
O1    O     O_R   0.494400 0.416610 0.413880 -0.542746
O2    O     O_R   0.823920 0.406790 0.585520 -0.539884
O3    O     O_R   0.994250 0.583390 0.586120 -0.539539
C1    C     C_R   0.654457 0.386182 0.614423 0.749011
O4    O     O_R   0.824110 0.405730 0.414490 -0.540918
O5    O     O_R   0.994440 0.582310 0.413870 -0.541110
C2    C     C_R   0.655056 0.383710 0.386321 0.744309
O6    O     O_R   0.494210 0.417690 0.586130 -0.544376
O7    O     O_3   0.660810 0.557940 0.500000 -0.371724
V1    V     V_3+5 0.935650 0.489250 0.500000 1.413919
O8    O     O_R   0.324160 0.593210 0.414480 -0.544704
C3    C     C_R   0.155573 0.615013 0.386367 0.735260
O9    O     O_R   0.323970 0.594270 0.585510 -0.537436
C4    C     C_R   0.154606 0.615516 0.614324 0.692564
V2    V     V_3+5 0.435660 0.510750 0.500000 1.414684
O10   O     O_3   0.160630 0.442060 0.500000 -0.372540
H1    H     H_    0.875690 0.893166 0.507754 0.126916
C5    C     C_R   0.274830 0.574830 0.780907 -0.144000
C6    C     C_R   0.330153 0.552129 0.860763 -0.122013
C7    C     C_R   0.315351 0.615271 0.924378 -0.117304
C8    C     C_R   0.246487 0.701798 0.908506 -0.133529
C9    C     C_R   0.191758 0.727566 0.827684 0.063151
C10   C     C_R   0.204748 0.662276 0.762771 0.072076
C11   C     C_R   0.125142 0.816525 0.811281 -0.179763
C12   C     C_R   0.073524 0.840395 0.728674 0.035985
C13   C     C_R   0.068661 0.771487 0.666137 0.052521
C14   C     C_R   0.142345 0.684044 0.682133 -0.171238
C15   C     C_R   0.029956 0.930753 0.704003 0.122328
C16   C     C_R   0.952794 0.947630 0.625981 -0.106527
C17   C     C_R   0.932045 0.878689 0.568564 -0.158762
C18   C     C_R   0.995477 0.792418 0.586981 -0.139004
H2    H     H_    0.286054 0.522709 0.733916 0.103600
H3    H     H_    0.383303 0.484901 0.873449 0.114665
H4    H     H_    0.357103 0.597093 0.986496 0.112417
H5    H     H_    0.236870 0.747904 0.960512 0.097434
H6    H     H_    0.916936 0.015877 0.607932 0.143831
H7    H     H_    0.986782 0.742724 0.537892 0.119603
C19   C     C_2   0.985508 0.709787 0.283267 -0.134376
C20   C     C_2   0.150501 0.682811 0.319541 -0.311563
H8    H     H_    0.849653 0.681694 0.304426 0.136935
H9    H     H_    0.288001 0.710351 0.300564 0.128456
C21   C     C_2   0.972920 0.777273 0.215296 -0.134390
C22   C     C_2   0.125988 0.814445 0.177041 -0.308004
H10   H     H_    0.828964 0.796334 0.195966 0.134121
H11   H     H_    0.271031 0.795983 0.194540 0.128878
C23   C     C_2   0.774517 0.226037 0.796090 -0.118103
C24   C     C_2   0.614306 0.179895 0.816770 -0.289907
H12   H     H_    0.905128 0.215400 0.831347 0.159286
H13   H     H_    0.480669 0.190506 0.784050 0.153338
C25   C     C_2   0.788858 0.290380 0.725834 -0.118271
C26   C     C_2   0.637002 0.320984 0.682749 -0.313255
H14   H     H_    0.932181 0.314531 0.710415 0.141318
H15   H     H_    0.491934 0.300922 0.699186 0.135120
C27   C     C_2   0.778869 0.208952 0.213720 -0.129825
C28   C     C_2   0.613714 0.181831 0.177405 -0.307497
H16   H     H_    0.914612 0.180263 0.192634 0.136541
H17   H     H_    0.476246 0.209809 0.196325 0.126806
C29   C     C_2   0.791697 0.277386 0.281650 -0.136154
C30   C     C_2   0.638578 0.315486 0.319567 -0.306477
H18   H     H_    0.935661 0.296350 0.301233 0.135337
H19   H     H_    0.493520 0.297168 0.301827 0.129315
O11   O     O_R   0.770210 0.079270 0.910680 -0.526993
O12   O     O_R   0.440150 0.091160 0.082270 -0.548931
O13   O     O_R   0.269970 0.914530 0.082860 -0.546851
C31   C     C_R   0.608629 0.113252 0.110497 0.727549
O14   O     O_R   0.440480 0.090100 0.911240 -0.530852
O15   O     O_R   0.270310 0.913460 0.910610 -0.527858
C32   C     C_R   0.609399 0.112810 0.884004 0.783432
O16   O     O_R   0.769870 0.080340 0.082930 -0.542331
O17   O     O_3   0.603660 0.938980 0.996790 -0.372938
V3    V     V_3+5 0.328750 0.007610 0.996740 1.443426
O18   O     O_R   0.940600 0.902510 0.911180 -0.532408
C33   C     C_R   0.110042 0.882509 0.881170 0.757464
O19   O     O_R   0.940270 0.903570 0.082200 -0.543462
C34   C     C_R   0.109396 0.881881 0.110348 0.724205
V4    V     V_3+5 0.828770 0.986010 0.996670 1.450020
O20   O     O_3   0.103730 0.054750 0.996710 -0.365668
I1    I     I_    0.119144 0.051336 0.764001 -0.452589

loop_
_geom_bond_atom_site_label_1
_geom_bond_atom_site_label_2
_ccdc_geom_bond_type
O14   C32   A    
O12   C31   A    
C6    C7    A    
O18   V4    S    
C24   H13   S    
C12   C15   A    
C16   H6    S    
C13   C14   A    
O19   V4    S    
C15   C16   A    
C19   C21   S    
O5    C3    A    
C17   C18   A    
C11   C33   S    
C29   H18   S    
V2    O10   S    
O16   V4    S    
C5    C6    A    
O13   V3    S    
C23   C24   D    
O8    V2    S    
C25   H14   S    
O17   V3    S    
O15   C33   A    
C10   C14   A    
C4    C14   S    
C15   I1    S    
O7    V1    S    
C1    O6    A    
C7    H4    S    
C13   C18   A    
O9    C4    A    
H1    C17   S    
O11   V4    S    
C21   H10   S    
C2    C30   S    
C28   C31   S    
C23   H12   S    
C22   C34   S    
C27   H16   S    
C30   H19   S    
O19   C34   A    
C1    C26   S    
C5    C10   A    
V4    O20   S    
C20   H9    S    
C6    H3    S    
O4    C2    A    
C12   C13   A    
C18   H7    S    
C26   H15   S    
O2    C1    A    
C16   C17   A    
O14   V3    S    
C25   C26   D    
C11   C12   A    
C22   H11   S    
O3    C4    A    
O1    V2    S    
O12   V3    S    
O6    V2    S    
C28   H17   S    
O17   V4    S    
C9    C11   A    
C5    H2    S    
C21   C22   D    
O2    V1    S    
C24   C32   S    
V3    O20   S    
C27   C29   S    
C27   C28   D    
O1    C2    A    
O18   C33   A    
O5    V1    S    
O8    C3    A    
C8    H5    S    
C23   C25   S    
O11   C32   A    
C3    C20   S    
O9    V2    S    
C29   C30   D    
O4    V1    S    
O3    V1    S    
V1    O10   S    
C19   H8    S    
C19   C20   D    
C31   O16   A    
O13   C34   A    
O15   V3    S    
O7    V2    S    
C7    C8    A    
C9    C10   A    
C8    C9    A    
