data_mof_unit_62246.cif
_audit_creation_date              2012-12-10T18:27:59-0500
_audit_creation_method            fapswitch 2.2
_symmetry_space_group_name_H-M    P1
_symmetry_Int_Tables_number       1
_space_group_crystal_system       triclinic
_cell_length_a                    18.162289
_cell_length_b                    18.162843
_cell_length_c                    18.176812
_cell_angle_alpha                 90.225754
_cell_angle_beta                  119.859132
_cell_angle_gamma                 119.853423
_cell_volume                      4249.95115033

loop_
_atom_site_label
_atom_site_type_symbol
_atom_type_description
_atom_site_fract_x
_atom_site_fract_y
_atom_site_fract_z
_atom_type_partial_charge
C1    C     C_R   0.782561 0.641296 0.641162 0.495428
C2    C     C_3   0.059586 0.199176 0.279661 -0.229462
C3    C     C_3   0.101842 0.300455 0.300922 0.071162
C4    C     C_R   0.217400 0.358587 0.358698 0.496115
C5    C     C_3   0.898087 0.198582 0.199049 0.071270
C6    C     C_3   0.939999 0.259237 0.150679 -0.234535
C7    C     C_3   0.940413 0.139592 0.220080 -0.229218
C8    C     C_3   0.608573 0.319219 0.759194 -0.234711
C9    C     C_3   0.608580 0.259224 0.819243 -0.234583
C10   C     C_3   0.469919 0.319515 0.759395 -0.234281
C11   C     C_3   0.419591 0.199172 0.639666 -0.229529
C12   C     C_3   0.569744 0.766887 0.836678 -0.109396
C13   C     C_3   0.499505 0.300437 0.698562 0.071388
C14   C     C_3   0.499516 0.198606 0.800469 0.071331
C15   C     C_3   0.469931 0.259518 0.819442 -0.234816
C16   C     C_R   0.499880 0.641300 0.358696 0.496048
C17   C     C_3   0.419595 0.139610 0.699268 -0.229034
C18   C     C_3   0.939866 0.789460 0.759420 -0.234336
C19   C     C_3   0.059908 0.849467 0.819468 -0.234815
C20   C     C_3   0.939911 0.650582 0.759164 -0.234717
C21   C     C_3   0.940471 0.720080 0.639667 -0.229431
C22   C     C_3   0.898095 0.699051 0.698562 0.071350
C23   C     C_3   0.594953 0.792811 0.767187 -0.125794
C24   C     C_3   0.101824 0.800897 0.800468 0.071348
C25   C     C_3   0.059955 0.710597 0.819215 -0.234591
C26   C     C_3   0.059633 0.779650 0.699270 -0.229067
C27   C     C_3   0.469905 0.319396 0.210748 -0.235456
C28   C     C_R   0.499885 0.358579 0.641162 0.495601
C29   C     C_3   0.469840 0.259228 0.150592 -0.235459
C30   C     C_3   0.608615 0.319256 0.349323 -0.235492
C31   C     C_3   0.419398 0.199248 0.279813 -0.230079
C32   C     C_3   0.499493 0.300347 0.300840 0.073893
C33   C     C_3   0.499389 0.198584 0.199098 0.073880
C34   C     C_3   0.525607 0.827761 0.732772 -0.125925
C35   C     C_3   0.608554 0.259088 0.289173 -0.235425
C36   C     C_3   0.419337 0.139578 0.220153 -0.230119
C37   C     C_3   0.608520 0.789327 0.349280 -0.234562
C38   C     C_3   0.608514 0.849334 0.289247 -0.234855
C39   C     C_3   0.470048 0.650449 0.210584 -0.234837
C40   C     C_R   0.499938 0.358311 0.358405 0.497446
C41   C     C_3   0.419465 0.720330 0.279880 -0.229274
C42   C     C_3   0.499495 0.699048 0.300914 0.071334
C43   C     C_3   0.499486 0.800888 0.199031 0.071194
C44   C     C_3   0.470047 0.710459 0.150552 -0.234144
C45   C     C_3   0.430174 0.733064 0.663294 -0.109565
C46   C     C_3   0.419460 0.779899 0.220287 -0.229413
C47   C     C_R   0.499853 0.141183 0.858593 0.495524
C48   C     C_R   0.499834 0.858649 0.141257 0.496105
C49   C     C_R   0.782531 0.141173 0.141271 0.495930
C50   C     C_R   0.217365 0.858662 0.858594 0.495675
C51   C     C_R   0.499760 0.141431 0.141543 0.497270
C52   C     C_R   0.499844 0.641616 0.641537 0.501795
C53   C     C_R   0.500081 0.858347 0.858430 0.501932
C54   C     C_3   0.474311 0.672188 0.767200 -0.125759
C55   C     C_3   0.404966 0.707140 0.732786 -0.125864
C56   C     C_3   0.499583 0.698976 0.698634 0.067419
C57   C     C_3   0.500336 0.800976 0.801338 0.067361
C58   C     C_3   0.059893 0.319494 0.349408 -0.234102
C59   C     C_3   0.939844 0.259473 0.289387 -0.234838
C60   C     C_3   0.060047 0.319258 0.210701 -0.234804
H1    H     H_    0.327081 0.673018 0.719683 0.101983
H2    H     H_    0.911084 0.216735 0.085684 0.102276
H3    H     H_    0.667700 0.391318 0.802610 0.127684
H4    H     H_    0.453281 0.607411 0.780311 0.102063
H5    H     H_    0.631158 0.305662 0.716734 0.101130
H6    H     H_    0.631175 0.216699 0.805784 0.101781
H7    H     H_    0.667698 0.302733 0.891272 0.127452
H8    H     H_    0.526077 0.391618 0.802821 0.128973
H9    H     H_    0.526097 0.303030 0.891475 0.127613
H10   H     H_    0.340214 0.183422 0.595463 0.125026
H11   H     H_    0.438973 0.183210 0.595321 0.125119
H12   H     H_    0.911213 0.302972 0.276651 0.127562
H13   H     H_    0.438973 0.095198 0.683378 0.126676
H14   H     H_    0.340213 0.095408 0.683519 0.125172
H15   H     H_    0.391626 0.306177 0.717081 0.101662
H16   H     H_    0.627081 0.781566 0.908690 0.119862
H17   H     H_    0.391643 0.217207 0.806123 0.101144
H18   H     H_    0.911183 0.776718 0.802843 0.128857
H19   H     H_    0.910911 0.825460 0.717124 0.101603
H20   H     H_    0.088922 0.914445 0.806170 0.101162
H21   H     H_    0.088424 0.865312 0.891501 0.127318
H22   H     H_    0.911223 0.634861 0.802578 0.127647
H23   H     H_    0.088624 0.391354 0.223605 0.127205
H24   H     H_    0.088468 0.723488 0.891242 0.127220
H25   H     H_    0.912073 0.656357 0.595303 0.125463
H26   H     H_    0.912040 0.755277 0.595484 0.125259
H27   H     H_    0.088106 0.843293 0.683541 0.125218
H28   H     H_    0.672837 0.826930 0.780288 0.101949
H29   H     H_    0.088139 0.744374 0.683362 0.126785
H30   H     H_    0.910992 0.585542 0.716682 0.101153
H31   H     H_    0.089004 0.674536 0.805736 0.101872
H32   H     H_    0.526142 0.391433 0.223621 0.127970
H33   H     H_    0.391626 0.306109 0.175011 0.101214
H34   H     H_    0.911372 0.302732 0.134981 0.127326
H35   H     H_    0.391529 0.216788 0.085710 0.101135
H36   H     H_    0.526043 0.302541 0.134741 0.128074
H37   H     H_    0.667791 0.391290 0.365131 0.127859
H38   H     H_    0.667711 0.302399 0.276272 0.128038
H39   H     H_    0.438777 0.183483 0.343422 0.125562
H40   H     H_    0.546638 0.892537 0.719659 0.101860
H41   H     H_    0.340037 0.183585 0.244779 0.125630
H42   H     H_    0.339952 0.095355 0.156557 0.125699
H43   H     H_    0.438691 0.095252 0.255202 0.125613
H44   H     H_    0.631075 0.305868 0.414225 0.101170
H45   H     H_    0.088104 0.183234 0.244440 0.125229
H46   H     H_    0.630984 0.216548 0.324932 0.101136
H47   H     H_    0.667717 0.776400 0.364983 0.127136
H48   H     H_    0.631010 0.825415 0.414270 0.102248
H49   H     H_    0.630996 0.914397 0.325246 0.101274
H50   H     H_    0.667706 0.865001 0.276343 0.127120
H51   H     H_    0.526286 0.634552 0.223326 0.127545
H52   H     H_    0.372836 0.718384 0.591283 0.119707
H53   H     H_    0.526290 0.723166 0.134696 0.128876
H54   H     H_    0.340115 0.656701 0.244753 0.125101
H55   H     H_    0.438741 0.755622 0.343546 0.126766
H56   H     H_    0.088003 0.183407 0.343245 0.124994
H57   H     H_    0.438731 0.843638 0.255495 0.125288
H58   H     H_    0.340104 0.744721 0.156701 0.125259
H59   H     H_    0.391787 0.585494 0.174660 0.101240
H60   H     H_    0.391785 0.674483 0.085638 0.102233
H61   H     H_    0.088463 0.391593 0.365268 0.128862
H62   H     H_    0.088835 0.306146 0.414322 0.102181
H63   H     H_    0.910818 0.217143 0.325318 0.101161
H64   H     H_    0.911920 0.095375 0.255215 0.124985
H65   H     H_    0.912025 0.095197 0.156411 0.126795
H66   H     H_    0.089099 0.305737 0.174689 0.101332
O1    O     O_3   0.500000 0.500000 0.500000 -0.425617
O2    O     O_R   0.266230 0.883210 0.944500 -0.552529
O3    O     O_R   0.561150 0.178510 0.117240 -0.553110
O4    O     O_R   0.733670 0.616970 0.678220 -0.551455
O5    O     O_R   0.438720 0.882700 0.821420 -0.546009
O6    O     O_R   0.438610 0.055960 0.117240 -0.555276
O7    O     O_R   0.561250 0.882700 0.943960 -0.550709
O8    O     O_R   0.733630 0.055440 0.116700 -0.553591
O9    O     O_R   0.266260 0.883000 0.821740 -0.553500
O10   O     O_R   0.561190 0.178210 0.944500 -0.552351
O11   O     O_R   0.438650 0.883210 0.116920 -0.554278
O12   O     O_R   0.438720 0.616970 0.383270 -0.553588
O13   O     O_R   0.266300 0.444520 0.383270 -0.551602
O14   O     O_R   0.561280 0.616750 0.383040 -0.552326
O15   O     O_R   0.438750 0.321760 0.555460 -0.554572
O16   O     O_R   0.561320 0.444010 0.382720 -0.553098
O17   O     O_R   0.561210 0.617270 0.678540 -0.545812
O18   O     O_R   0.438790 0.321460 0.382720 -0.555350
O19   O     O_R   0.438680 0.617270 0.556010 -0.550796
O20   O     O_R   0.561250 0.444520 0.678220 -0.551373
O21   O     O_R   0.733700 0.616750 0.555460 -0.554422
O22   O     O_R   0.266330 0.321760 0.383040 -0.554325
O23   O     O_3   0.499930 0.999970 0.999970 -0.425605
O24   O     O_R   0.438680 0.055440 0.821740 -0.553561
O25   O     O_R   0.561210 0.883000 0.116700 -0.551651
O26   O     O_R   0.733610 0.178210 0.116920 -0.552211
Zn1   Zn    Zn3+2 0.412450 0.543930 0.456390 0.909635
Zn2   Zn    Zn3+2 0.587550 0.543620 0.456070 0.904475
Zn3   Zn    Zn3+2 0.412480 0.368530 0.456070 0.902823
Zn4   Zn    Zn3+2 0.587520 0.543930 0.631470 0.911924
Zn5   Zn    Zn3+2 0.587490 0.956040 0.043570 0.909643
Zn6   Zn    Zn3+2 0.587450 0.131440 0.043900 0.905295
Zn7   Zn    Zn3+2 0.412380 0.956350 0.043900 0.903625
Zn8   Zn    Zn3+2 0.412420 0.956040 0.868500 0.910280

loop_
_geom_bond_atom_site_label_1
_geom_bond_atom_site_label_2
_ccdc_geom_bond_type
C49   O8    A    
C52   O19   A    
C20   H22   S    
C47   O10   A    
C27   C29   S    
C41   C42   S    
C2    C7    S    
C41   H54   S    
C21   C26   S    
O1    Zn1   S    
C51   O3    A    
C11   H10   S    
C23   C56   S    
C26   H29   S    
C12   C23   S    
C8    C13   S    
C45   H52   S    
C48   O11   A    
C36   H43   S    
O25   Zn5   S    
C24   C26   S    
C37   H47   S    
C40   O16   A    
C50   O9    A    
C31   C36   S    
C5    C6    S    
C60   H23   S    
C11   H11   S    
C20   C25   S    
C44   H60   S    
C4    O22   A    
C29   C33   S    
C33   C36   S    
C46   H58   S    
C36   H42   S    
C18   C19   S    
C26   H27   S    
C37   C42   S    
O21   Zn2   S    
C9    H6    S    
C21   H26   S    
C2    H56   S    
C45   C56   S    
C18   H19   S    
C6    H34   S    
C25   H24   S    
C34   H40   S    
C41   C46   S    
C13   C28   S    
C53   O5    A    
O22   Zn3   S    
C31   H39   S    
C38   H50   S    
C35   H38   S    
C43   C48   S    
C7    H64   S    
C16   O12   A    
C59   H12   S    
O19   Zn1   S    
C3    C60   S    
C39   H51   S    
C1    C22   S    
C21   C22   S    
C17   H13   S    
C14   C17   S    
C5    C49   S    
C16   O14   A    
C41   H55   S    
O1    Zn2   S    
O3    Zn6   S    
O23   Zn8   S    
C39   C42   S    
C54   C56   S    
C59   H63   S    
C15   H9    S    
C21   H25   S    
C58   H62   S    
O6    Zn7   S    
C25   H31   S    
C5    C59   S    
C52   O17   A    
C6    C60   S    
C53   O7    A    
C24   C25   S    
C37   H48   S    
C1    O4    A    
O1    Zn3   S    
C29   H35   S    
O11   Zn7   S    
C8    C9    S    
C58   C59   S    
C20   H30   S    
C7    H65   S    
C46   H57   S    
C9    C14   S    
C9    H7    S    
C37   C38   S    
C34   C57   S    
C10   H15   S    
C31   C32   S    
C30   H37   S    
C47   O24   A    
C18   H18   S    
C23   C34   S    
C27   H32   S    
C34   C45   S    
O16   Zn2   S    
C38   H49   S    
O23   Zn7   S    
C24   C50   S    
C39   C44   S    
O24   Zn8   S    
O26   Zn6   S    
C12   C57   S    
C30   C35   S    
O12   Zn1   S    
C20   C22   S    
C44   H53   S    
C23   H28   S    
C55   C57   S    
C43   C44   S    
C17   H14   S    
C1    O21   A    
C50   O2    A    
C3    C4    S    
C31   H41   S    
C12   H16   S    
C5    C7    S    
O23   Zn6   S    
C54   C55   S    
C11   C17   S    
C58   H61   S    
C53   C57   S    
O9    Zn8   S    
C49   O26   A    
C27   C32   S    
C18   C22   S    
C16   C42   S    
O15   Zn3   S    
C10   C13   S    
O1    Zn4   S    
C29   H36   S    
C51   O6    A    
C14   C47   S    
C10   H8    S    
C33   C51   S    
C2    H45   S    
C28   O20   A    
C10   C15   S    
C6    H2    S    
O18   Zn3   S    
C40   O18   A    
C2    C3    S    
O10   Zn6   S    
C38   C43   S    
C35   H46   S    
C4    O13   A    
C30   C32   S    
C11   C13   S    
O17   Zn4   S    
C15   H17   S    
C54   H4    S    
C39   H59   S    
C55   H1    S    
C60   H66   S    
C33   C35   S    
C19   C24   S    
O7    Zn5   S    
C32   C40   S    
C19   H20   S    
C43   C46   S    
C27   H33   S    
C8    H3    S    
C3    C58   S    
C8    H5    S    
O8    Zn5   S    
O20   Zn4   S    
C45   C55   S    
C48   O25   A    
C30   H44   S    
O13   Zn1   S    
C14   C15   S    
O4    Zn4   S    
C28   O15   A    
C19   H21   S    
O23   Zn5   S    
O5    Zn8   S    
C12   C54   S    
C52   C56   S    
O2    Zn7   S    
O14   Zn2   S    
