data_mof_unit_32067.cif
_audit_creation_date              2012-12-11T17:57:05-0500
_audit_creation_method            fapswitch 2.2
_symmetry_space_group_name_H-M    P1
_symmetry_Int_Tables_number       1
_space_group_crystal_system       triclinic
_cell_length_a                    8.242931
_cell_length_b                    12.803053
_cell_length_c                    17.198608
_cell_angle_alpha                 98.531364
_cell_angle_beta                  96.413031
_cell_angle_gamma                 99.206598
_cell_volume                      1754.70873972

loop_
_atom_site_label
_atom_site_type_symbol
_atom_type_description
_atom_site_fract_x
_atom_site_fract_y
_atom_site_fract_z
_atom_type_partial_charge
Ba1   Ba    Ba6+2 0.843240 0.548600 0.461650 1.680188
Ba2   Ba    Ba6+2 0.346590 0.451490 0.538360 1.681887
C1    C     C_3   0.603138 0.897395 0.215899 -0.399778
C2    C     C_3   0.345767 0.572505 0.226910 -0.026863
C3    C     C_2   0.289764 0.549370 0.138956 -0.134123
C4    C     C_3   0.075936 0.759545 0.244055 0.366430
C5    C     C_2   0.138732 0.488748 0.110795 0.020257
C6    C     C_2   0.042806 0.435449 0.167981 -0.137773
C7    C     C_1   0.110284 0.442497 0.242998 -0.039819
C8    C     C_R   0.882192 0.463219 0.862177 -0.134379
C9    C     C_R   0.817080 0.449484 0.782200 -0.002168
C10   C     C_R   0.076391 0.543889 0.752640 0.067479
C11   C     C_R   0.141967 0.558853 0.833192 -0.099069
C12   C     C_3   0.605239 0.807796 0.264250 0.344307
C13   C     C_R   0.046821 0.516331 0.888351 0.020468
C14   C     C_2   0.067151 0.470816 0.025331 -0.084671
C15   C     C_2   0.119889 0.533731 0.973210 -0.076249
C16   C     C_3   0.057543 0.787616 0.161050 -0.349808
C17   C     C_R   0.915480 0.487031 0.727512 -0.266862
C18   C     C_R   0.773524 0.182905 0.532533 -0.255547
C19   C     C_R   0.429110 0.806643 0.463471 -0.277229
C20   C     C_R   0.392248 0.984264 0.442506 -0.102884
C21   C     C_R   0.330115 0.875064 0.434735 -0.006889
C22   C     C_R   0.585666 0.847469 0.507543 0.069673
C23   C     C_3   0.380855 0.206685 0.284865 0.751390
C24   C     C_R   0.650235 0.960235 0.516728 -0.063166
C25   C     C_R   0.551616 0.029028 0.483578 -0.064889
C26   C     C_R   0.614533 0.141049 0.493017 0.037219
C27   C     C_R   0.873411 0.116303 0.562404 -0.008520
C28   C     C_3   0.277792 0.781098 0.627919 0.289172
C29   C     C_R   0.811022 0.006629 0.556190 -0.117270
C30   C     C_3   0.358194 0.899603 0.647677 -0.434247
C31   C     C_3   0.933048 0.192518 0.253070 0.733647
C32   C     C_3   0.771922 0.180958 0.197074 -0.276040
C33   C     C_3   0.858496 0.776949 0.707274 0.715977
C34   C     C_3   0.301321 0.098596 0.230781 -0.366471
C35   C     C_3   0.982662 0.881690 0.720180 -0.218640
C36   C     C_3   0.906756 0.066359 0.340141 0.201316
C37   C     C_3   0.690314 0.682534 0.783855 0.248795
C38   C     C_3   0.387389 0.282435 0.166009 0.096531
C39   C     C_3   0.112369 0.238474 0.755947 0.355982
C40   C     C_3   0.143083 0.214980 0.839913 -0.374022
C41   C     C_3   0.602225 0.182835 0.722309 0.346042
C42   C     C_3   0.657878 0.100653 0.769530 -0.393657
C43   C     C_2   0.266631 0.486214 0.268020 -0.178767
H1    H     H_    0.313382 0.941939 0.699733 0.146741
H2    H     H_    0.031718 0.893957 0.664840 0.036075
H3    H     H_    0.087771 0.880115 0.766099 0.109308
H4    H     H_    0.923894 0.950583 0.741340 0.085916
H5    H     H_    0.478371 0.788167 0.280230 -0.063787
H6    H     H_    0.284057 0.239135 0.316071 -0.037028
H7    H     H_    0.255896 0.039064 0.267825 0.128432
H8    H     H_    0.507330 0.871416 0.162784 0.106844
H9    H     H_    0.197376 0.313685 0.752444 0.094962
H10   H     H_    0.982033 0.250157 0.744157 -0.069327
H11   H     H_    0.274671 0.207014 0.854662 0.151276
H12   H     H_    0.493861 0.907511 0.661957 0.119928
H13   H     H_    0.115736 0.281574 0.882765 0.070097
H14   H     H_    0.061816 0.139093 0.845225 0.107939
H15   H     H_    0.709022 0.215837 0.693705 -0.057531
H16   H     H_    0.499538 0.142318 0.674751 0.078772
H17   H     H_    0.756761 0.140894 0.818897 0.113744
H18   H     H_    0.707790 0.040825 0.730114 0.074988
H19   H     H_    0.980106 0.688353 0.245521 0.085929
H20   H     H_    0.551763 0.059434 0.794554 0.129719
H21   H     H_    0.221384 0.600953 0.992335 0.069559
H22   H     H_    0.918359 0.391229 0.147429 0.063603
H23   H     H_    0.330397 0.940504 0.596724 0.101115
H24   H     H_    0.802389 0.435032 0.903375 0.070825
H25   H     H_    0.965872 0.403444 0.005618 0.069391
H26   H     H_    0.367995 0.587711 0.100940 0.071697
H27   H     H_    0.266780 0.603264 0.852756 0.066664
H28   H     H_    0.337513 0.460244 0.316464 0.076583
H29   H     H_    0.863728 0.476388 0.665644 0.073834
H30   H     H_    0.892324 0.958508 0.579295 0.105094
H31   H     H_    0.823122 0.267373 0.536403 0.070315
H32   H     H_    0.378311 0.721962 0.456832 0.060857
H33   H     H_    0.071822 0.718108 0.117048 0.071012
H34   H     H_    0.035232 0.224306 0.222010 -0.134482
H35   H     H_    0.933114 0.807961 0.146162 0.147222
H36   H     H_    0.362122 0.735108 0.597819 0.034927
H37   H     H_    0.160512 0.772016 0.587134 0.058235
H38   H     H_    0.692134 0.835773 0.320193 0.055249
H39   H     H_    0.784307 0.088289 0.349282 0.029189
H40   H     H_    0.003447 0.107273 0.390420 0.068265
H41   H     H_    0.892861 0.979897 0.339936 0.110374
H42   H     H_    0.670183 0.616367 0.732246 0.044538
H43   H     H_    0.583040 0.725168 0.783649 0.092890
H44   H     H_    0.700001 0.647554 0.839063 0.034991
H45   H     H_    0.744806 0.260213 0.187344 0.092368
H46   H     H_    0.572493 0.967800 0.253171 0.075767
H47   H     H_    0.417876 0.214141 0.125954 0.036526
H48   H     H_    0.440740 0.356285 0.144888 0.105113
H49   H     H_    0.251728 0.279025 0.161001 -0.000971
H50   H     H_    0.195991 0.105457 0.187241 0.098196
H51   H     H_    0.393118 0.065817 0.196513 0.078748
H52   H     H_    0.154308 0.857297 0.157668 0.108568
H53   H     H_    0.311468 0.033443 0.418261 0.088117
H54   H     H_    0.200935 0.739860 0.256667 -0.074075
H55   H     H_    0.668476 0.138978 0.222376 0.133744
H56   H     H_    0.781183 0.133091 0.138889 0.042584
H57   H     H_    0.909414 0.710382 0.675311 -0.041768
H58   H     H_    0.725977 0.919559 0.196429 0.164700
O1    O     O_2   0.825360 0.427200 0.308020 -0.408417
O2    O     O_2   0.212088 0.121902 0.557921 -0.485584
O3    O     O_3   0.143019 0.152345 0.702154 -0.604769
O4    O     O_3   0.099050 0.435020 0.406000 -0.466547
O5    O     O_3   0.588300 0.633530 0.539940 -0.472493
O6    O     O_2   0.332090 0.232110 0.462130 -0.481428
O7    O     O_3   0.505403 0.180726 0.337125 -0.660781
O8    O     O_2   0.477234 0.453873 0.781291 -0.507599
O9    O     O_3   0.544655 0.260496 0.773699 -0.592914
O10   O     O_3   0.623690 0.628090 0.355970 -0.477764
O11   O     O_2   0.663705 0.516485 0.216320 -0.469397
O12   O     O_3   0.707902 0.791219 0.665846 -0.680419
O13   O     O_3   0.931761 0.261190 0.324865 -0.628035
O14   O     O_3   0.656540 0.720777 0.219664 -0.601680
O15   O     O_2   0.857620 0.767930 0.537920 -0.500872
O16   O     O_3   0.055170 0.686660 0.395490 -0.490495
O17   O     O_2   0.997514 0.880254 0.445814 -0.501643
O18   O     O_3   0.955979 0.088781 0.267150 -0.686198
O19   O     O_3   0.836978 0.755763 0.784473 -0.699931
O20   O     O_3   0.460353 0.286526 0.245050 -0.639284
O21   O     O_3   0.055478 0.847485 0.298940 -0.607138
O22   O     O_2   0.364350 0.572830 0.692030 -0.473388
O23   O     O_3   0.090660 0.565070 0.594010 -0.503986
O24   O     O_3   0.566030 0.372000 0.644040 -0.481108
O25   O     O_3   0.245435 0.744146 0.698187 -0.646107
O26   O     O_3   0.601410 0.366560 0.460070 -0.438971
O27   O     O_3   0.134540 0.313430 0.604520 -0.480016
P1    P     P_3+3 0.996360 0.395990 0.320310 1.000120
P2    P     P_3+3 0.688190 0.753610 0.561600 0.945507
P3    P     P_3+3 0.111030 0.823178 0.394993 0.927402
P4    P     P_3+3 0.193350 0.604100 0.679700 0.969778
P5    P     P_3+3 0.089766 0.175098 0.605440 0.960373
P6    P     P_3+3 0.573688 0.604527 0.253302 0.981223
P7    P     P_3+3 0.510644 0.230482 0.438323 0.986827
P8    P     P_3+3 0.600592 0.386421 0.747003 0.946210

loop_
_geom_bond_atom_site_label_1
_geom_bond_atom_site_label_2
_ccdc_geom_bond_type
O22   P4    D    
C6    C7    D    
Ba2   O6    S    
C7    C43   D    
C20   H53   S    
C39   C40   S    
O27   P5    S    
C4    O21   S    
C38   H48   S    
C33   H57   S    
C40   H13   S    
C32   H45   S    
C5    C6    S    
C30   H23   S    
C9    C17   A    
C15   H21   S    
Ba2   P4    S    
C37   O19   S    
O21   P3    S    
C36   H41   S    
C37   H43   S    
C1    H46   S    
C33   C35   S    
C9    P8    S    
C22   C24   A    
O17   P3    D    
Ba1   O26   S    
C8    C13   A    
Ba2   O4    S    
Ba2   O26   S    
C18   H31   S    
C43   H28   S    
Ba1   Ba2   S    
Ba1   O16   S    
C4    H19   S    
C34   H51   S    
C39   H10   S    
C40   H11   S    
C14   C15   D    
O10   P6    S    
C32   H55   S    
C33   O12   S    
C16   H52   S    
C37   H42   S    
C35   H2    S    
C34   H7    S    
C2    P6    S    
Ba2   O24   S    
Ba1   P2    S    
C24   C29   A    
C10   P4    S    
C31   O18   S    
C42   H20   S    
Ba1   O10   S    
C30   H12   S    
O12   P2    S    
C7    P1    S    
C42   H18   S    
C4    C16   S    
C28   O25   S    
C32   H56   S    
C39   O3    S    
C21   P3    S    
C36   H40   S    
C2    C43   S    
O9    P8    S    
C14   H25   S    
Ba1   O23   S    
O4    P1    S    
C3    C5    D    
C31   H34   S    
C18   C26   A    
C42   H17   S    
O1    P1    D    
C28   H37   S    
C41   C42   S    
C23   H6    S    
O25   P4    S    
C35   H4    S    
C22   P2    S    
C29   H30   S    
C16   H33   S    
C12   O14   S    
C31   C32   S    
C24   C25   A    
C33   O19   S    
O16   P3    S    
C38   H47   S    
C35   H3    S    
C23   O20   S    
Ba1   O1    S    
C1    C12   S    
C41   H15   S    
Ba1   O4    S    
Ba2   O22   S    
C23   O7    S    
C16   H35   S    
O3    P5    S    
C27   P5    S    
C20   C25   A    
C11   C13   A    
C41   O9    S    
Ba2   O23   S    
C41   H16   S    
C1    H58   S    
C13   C15   S    
C38   O20   S    
C5    C14   S    
C31   O13   S    
C36   H39   S    
C23   C34   S    
C30   H1    S    
C17   H29   S    
C26   P7    S    
C38   H49   S    
C2    C3    S    
Ba1   P1    S    
C40   H14   S    
C11   H27   S    
O24   P8    S    
O2    P5    D    
O6    P7    D    
C4    H54   S    
C28   H36   S    
C19   C21   A    
C12   H38   S    
C3    H26   S    
C28   C30   S    
C1    H8    S    
C34   H50   S    
C12   H5    S    
O13   P1    S    
C10   C17   A    
Ba2   O5    S    
Ba2   O27   S    
Ba1   O15   S    
O7    P7    S    
C39   H9    S    
O5    P2    S    
C36   O18   S    
O15   P2    D    
C8    C9    A    
Ba1   O5    S    
C8    H24   S    
O26   P7    S    
C10   C11   A    
O23   P4    S    
C6    H22   S    
C27   C29   A    
C19   C22   A    
C19   H32   S    
C25   C26   A    
O11   P6    D    
C20   C21   A    
C18   C27   A    
O14   P6    S    
C37   H44   S    
O8    P8    D    
