data_mof_unit_44629.cif
_audit_creation_date              2012-12-10T17:31:09-0500
_audit_creation_method            fapswitch 2.2
_symmetry_space_group_name_H-M    P1
_symmetry_Int_Tables_number       1
_space_group_crystal_system       triclinic
_cell_length_a                    11.979298
_cell_length_b                    12.892495
_cell_length_c                    15.24296
_cell_angle_alpha                 86.811384
_cell_angle_beta                  115.356981
_cell_angle_gamma                 93.753019
_cell_volume                      2121.8054137

loop_
_atom_site_label
_atom_site_type_symbol
_atom_type_description
_atom_site_fract_x
_atom_site_fract_y
_atom_site_fract_z
_atom_type_partial_charge
C1    C     C_R   0.476889 0.299345 0.498350 0.916399
C2    C     C_R   0.522338 0.700726 0.500227 0.924100
C3    C     C_R   0.664949 0.602688 0.115486 0.179097
C4    C     C_R   0.378395 0.633059 0.888934 0.169080
C5    C     C_R   0.753406 0.589868 0.079152 0.121388
C6    C     C_R   0.287452 0.633759 0.924713 0.122973
C7    C     C_R   0.532571 0.812360 0.494490 -0.141157
C8    C     C_R   0.460679 0.188101 0.493010 -0.141659
C9    C     C_R   0.338595 0.029294 0.482204 0.513763
C10   C     C_R   0.639232 0.971850 0.477784 0.516238
C11   C     C_R   0.352009 0.136673 0.488293 -0.285013
C12   C     C_R   0.633868 0.864093 0.486044 -0.280724
C13   C     C_R   0.555665 0.133472 0.490226 -0.274125
C14   C     C_R   0.435061 0.867122 0.492943 -0.276616
C15   C     C_R   0.544394 0.026943 0.483315 -0.005414
C16   C     C_R   0.438151 0.974015 0.485133 -0.004322
C17   C     C_R   0.017920 0.618008 0.431575 -0.331033
C18   C     C_R   0.983935 0.383912 0.571155 -0.337093
C19   C     C_R   0.135119 0.603982 0.435154 0.033462
C20   C     C_R   0.865659 0.396810 0.565958 0.017413
C21   C     C_R   0.153245 0.447147 0.528109 -0.059678
C22   C     C_R   0.847761 0.553888 0.473519 -0.055463
C23   C     C_R   0.576503 0.496613 0.681232 0.875482
C24   C     C_R   0.423960 0.506675 0.318647 0.866972
C25   C     C_R   0.034997 0.457481 0.525641 0.087165
C26   C     C_R   0.966410 0.544063 0.476524 0.087657
C27   C     C_R   0.626185 0.513082 0.785532 -0.083101
C28   C     C_R   0.380638 0.529877 0.214350 -0.084509
C29   C     C_R   0.796474 0.543451 0.942214 -0.190917
C30   C     C_R   0.227821 0.592604 0.059563 -0.192174
C31   C     C_R   0.753309 0.518095 0.845020 -0.197730
C32   C     C_R   0.259924 0.558896 0.155630 -0.207261
C33   C     C_R   0.543765 0.535530 0.823338 -0.186972
C34   C     C_R   0.467743 0.535234 0.176313 -0.185895
C35   C     C_R   0.585219 0.571509 0.917177 0.067681
C36   C     C_R   0.442029 0.580601 0.084809 0.068344
C37   C     C_R   0.713030 0.568292 0.980228 0.066998
C38   C     C_R   0.317932 0.603016 0.022417 0.063780
C39   C     C_R   0.499588 0.600775 0.951406 -0.066631
C40   C     C_R   0.536075 0.595257 0.051947 -0.068645
H1    H     H_    0.826638 0.339413 0.600693 0.138605
H2    H     H_    0.174158 0.661383 0.400421 0.119907
H3    H     H_    0.968346 0.686187 0.394105 0.148136
H4    H     H_    0.034600 0.316708 0.609972 0.155232
H5    H     H_    0.556399 0.502402 0.218890 0.178854
H6    H     H_    0.445869 0.522723 0.779126 0.178509
H7    H     H_    0.190615 0.555523 0.183745 0.156855
H8    H     H_    0.819098 0.502127 0.816680 0.156501
H9    H     H_    0.895132 0.543671 0.986384 0.139468
H10   H     H_    0.132510 0.610560 0.015584 0.140086
H11   H     H_    0.356775 0.826374 0.499386 0.199679
H12   H     H_    0.639886 0.174045 0.494604 0.198256
H13   H     H_    0.708133 0.821278 0.484946 0.171907
H14   H     H_    0.277695 0.179362 0.489443 0.173252
H15   H     H_    0.793699 0.619703 0.435926 0.130414
H16   H     H_    0.207709 0.381648 0.566606 0.126249
N1    N     N_R   0.799120 0.480200 0.517090 -0.097536
N2    N     N_R   0.200880 0.519800 0.482910 -0.096244
O1    O     O_R   0.580150 0.341050 0.504560 -0.632077
O2    O     O_R   0.419850 0.658950 0.495440 -0.630459
O3    O     O_R   0.388090 0.353760 0.493600 -0.624905
O4    O     O_R   0.611910 0.646240 0.506400 -0.622019
O5    O     O_R   0.650890 0.490020 0.640860 -0.613360
O6    O     O_R   0.349110 0.509980 0.359140 -0.615152
O7    O     O_R   0.458830 0.502730 0.629890 -0.611519
O8    O     O_R   0.541170 0.497270 0.370110 -0.610026
Zn1   Zn    Zn3+2 0.628240 0.491510 0.507320 0.936223
Zn2   Zn    Zn3+2 0.371760 0.508490 0.492680 0.936153
N3    N     N_2   0.881406 0.592104 0.144600 -0.315326
H17   H     H_    0.927794 0.528336 0.142620 0.218990
C41   C     C_3   0.948200 0.690052 0.145992 -0.814169
H18   H     H_    0.953507 0.706011 0.075482 0.239014
H19   H     H_    0.043553 0.686899 0.204613 0.230275
H20   H     H_    0.902219 0.754469 0.160636 0.254467
N4    N     N_2   0.166237 0.664688 0.861197 -0.309930
H21   H     H_    0.128049 0.713753 0.890945 0.227047
C42   C     C_3   0.081805 0.580790 0.808403 -0.807231
H22   H     H_    0.062589 0.525235 0.859152 0.232679
H23   H     H_    0.121110 0.538502 0.767341 0.249324
H24   H     H_    0.993291 0.613050 0.755751 0.250369
N5    N     N_2   0.705906 0.629228 0.214487 -0.308046
H25   H     H_    0.791833 0.604721 0.261524 0.251406
C43   C     C_3   0.685936 0.735066 0.228978 -0.804955
H26   H     H_    0.715188 0.746557 0.307459 0.220976
H27   H     H_    0.586566 0.752110 0.189860 0.260369
H28   H     H_    0.740952 0.790289 0.202967 0.237204
N6    N     N_2   0.351662 0.674248 0.793306 -0.312266
H29   H     H_    0.260324 0.668935 0.743686 0.259688
C44   C     C_3   0.410335 0.775117 0.789802 -0.731282
H30   H     H_    0.389616 0.797796 0.713193 0.246828
H31   H     H_    0.512295 0.772970 0.831273 0.246838
H32   H     H_    0.374693 0.834393 0.820310 0.239479
O9    O     O_3   0.231645 0.979574 0.480703 -0.651135
C45   C     C_3   0.154631 0.945586 0.385822 0.056027
H33   H     H_    0.094865 0.879012 0.392786 0.165941
H34   H     H_    0.207186 0.915886 0.347905 0.125061
C46   C     C_3   0.071520 0.032038 0.323810 -0.349141
H35   H     H_    0.016074 0.058558 0.360339 0.235531
H36   H     H_    0.129381 0.099242 0.315304 0.214287
C47   C     C_3   0.984575 0.993872 0.223193 -0.969943
H37   H     H_    0.038216 0.965635 0.185936 0.267326
H38   H     H_    0.928470 0.058719 0.178611 0.270756
H39   H     H_    0.921454 0.929820 0.229259 0.261528
O10   O     O_3   0.742220 0.021452 0.471915 -0.651638
C48   C     C_3   0.710044 0.065768 0.377413 0.060834
H40   H     H_    0.780459 0.128810 0.383161 0.172528
H41   H     H_    0.618994 0.102737 0.346134 0.130432
C49   C     C_3   0.710953 0.985180 0.307759 -0.375136
H42   H     H_    0.803181 0.950847 0.337258 0.236170
H43   H     H_    0.639920 0.922317 0.300472 0.218771
C50   C     C_3   0.681656 0.034422 0.207349 -0.953961
H44   H     H_    0.587446 0.065142 0.175334 0.265777
H45   H     H_    0.685236 0.975238 0.158575 0.267479
H46   H     H_    0.749962 0.098996 0.212342 0.267908

loop_
_geom_bond_atom_site_label_1
_geom_bond_atom_site_label_2
_ccdc_geom_bond_type
N6    H29   S    
C8    C13   A    
C5    C37   A    
C1    C8    S    
C2    C7    S    
C22   N1    A    
C46   H35   S    
C6    N4    S    
C4    N6    S    
C29   H9    S    
C42   H22   S    
C27   C33   A    
C48   H41   S    
O9    C45   S    
O4    Zn1   S    
C43   H26   S    
C17   C26   A    
O6    Zn2   S    
C35   C37   A    
C9    C16   A    
C10   C15   A    
C1    O1    A    
C2    O2    A    
C15   C16   A    
C49   H42   S    
C30   C38   A    
N3    C41   S    
C5    N3    S    
O1    Zn1   S    
C7    C14   A    
C50   H44   S    
C3    N5    S    
C6    C38   A    
C23   C27   S    
C44   H31   S    
C18   C20   A    
C12   H13   S    
C19   H2    S    
C24   O8    A    
C23   O5    A    
O8    Zn1   S    
C30   H10   S    
C28   C34   A    
C24   O6    A    
C33   H6    S    
N3    H17   S    
C18   C25   A    
N1    Zn1   S    
O10   C48   S    
N5    C43   S    
C20   H1    S    
C42   H23   S    
C19   N2    A    
C7    C12   A    
C48   C49   S    
O5    Zn1   S    
C27   C31   A    
C28   C32   A    
C4    C6    A    
C46   H36   S    
C39   C40   A    
C41   H19   S    
C17   C19   A    
C45   C46   S    
C25   C26   A    
C47   H39   S    
N5    H25   S    
C35   C39   A    
N4    H21   S    
C17   H3    S    
C18   H4    S    
C41   H20   S    
C13   H12   S    
C9    C11   A    
C14   H11   S    
C4    C39   A    
C36   C40   A    
O7    Zn2   S    
C47   H38   S    
C50   H45   S    
C34   H5    S    
C44   H32   S    
C45   H34   S    
N4    C42   S    
C11   H14   S    
C10   C12   A    
N2    Zn2   S    
C43   H27   S    
C3    C40   A    
C31   H8    S    
N6    C44   S    
C32   H7    S    
C14   C16   A    
C36   C38   A    
C9    O9    S    
C46   C47   S    
C42   H24   S    
C21   C25   A    
C24   C28   S    
C3    C5    A    
C1    O3    A    
C21   H16   S    
C22   H15   S    
C48   H40   S    
C49   C50   S    
C23   O7    A    
C13   C15   A    
C44   H30   S    
C41   H18   S    
C29   C31   A    
C30   C32   A    
O3    Zn2   S    
C8    C11   A    
C10   O10   S    
C47   H37   S    
C33   C35   A    
C49   H43   S    
C50   H46   S    
C34   C36   A    
C45   H33   S    
C21   N2    A    
C43   H28   S    
O2    Zn2   S    
C22   C26   A    
C29   C37   A    
C20   N1    A    
C2    O4    A    
