data_mof_unit_32064.cif
_audit_creation_date              2012-12-10T19:49:40-0500
_audit_creation_method            fapswitch 2.2
_symmetry_space_group_name_H-M    P1
_symmetry_Int_Tables_number       1
_space_group_crystal_system       triclinic
_cell_length_a                    10.842016
_cell_length_b                    16.027091
_cell_length_c                    17.18081
_cell_angle_alpha                 97.750346
_cell_angle_beta                  89.406724
_cell_angle_gamma                 91.997587
_cell_volume                      2956.32261363

loop_
_atom_site_label
_atom_site_type_symbol
_atom_type_description
_atom_site_fract_x
_atom_site_fract_y
_atom_site_fract_z
_atom_type_partial_charge
C1    C     C_R   0.497491 0.488399 0.348950 0.780476
C2    C     C_R   0.500893 0.511767 0.650709 0.773246
C3    C     C_R   0.871766 0.497979 0.499970 -0.081836
C4    C     C_R   0.128919 0.502139 0.505756 -0.089717
C5    C     C_R   0.937370 0.426747 0.467612 -0.000905
C6    C     C_R   0.064336 0.572791 0.540533 0.003752
C7    C     C_R   0.478377 0.482118 0.263514 -0.068797
C8    C     C_R   0.487377 0.520391 0.736115 -0.060291
C9    C     C_R   0.415788 0.547686 0.235969 -0.233918
C10   C     C_R   0.397201 0.468929 0.766827 -0.254316
C11   C     C_R   0.389111 0.544830 0.156768 -0.160032
C12   C     C_R   0.373162 0.477888 0.846951 -0.155710
C13   C     C_R   0.424291 0.476076 0.103228 0.145073
C14   C     C_R   0.439860 0.538194 0.897966 0.144879
C15   C     C_R   0.483850 0.409537 0.129832 -0.182629
C16   C     C_R   0.528268 0.591006 0.867748 -0.189080
C17   C     C_R   0.513554 0.411918 0.209286 0.155913
C18   C     C_R   0.554402 0.582436 0.787068 0.152346
C19   C     C_2   0.407546 0.474114 0.018346 -0.220625
C20   C     C_2   0.425498 0.543605 0.983587 -0.221597
C21   C     C_R   0.440731 0.749261 0.463691 0.083461
C22   C     C_R   0.412699 0.259013 0.546592 0.061554
C23   C     C_R   0.262658 0.501000 0.502912 0.789764
C24   C     C_R   0.737707 0.499106 0.498817 0.786027
C25   C     C_R   0.450526 0.835938 0.462631 -0.343320
C26   C     C_R   0.399684 0.173238 0.550686 -0.387607
C27   C     C_R   0.537219 0.885338 0.510729 0.031892
C28   C     C_R   0.457373 0.115897 0.494651 -0.002400
C29   C     C_R   0.617877 0.844397 0.556255 0.422083
C30   C     C_R   0.526726 0.146958 0.433673 0.427172
C31   C     C_R   0.602903 0.756667 0.555794 -0.050952
C32   C     C_R   0.541171 0.234613 0.434148 -0.031383
C33   C     C_2   0.548077 0.978507 0.509249 0.452004
C34   C     C_2   0.445648 0.024366 0.503479 0.348113
C35   C     C_R   0.260796 0.711156 0.690663 -0.127108
C36   C     C_R   0.845464 0.258447 0.302699 -0.187772
C37   C     C_R   0.198693 0.640502 0.650720 -0.098077
C38   C     C_R   0.869594 0.338290 0.344571 -0.184972
C39   C     C_R   0.127088 0.648109 0.584441 0.127980
C40   C     C_R   0.881099 0.348074 0.426582 0.150385
C41   C     C_R   0.116448 0.727635 0.559821 -0.183719
C42   C     C_R   0.867788 0.277135 0.466198 -0.160145
C43   C     C_R   0.178956 0.798126 0.599880 -0.127454
C44   C     C_R   0.844112 0.197398 0.424074 -0.132014
C45   C     C_R   0.251554 0.789827 0.664994 -0.105016
C46   C     C_R   0.833356 0.188035 0.342346 -0.063397
C47   C     C_R   0.936088 0.570264 0.536082 -0.243583
C48   C     C_R   0.064881 0.430188 0.470630 -0.235245
Cu1   Cu    Cu3+1 0.493640 0.415410 0.495980 0.934675
Cu2   Cu    Cu3+1 0.506360 0.584590 0.504020 0.942315
H1    H     H_    0.300296 0.844389 0.695697 0.132868
H2    H     H_    0.816189 0.126187 0.309701 0.159665
H3    H     H_    0.512401 0.356989 0.087763 0.127118
H4    H     H_    0.580844 0.636808 0.907609 0.129314
H5    H     H_    0.302300 0.437703 0.868895 0.133005
H6    H     H_    0.340694 0.596286 0.137507 0.132585
H7    H     H_    0.374282 0.711551 0.426370 0.130070
H8    H     H_    0.366091 0.302608 0.589631 0.143417
H9    H     H_    0.597426 0.259812 0.390081 0.165198
H10   H     H_    0.661067 0.723923 0.591446 0.139958
H11   H     H_    0.345691 0.151701 0.597980 0.182159
H12   H     H_    0.392039 0.863753 0.423173 0.168370
H13   H     H_    0.316112 0.704808 0.741474 0.133721
H14   H     H_    0.838582 0.250889 0.239344 0.134076
H15   H     H_    0.207156 0.579798 0.670937 0.101032
H16   H     H_    0.884298 0.391857 0.312895 0.124325
H17   H     H_    0.061350 0.734745 0.509046 0.121316
H18   H     H_    0.881067 0.283147 0.529130 0.123490
H19   H     H_    0.171437 0.859126 0.580286 0.163876
H20   H     H_    0.836154 0.142659 0.454566 0.175190
H21   H     H_    0.886157 0.624259 0.563158 0.145130
H22   H     H_    0.114728 0.376126 0.443465 0.167449
H23   H     H_    0.385732 0.601289 0.276074 0.152302
H24   H     H_    0.343337 0.422558 0.728389 0.142688
H25   H     H_    0.448302 0.603564 0.018847 0.146424
H26   H     H_    0.399179 0.412740 0.982854 0.146277
N1    N     N_R   0.515930 0.711660 0.510070 -0.190046
N2    N     N_R   0.484070 0.288340 0.489930 -0.199313
O1    O     O_R   0.494030 0.420280 0.382610 -0.576450
O2    O     O_R   0.505970 0.579720 0.617390 -0.571931
O3    O     O_R   0.504770 0.563150 0.389400 -0.584924
O4    O     O_R   0.495230 0.436850 0.610600 -0.591618
O5    O     O_R   0.314270 0.428570 0.496610 -0.591884
O6    O     O_R   0.685730 0.571430 0.503390 -0.591310
O7    O     O_R   0.325020 0.571440 0.503400 -0.571082
O8    O     O_R   0.674980 0.428560 0.496600 -0.571814
O9    O     O_3   0.331266 0.988293 0.520647 -0.611539
C49   C     C_3   0.238204 0.010380 0.471015 -0.370655
H27   H     H_    0.267813 0.003541 0.408394 0.147465
H28   H     H_    0.207092 0.075143 0.490439 0.188986
H29   H     H_    0.157180 0.966901 0.474873 0.183713
O10   O     O_3   0.666192 0.014929 0.506945 -0.561133
C50   C     C_3   0.691453 0.068876 0.577661 -0.271512
H30   H     H_    0.790856 0.065603 0.591155 0.183857
H31   H     H_    0.638275 0.051720 0.629474 0.170319
H32   H     H_    0.674469 0.135156 0.570162 0.148890
O11   O     O_3   0.703118 0.891106 0.605232 -0.582334
C51   C     C_3   0.823364 0.863055 0.586851 -0.319444
H33   H     H_    0.841725 0.854060 0.522359 0.166297
H34   H     H_    0.840342 0.804304 0.612157 0.146879
H35   H     H_    0.890770 0.911842 0.613884 0.187681
O12   O     O_3   0.587691 0.093976 0.376969 -0.571078
C52   C     C_3   0.502125 0.055260 0.320961 -0.379377
H36   H     H_    0.429626 0.098457 0.306750 0.149097
H37   H     H_    0.459205 0.997964 0.340930 0.164858
H38   H     H_    0.552754 0.034778 0.265641 0.191188
C53   C     C_3   0.658778 0.636650 0.759258 -0.419620
C54   C     C_3   0.620441 0.727553 0.760370 -0.811235
H39   H     H_    0.698667 0.765771 0.739971 0.246934
H40   H     H_    0.540845 0.730223 0.720813 0.261577
H41   H     H_    0.594572 0.755367 0.820799 0.240628
H42   H     H_    0.739524 0.635737 0.798463 0.195051
H43   H     H_    0.691619 0.611881 0.699516 0.199877
C55   C     C_3   0.589154 0.341296 0.231155 -0.409054
C56   C     C_3   0.509706 0.261146 0.233180 -0.832010
H44   H     H_    0.568490 0.209989 0.247361 0.248056
H45   H     H_    0.436157 0.271879 0.278544 0.262656
H46   H     H_    0.466469 0.240665 0.175119 0.241520
H47   H     H_    0.664187 0.328151 0.187069 0.185920
H48   H     H_    0.636154 0.358876 0.288021 0.217400

loop_
_geom_bond_atom_site_label_1
_geom_bond_atom_site_label_2
_ccdc_geom_bond_type
Cu1   O4    S    
C38   C40   A    
O9    C49   S    
C50   H30   S    
C27   C29   A    
C10   H24   S    
C53   H42   S    
C19   C20   D    
O11   C51   S    
Cu2   O6    S    
C39   C41   A    
C27   C33   S    
C23   O5    A    
C15   H3    S    
C19   H26   S    
C35   C37   A    
C26   H11   S    
C45   H1    S    
C1    O3    A    
C56   H44   S    
C46   H2    S    
Cu1   N2    S    
C7    C9    A    
C18   C53   S    
C53   H43   S    
Cu2   O7    S    
C38   H16   S    
C7    C17   A    
C37   H15   S    
C53   C54   S    
C36   C46   A    
C54   H39   S    
C55   H47   S    
C34   O9    S    
C40   C42   A    
C28   C34   S    
C50   H31   S    
C42   H18   S    
C41   C43   A    
C3    C24   S    
C42   C44   A    
C48   H22   S    
C44   C46   A    
C17   C55   S    
C55   C56   S    
C37   C39   A    
C5    C48   A    
C6    C47   A    
C13   C19   S    
C14   C20   S    
C41   H17   S    
C4    C6    A    
C33   O10   S    
C4    C23   S    
C56   H45   S    
C8    C18   A    
Cu1   O1    S    
C20   H25   S    
C31   H10   S    
C21   H7    S    
C9    C11   A    
C49   H29   S    
C56   H46   S    
C30   O12   S    
C33   C34   D    
C52   H37   S    
C44   H20   S    
C43   C45   A    
C47   H21   S    
C10   C12   A    
C16   C18   A    
C49   H28   S    
Cu1   Cu2   S    
C50   H32   S    
C51   H34   S    
C13   C15   A    
C23   O7    A    
C1    O1    A    
C14   C16   A    
C2    O4    A    
C36   C38   A    
C35   C45   A    
Cu2   N1    S    
C4    C48   A    
C15   C17   A    
C21   C25   A    
C31   N1    A    
C1    C7    S    
Cu1   O8    S    
C9    H23   S    
C2    C8    S    
C12   C14   A    
C3    C5    A    
Cu2   O2    S    
C22   H8    S    
C25   C27   A    
C51   H35   S    
C26   C28   A    
C54   H41   S    
C29   O11   S    
Cu1   O5    S    
C28   C30   A    
C24   O6    A    
C29   C31   A    
C36   H14   S    
C30   C32   A    
C11   C13   A    
C22   N2    A    
C3    C47   A    
O10   C50   S    
C54   H40   S    
C52   H38   S    
C25   H12   S    
O12   C52   S    
C16   H4    S    
C12   H5    S    
C2    O2    A    
C32   N2    A    
C49   H27   S    
C8    C10   A    
C51   H33   S    
C22   C26   A    
C5    C40   S    
C21   N1    A    
C52   H36   S    
C6    C39   S    
C35   H13   S    
C32   H9    S    
C43   H19   S    
C24   O8    A    
C55   H48   S    
C11   H6    S    
Cu2   O3    S    
