data_mof_unit_5240.cif
_audit_creation_date              2012-12-11T14:13:28-0500
_audit_creation_method            fapswitch 2.2
_symmetry_space_group_name_H-M    P1
_symmetry_Int_Tables_number       1
_space_group_crystal_system       triclinic
_cell_length_a                    11.675749
_cell_length_b                    18.524681
_cell_length_c                    10.057906
_cell_angle_alpha                 90.000017
_cell_angle_beta                  110.087053
_cell_angle_gamma                 89.999702
_cell_volume                      2043.0930352

loop_
_atom_site_label
_atom_site_type_symbol
_atom_type_description
_atom_site_fract_x
_atom_site_fract_y
_atom_site_fract_z
_atom_type_partial_charge
C1    C     C_R   0.075154 0.645785 0.141347 0.560588
C2    C     C_2   0.585844 0.077747 0.082371 -0.131321
C3    C     C_2   0.585853 0.422258 0.082374 -0.131295
C4    C     C_2   0.403358 0.571168 0.936893 -0.126627
C5    C     C_2   0.459423 0.973154 0.043072 -0.156986
C6    C     C_2   0.479017 0.047643 0.012134 -0.162224
C7    C     C_2   0.478981 0.452340 0.012204 -0.162215
C8    C     C_2   0.459399 0.526837 0.043112 -0.156997
C9    C     C_2   0.014286 0.923455 0.115680 -0.109742
C10   C     C_2   0.987309 0.077048 0.884939 -0.111105
C11   C     C_2   0.987308 0.422952 0.884939 -0.111109
C12   C     C_R   0.925188 0.354082 0.858772 0.560007
C13   C     C_2   0.014286 0.576545 0.115680 -0.109744
C14   C     C_2   0.023821 0.963811 0.010117 -0.156217
C15   C     C_2   0.979523 0.036969 0.991694 -0.155751
C16   C     C_2   0.979522 0.463031 0.991694 -0.155752
C17   C     C_2   0.023819 0.536189 0.010117 -0.156218
C18   C     C_R   0.470850 0.647300 0.443455 0.525656
C19   C     C_R   0.528773 0.352241 0.555523 0.531037
C20   C     C_R   0.528774 0.147758 0.555524 0.531035
C21   C     C_R   0.470849 0.852699 0.443455 0.525658
C22   C     C_R   0.375451 0.644118 0.966993 0.543502
C23   C     C_R   0.925188 0.145918 0.858772 0.560009
C24   C     C_R   0.622780 0.354645 0.035989 0.546532
C25   C     C_R   0.622780 0.145355 0.035988 0.546540
C26   C     C_R   0.375454 0.855878 0.966987 0.543512
C27   C     C_R   0.498397 0.423545 0.485982 -0.036244
C28   C     C_R   0.499937 0.575032 0.509080 -0.038870
C29   C     C_R   0.499934 0.924967 0.509081 -0.038868
C30   C     C_R   0.498401 0.076454 0.485989 -0.036242
C31   C     C_R   0.288966 0.422948 0.492173 -0.092553
C32   C     C_R   0.710112 0.575158 0.504245 -0.093652
C33   C     C_R   0.710113 0.924836 0.504260 -0.093650
C34   C     C_R   0.075154 0.854215 0.141346 0.560589
C35   C     C_R   0.288966 0.077055 0.492169 -0.092560
C36   C     C_R   0.202424 0.455662 0.538422 -0.129291
C37   C     C_R   0.798659 0.541797 0.462180 -0.128255
C38   C     C_R   0.798661 0.958194 0.462192 -0.128254
C39   C     C_R   0.202423 0.044343 0.538417 -0.129300
C40   C     C_R   0.212853 0.528133 0.577955 0.012833
C41   C     C_R   0.787987 0.469410 0.421836 0.015242
C42   C     C_R   0.787994 0.030582 0.421855 0.015231
C43   C     C_R   0.212846 0.971870 0.577941 0.012827
C44   C     C_R   0.313513 0.567125 0.571412 -0.055429
C45   C     C_R   0.395768 0.460187 0.497505 0.015584
C46   C     C_R   0.685023 0.431114 0.423612 -0.054052
C47   C     C_R   0.685038 0.068881 0.423642 -0.054060
C48   C     C_R   0.313502 0.932876 0.571392 -0.055428
C49   C     C_R   0.403052 0.534693 0.525645 -0.002831
C50   C     C_R   0.594867 0.463824 0.468177 -0.006131
C51   C     C_R   0.594875 0.036173 0.468196 -0.006135
C52   C     C_R   0.403047 0.965307 0.525636 -0.002838
C53   C     C_3   0.123887 0.560614 0.640823 -0.288634
C54   C     C_3   0.082471 0.636888 0.586918 -0.403631
C55   C     C_3   0.880514 0.436275 0.364695 -0.287378
C56   C     C_R   0.602358 0.538312 0.496678 0.009722
C57   C     C_3   0.920364 0.360165 0.420517 -0.402686
C58   C     C_3   0.880509 0.063712 0.364690 -0.287376
C59   C     C_3   0.920347 0.139829 0.420473 -0.402704
C60   C     C_3   0.123888 0.939391 0.640823 -0.288633
C61   C     C_3   0.082476 0.863115 0.586933 -0.403636
C62   C     C_R   0.602361 0.961685 0.496691 0.009723
C63   C     C_R   0.395767 0.039814 0.497502 0.015576
C64   C     C_2   0.403375 0.928819 0.936866 -0.126613
Cr1   Cr    Cr6+3 0.187610 0.750000 0.979860 0.988372
Cr2   Cr    Cr6+3 0.812390 0.250000 0.020140 0.990069
Cr3   Cr    Cr6+3 0.245810 0.750000 0.341640 0.990982
Cr4   Cr    Cr6+3 0.754190 0.250000 0.658360 0.991829
Cr5   Cr    Cr6+3 0.485760 0.750000 0.219910 1.013670
Cr6   Cr    Cr6+3 0.514240 0.250000 0.780090 1.010479
H1    H     H_    0.131509 0.422867 0.551994 0.103311
H2    H     H_    0.495495 0.954091 0.152001 0.171592
H3    H     H_    0.495490 0.545912 0.152025 0.171605
H4    H     H_    0.412630 0.425910 0.921743 0.164085
H5    H     H_    0.652039 0.045826 0.160391 0.110486
H6    H     H_    0.369317 0.949736 0.831549 0.104491
H7    H     H_    0.369295 0.550241 0.831589 0.104518
H8    H     H_    0.652084 0.454201 0.160325 0.110480
H9    H     H_    0.935082 0.057128 0.063210 0.156631
H10   H     H_    0.068870 0.943699 0.939152 0.157772
H11   H     H_    0.068867 0.556301 0.939151 0.157769
H12   H     H_    0.871973 0.573990 0.453082 0.105104
H13   H     H_    0.935080 0.442873 0.063209 0.156623
H14   H     H_    0.026458 0.055731 0.809371 0.086579
H15   H     H_    0.974575 0.944741 0.190812 0.088361
H16   H     H_    0.974577 0.555259 0.190814 0.088359
H17   H     H_    0.026456 0.444268 0.809371 0.086573
H18   H     H_    0.158634 0.676087 0.623097 0.158301
H19   H     H_    0.044533 0.637475 0.469774 0.167959
H20   H     H_    0.010847 0.655051 0.628896 0.122603
H21   H     H_    0.042849 0.525437 0.618620 0.132814
H22   H     H_    0.165067 0.561676 0.757258 0.159933
H23   H     H_    0.871968 0.925999 0.453084 0.105107
H24   H     H_    0.958439 0.360445 0.537525 0.169737
H25   H     H_    0.843497 0.321410 0.384960 0.156102
H26   H     H_    0.991833 0.340899 0.379281 0.119534
H27   H     H_    0.844371 0.434488 0.248135 0.156377
H28   H     H_    0.961635 0.471499 0.389770 0.133650
H29   H     H_    0.843478 0.178581 0.384886 0.156111
H30   H     H_    0.958412 0.139567 0.537481 0.169734
H31   H     H_    0.991820 0.159088 0.379236 0.119547
H32   H     H_    0.961637 0.028493 0.389781 0.133662
H33   H     H_    0.844359 0.065481 0.248129 0.156365
H34   H     H_    0.131512 0.077140 0.551996 0.103317
H35   H     H_    0.044537 0.862522 0.469789 0.167953
H36   H     H_    0.158641 0.823917 0.623118 0.158302
H37   H     H_    0.010855 0.844954 0.628918 0.122610
H38   H     H_    0.165076 0.938334 0.757258 0.159931
H39   H     H_    0.042848 0.974568 0.618619 0.132820
H40   H     H_    0.327533 0.621157 0.614387 0.127627
H41   H     H_    0.671232 0.376941 0.381270 0.129176
H42   H     H_    0.671248 0.123053 0.381297 0.129176
H43   H     H_    0.327519 0.878844 0.614367 0.127630
H44   H     H_    0.274869 0.367022 0.459181 0.123611
H45   H     H_    0.724631 0.630942 0.538042 0.126958
H46   H     H_    0.724628 0.869051 0.538053 0.126957
H47   H     H_    0.274872 0.132981 0.459180 0.123616
H48   H     H_    0.412716 0.074051 0.921609 0.164129
O1    O     O_R   0.267710 0.668200 0.902110 -0.537230
O2    O     O_R   0.883280 0.330790 0.732340 -0.527134
O3    O     O_R   0.883280 0.169210 0.732340 -0.527133
O4    O     O_R   0.116720 0.830790 0.267660 -0.526154
O5    O     O_R   0.366710 0.675440 0.427590 -0.506788
O6    O     O_R   0.633290 0.324560 0.572410 -0.507035
O7    O     O_R   0.633290 0.175440 0.572410 -0.507039
O8    O     O_R   0.366710 0.824560 0.427590 -0.506792
O9    O     O_R   0.534870 0.669390 0.371760 -0.524594
O10   O     O_R   0.465130 0.330610 0.628240 -0.521131
O11   O     O_R   0.465130 0.169390 0.628240 -0.521142
O12   O     O_R   0.732290 0.331800 0.097890 -0.537532
O13   O     O_R   0.534870 0.830610 0.371760 -0.524591
O14   O     O_R   0.453080 0.674480 0.075160 -0.492070
O15   O     O_R   0.546920 0.325520 0.924840 -0.494574
O16   O     O_R   0.546920 0.174480 0.924840 -0.494589
O17   O     O_R   0.453080 0.825520 0.075160 -0.492069
O18   O     O_3   0.306390 0.750000 0.180470 -0.242023
O19   O     O_3   0.693610 0.250000 0.819530 -0.238330
O20   O     O_R   0.732290 0.168200 0.097890 -0.537525
O21   O     O_R   0.267710 0.831800 0.902110 -0.537231
O22   O     O_R   0.099480 0.674460 0.038850 -0.501137
O23   O     O_R   0.900520 0.325540 0.961150 -0.501063
O24   O     O_R   0.900520 0.174460 0.961150 -0.501062
O25   O     O_R   0.099480 0.825540 0.038850 -0.501137
O26   O     O_R   0.116720 0.669210 0.267660 -0.526156

loop_
_geom_bond_atom_site_label_1
_geom_bond_atom_site_label_2
_ccdc_geom_bond_type
C24   O15   A    
C44   C49   A    
C30   C51   A    
C59   H29   S    
C20   O11   A    
C4    C8    D    
Cr4   O6    S    
C28   C56   A    
C7    C8    S    
C23   O3    A    
Cr2   O23   S    
C20   C30   S    
C53   C54   S    
C38   C42   A    
C5    H2    S    
C3    C7    D    
C10   C15   D    
C5    C6    S    
Cr1   O25   S    
C47   H42   S    
C19   O10   A    
C12   O23   A    
C38   H23   S    
C11   C16   D    
C4    H7    S    
C26   C64   S    
C21   O13   A    
C26   O17   A    
C9    H15   S    
C12   O2    A    
Cr1   O22   S    
C15   H9    S    
C30   C63   A    
C11   H17   S    
C33   C62   A    
C57   H26   S    
C13   H16   S    
C53   H21   S    
Cr6   O15   S    
C41   C46   A    
C23   O24   A    
C58   H32   S    
C14   H10   S    
C39   H34   S    
C43   C48   A    
C31   H44   S    
C60   H38   S    
C27   C50   A    
C18   O5    A    
C27   C45   A    
C34   O4    A    
C46   H41   S    
C59   H30   S    
C42   C58   S    
Cr4   O19   S    
C2    C6    D    
C51   C62   A    
Cr3   O26   S    
C7    H4    S    
Cr1   O1    S    
C22   O1    A    
C34   O25   A    
C19   O6    A    
C59   H31   S    
C36   C40   A    
C18   C28   S    
C54   H19   S    
C26   O21   A    
Cr3   O8    S    
C16   C17   S    
C39   C43   A    
C58   C59   S    
C21   C29   S    
C16   H13   S    
C50   C56   A    
C5    C64   D    
C60   C61   S    
C35   C39   A    
C9    C14   D    
C61   H36   S    
C18   O9    A    
C4    C22   S    
C28   C49   A    
Cr2   O20   S    
C45   C49   A    
Cr5   O13   S    
C60   H39   S    
C55   H27   S    
C53   H22   S    
C64   H6    S    
C32   C37   A    
C25   O16   A    
C1    O22   A    
C43   C60   S    
Cr5   O18   S    
C57   H24   S    
C55   C57   S    
C31   C45   A    
C9    C34   S    
C37   H12   S    
C35   H47   S    
C1    C13   S    
Cr3   O4    S    
C19   C27   S    
Cr6   O10   S    
C29   C62   A    
C33   H46   S    
C22   O14   A    
C31   C36   A    
C3    C24   S    
C52   C63   A    
Cr3   O5    S    
Cr4   O3    S    
C47   C51   A    
C11   C12   S    
C36   H1    S    
C54   H20   S    
Cr2   O24   S    
C10   C23   S    
C46   C50   A    
C33   C38   A    
C13   C17   D    
C25   O20   A    
C20   O7    A    
C1    O26   A    
Cr4   O2    S    
C54   H18   S    
Cr2   O19   S    
Cr5   O14   S    
C41   C55   S    
C55   H28   S    
C10   H14   S    
C8    H3    S    
C61   H35   S    
C32   C56   A    
Cr3   O18   S    
C2    C25   S    
C17   H11   S    
C42   C47   A    
Cr6   O11   S    
C32   H45   S    
C37   C41   A    
C61   H37   S    
Cr1   O18   S    
Cr1   O21   S    
C24   O12   A    
C40   C44   A    
Cr5   O9    S    
Cr6   O19   S    
Cr5   O17   S    
C40   C53   S    
C57   H25   S    
Cr6   O16   S    
C14   C15   S    
C35   C63   A    
C58   H33   S    
C21   O8    A    
C48   C52   A    
C3    H8    S    
Cr4   O7    S    
C6    H48   S    
C2    H5    S    
C48   H43   S    
Cr2   O12   S    
C29   C52   A    
C44   H40   S    
