data_mof_unit_54457.cif
_audit_creation_date              2013-03-05T16:43:42-0500
_audit_creation_method            fapswitch 2.2
_symmetry_space_group_name_H-M    P1
_symmetry_Int_Tables_number       1
_space_group_crystal_system       triclinic
_cell_length_a                    15.717861
_cell_length_b                    10.627798
_cell_length_c                    9.934164
_cell_angle_alpha                 88.90334
_cell_angle_beta                  89.566795
_cell_angle_gamma                 91.01683
_cell_volume                      1658.84781193

loop_
_atom_site_label
_atom_site_type_symbol
_atom_site_description
_atom_site_fract_x
_atom_site_fract_y
_atom_site_fract_z
_atom_type_partial_charge
O1    O     O_R   0.500010 0.316790 0.614690 -0.601321
O2    O     O_R   0.500000 0.316760 0.385350 -0.632157
C1    C     C_R   0.499454 0.260563 0.500866 0.880891
O3    O     O_R   0.376780 0.500010 0.614650 -0.616054
O4    O     O_R   0.376770 0.499970 0.385310 -0.574887
C2    C     C_R   0.338162 0.499786 0.500528 0.896550
Zn1   Zn    Zn3+2 0.500010 0.500020 0.653130 1.003343
Zn2   Zn    Zn3+2 0.499990 0.499980 0.346870 1.075821
O5    O     O_R   0.500000 0.683240 0.614650 -0.631916
O6    O     O_R   0.499990 0.683210 0.385310 -0.542735
O7    O     O_R   0.623230 0.500030 0.614690 -0.612168
O8    O     O_R   0.623220 0.499990 0.385350 -0.559310
C3    C     C_R   0.500011 0.739458 0.498976 0.889156
C4    C     C_R   0.661844 0.499822 0.499602 0.903136
C5    C     C_3   0.970530 0.387988 0.533413 0.470476
C6    C     C_3   0.028223 0.419429 0.410582 -0.161083
H1    H     H_    0.052555 0.350832 0.337382 0.224078
H2    H     H_    0.950581 0.565661 0.276375 0.220845
C7    C     C_1   0.249384 0.499999 0.502032 -0.045547
C8    C     C_1   0.750645 0.500872 0.498684 -0.069924
C9    C     C_3   0.027221 0.467619 0.626927 -0.307678
C10   C     C_3   0.083450 0.501311 0.503126 -0.055992
C11   C     C_3   0.973176 0.582935 0.591118 0.209788
C12   C     C_3   0.916685 0.503068 0.500634 -0.117392
C13   C     C_3   0.030307 0.616932 0.470279 0.354073
C14   C     C_3   0.973562 0.536616 0.377495 -0.324387
C15   C     C_1   0.174167 0.500387 0.502983 0.154149
C16   C     C_1   0.825879 0.502021 0.498941 0.146506
H3    H     H_    0.049978 0.439561 0.728487 0.224141
C17   C     C_R   0.560900 0.064616 0.574679 0.097492
C18   C     C_R   0.500709 0.128681 0.499568 -0.067584
C19   C     C_R   0.449416 0.065514 0.407102 -0.147602
H4    H     H_    0.406316 0.115905 0.341581 0.173208
C20   C     C_R   0.449978 0.935786 0.405558 -0.077770
H5    H     H_    0.406654 0.885880 0.340103 0.205100
C21   C     C_R   0.502537 0.871503 0.495312 -0.093741
C22   C     C_R   0.561279 0.936121 0.573404 0.074527
C23   C     C_3   0.580157 0.925818 0.720391 -0.380037
C24   C     C_3   0.580599 0.068662 0.721319 -0.387617
H6    H     H_    0.526872 0.882311 0.780254 0.243086
H7    H     H_    0.643753 0.885338 0.739577 0.241494
H8    H     H_    0.528184 0.107881 0.782016 0.261945
H9    H     H_    0.644585 0.110710 0.740039 0.231876
C25   C     C_R   0.459364 0.405893 0.073294 0.014031
N1    N     N_R   0.499430 0.499140 0.142800 -0.146476
C26   C     C_R   0.545232 0.589688 0.065807 0.483211
C27   C     C_R   0.544992 0.586804 0.923086 -0.139280
H10   H     H_    0.578004 0.658397 0.863131 0.190981
N2    N     N_R   0.499430 0.499180 0.857150 -0.145422
C28   C     C_R   0.460998 0.404413 0.931101 0.085023
C29   C     C_3   0.369483 0.366178 0.923162 0.047284
C30   C     C_3   0.366076 0.371089 0.076520 0.026796
H11   H     H_    0.330017 0.436891 0.869565 0.171769
H12   H     H_    0.352362 0.279384 0.128845 0.163130
S1    S     S_3+6 0.594626 0.728502 0.129401 0.062958
O9    O     O_2   0.652706 0.786646 0.023515 -0.299366
O10   O     O_2   0.526037 0.820981 0.158170 -0.290679
O11   O     O_3   0.653686 0.705831 0.267109 -0.530885
H13   H     H_    0.667976 0.791389 0.298869 0.375284
N3    N     N_R   0.358266 0.238930 0.871596 0.224891
O12   O     O_R   0.395245 0.143326 0.928657 -0.381302
O13   O     O_R   0.310430 0.220687 0.767263 -0.337458
N4    N     N_R   0.311337 0.472081 0.122388 0.235324
O14   O     O_R   0.240938 0.443191 0.186264 -0.359768
O15   O     O_R   0.326130 0.588687 0.085321 -0.341703
S2    S     S_3+6 0.929734 0.234503 0.574630 0.079407
O16   O     O_2   0.874458 0.240485 0.698350 -0.275672
O17   O     O_2   0.878113 0.186486 0.459083 -0.264040
O18   O     O_3   0.011347 0.137911 0.604110 -0.460518
H14   H     H_    0.984397 0.055632 0.628805 0.432413
S3    S     S_3+6 0.071298 0.770299 0.428185 0.113438
O19   O     O_2   0.129388 0.813933 0.537944 -0.203326
O20   O     O_2   0.120392 0.766483 0.297992 -0.221671
O21   O     O_3   0.990567 0.870998 0.412208 -0.464507
H15   H     H_    0.952300 0.832621 0.345018 0.362419
N5    N     N_R   0.944157 0.673298 0.689277 0.251601
O22   O     O_R   0.999295 0.732349 0.763085 -0.279424
O23   O     O_R   0.863523 0.694890 0.704543 -0.353244

loop_
_geom_bond_atom_site_label_1
_geom_bond_atom_site_label_2
_geom_bond_distance
_ccdc_geom_bond_type
S2    O17   1.502714 D    
S1    O9    1.504087 D    
N4    O15   1.302475 A    
H2    C14   1.110149 S    
C11   N5    1.458042 S    
C27   N2    1.347548 A    
N1    C26   1.402941 A    
Zn1   O7    1.971204 S    
C2    C7    1.395408 S    
C21   C22   1.390918 A    
C12   C14   1.542147 S    
C17   C18   1.389062 A    
O7    C4    1.290407 A    
S2    O18   1.681083 S    
C5    C6    1.542663 S    
N3    O13   1.300569 A    
C20   H5    1.083940 S    
O5    C3    1.284980 A    
Zn2   N1    2.027540 S    
C27   H10   1.080222 S    
C6    H1    1.110200 S    
C10   C13   1.529490 S    
C26   S1    1.783477 S    
C11   C12   1.526887 S    
C13   S3    1.783053 S    
C7    C15   1.182301 T    
C25   C30   1.505813 S    
S2    O16   1.502760 D    
C9    C10   1.541850 S    
O3    Zn1   1.977106 S    
C30   H12   1.112659 S    
C24   H8    1.109210 S    
C6    C14   1.556883 S    
C23   C24   1.518208 S    
O21   H15   0.990673 S    
C29   C30   1.525937 S    
C4    C8    1.395569 S    
N5    O22   1.300175 A    
Zn1   N2    2.026568 S    
C23   H7    1.111571 S    
O3    C2    1.290037 A    
S3    O20   1.502631 D    
C24   H9    1.111674 S    
C8    C16   1.182388 T    
O11   H13   0.990758 S    
C5    S2    1.781286 S    
C9    H3    1.110182 S    
O6    C3    1.287724 A    
C17   C22   1.366031 A    
N3    O12   1.302086 A    
O1    C1    1.289020 A    
C19   C20   1.379280 A    
C22   C23   1.494583 S    
O4    Zn2   1.971205 S    
C18   C19   1.400013 A    
Zn2   O8    1.977107 S    
C28   C29   1.490835 S    
C1    C18   1.402402 S    
C3    C21   1.402970 S    
C5    C12   1.530956 S    
O8    C4    1.291183 A    
C10   C15   1.426072 S    
C9    C11   1.541090 S    
C25   N1    1.366040 A    
C25   C28   1.413002 A    
Zn1   O5    1.977204 S    
C26   C27   1.418769 A    
C6    C10   1.540095 S    
O1    Zn1   1.991579 S    
O2    Zn2   1.977202 S    
C12   C16   1.427357 S    
N5    O23   1.300271 A    
C30   N4    1.464741 S    
S3    O21   1.680906 S    
C19   H4    1.084246 S    
S1    O10   1.501207 D    
O2    C1    1.283399 A    
C13   C14   1.545710 S    
S3    O19   1.502317 D    
C23   H6    1.112250 S    
O4    C2    1.291407 A    
C17   C24   1.492847 S    
C20   C21   1.397175 A    
C11   C13   1.527601 S    
O18   H14   0.990625 S    
N4    O14   1.300453 A    
C5    C9    1.545667 S    
Zn2   O6    1.991579 S    
N2    C28   1.364676 A    
S1    O11   1.675043 S    
C29   N3    1.463488 S    
C29   H11   1.113248 S    
