data_mof_unit_46768.cif
_audit_creation_date              2012-12-10T17:37:16-0500
_audit_creation_method            fapswitch 2.2
_symmetry_space_group_name_H-M    P1
_symmetry_Int_Tables_number       1
_space_group_crystal_system       triclinic
_cell_length_a                    12.37004
_cell_length_b                    13.015306
_cell_length_c                    15.844801
_cell_angle_alpha                 77.595247
_cell_angle_beta                  101.417025
_cell_angle_gamma                 116.239683
_cell_volume                      2219.22479715

loop_
_atom_site_label
_atom_site_type_symbol
_atom_type_description
_atom_site_fract_x
_atom_site_fract_y
_atom_site_fract_z
_atom_type_partial_charge
C1    C     C_R   0.855357 0.285709 0.503868 0.778644
C2    C     C_3   0.000720 0.499738 0.917538 0.184628
C3    C     C_3   0.116152 0.544742 0.038043 -0.161238
C4    C     C_3   0.001259 0.499928 0.082940 0.185988
C5    C     C_3   0.059375 0.608965 0.961863 -0.154339
C6    C     C_3   0.944505 0.564147 0.008317 -0.153698
C7    C     C_1   0.000102 0.499683 0.825647 -0.064637
C8    C     C_1   0.001117 0.500094 0.174656 -0.074670
C9    C     C_R   0.271972 0.040507 0.406033 0.204958
C10   C     C_R   0.226939 0.839991 0.471842 -0.143076
C11   C     C_R   0.816761 0.072787 0.527324 -0.015457
C12   C     C_R   0.999753 0.499758 0.660060 0.835571
C13   C     C_R   0.735097 0.956778 0.534763 -0.167072
C14   C     C_R   0.611402 0.925324 0.515786 -0.207771
C15   C     C_R   0.565096 0.009557 0.482694 0.104456
C16   C     C_R   0.648863 0.126632 0.464246 0.080875
C17   C     C_R   0.438245 0.980876 0.464974 0.027856
C18   C     C_R   0.397238 0.066263 0.420447 0.114760
C19   C     C_R   0.482291 0.175638 0.389285 -0.204612
C20   C     C_R   0.605410 0.204622 0.409695 -0.205825
C21   C     C_R   0.351453 0.869842 0.491342 -0.267942
C22   C     C_R   0.186690 0.927605 0.432891 -0.087736
C23   C     C_R   0.144852 0.714994 0.487844 0.809195
C24   C     C_R   0.774068 0.160935 0.497244 -0.169882
C25   C     C_R   0.351160 0.330067 0.636745 -0.331579
C26   C     C_R   0.761645 0.644149 0.381533 0.016799
C27   C     C_R   0.665661 0.675190 0.349783 -0.114550
C28   C     C_R   0.557120 0.619082 0.389020 0.200739
C29   C     C_R   0.548707 0.534284 0.465075 -0.059845
C30   C     C_R   0.651627 0.505854 0.493322 0.222774
C31   C     C_R   0.445129 0.475562 0.514844 -0.017739
C32   C     C_R   0.447202 0.388606 0.586139 0.145970
C33   C     C_R   0.546302 0.361215 0.608993 -0.272240
C34   C     C_R   0.000340 0.500290 0.339958 0.817135
C35   C     C_R   0.646466 0.419606 0.564652 -0.144121
C36   C     C_R   0.340030 0.498922 0.500067 0.001503
C37   C     C_R   0.251485 0.356545 0.618038 0.177190
C38   C     C_3   0.942648 0.390699 0.038641 -0.153366
C39   C     C_3   0.885877 0.454921 0.962490 -0.157263
C40   C     C_1   0.999710 0.499706 0.749911 -0.164698
C41   C     C_1   0.000739 0.500222 0.250222 -0.179844
C42   C     C_3   0.057518 0.435512 0.992163 -0.150015
Cu1   Cu    Cu3+1 0.098270 0.475420 0.519690 0.951067
Cu2   Cu    Cu3+1 0.901730 0.524580 0.480310 0.932893
H1    H     H_    0.791370 0.418063 0.930112 0.134648
H2    H     H_    0.378939 0.804161 0.528622 0.168451
H3    H     H_    0.555195 0.833592 0.523441 0.137931
H4    H     H_    0.767330 0.889197 0.556664 0.155739
H5    H     H_    0.665448 0.287705 0.378911 0.180259
H6    H     H_    0.547786 0.295006 0.663525 0.152080
H7    H     H_    0.354532 0.264741 0.691576 0.143685
H8    H     H_    0.329994 0.566514 0.452170 0.197170
H9    H     H_    0.843150 0.685184 0.349386 0.158612
H10   H     H_    0.894780 0.301127 0.071557 0.139907
H11   H     H_    0.718912 0.394152 0.589061 0.206772
H12   H     H_    0.898126 0.616945 0.016332 0.137012
H13   H     H_    0.107259 0.698548 0.928975 0.136635
H14   H     H_    0.210610 0.581527 0.070547 0.134225
H15   H     H_    0.103894 0.382714 0.984144 0.139391
H16   H     H_    0.454551 0.240173 0.348752 0.178694
N1    N     N_R   0.246280 0.438200 0.549540 -0.215304
N2    N     N_R   0.754330 0.561180 0.450980 -0.214805
O1    O     O_R   0.972510 0.318130 0.524770 -0.565547
O2    O     O_R   0.806530 0.359650 0.491510 -0.602615
O3    O     O_R   0.082970 0.479240 0.637550 -0.568659
O4    O     O_R   0.916990 0.520750 0.604290 -0.591635
O5    O     O_R   0.193470 0.640350 0.508490 -0.591725
O6    O     O_R   0.027490 0.681870 0.475230 -0.573329
O7    O     O_R   0.083010 0.479250 0.395710 -0.578462
O8    O     O_R   0.917030 0.520760 0.362450 -0.591054
C43   C     C_1   0.943388 0.095069 0.546786 0.295879
N3    N     N_1   0.044177 0.109981 0.562016 -0.309171
C44   C     C_1   0.156589 0.298694 0.673857 0.326930
N4    N     N_1   0.080795 0.251710 0.719208 -0.306026
N5    N     N_2   0.457453 0.646082 0.349065 -0.460577
H17   H     H_    0.479495 0.733275 0.330310 0.264843
C45   C     C_3   0.379992 0.576899 0.282280 -0.693284
H18   H     H_    0.300638 0.598439 0.259158 0.231696
H19   H     H_    0.345924 0.483445 0.308692 0.233443
H20   H     H_    0.430389 0.594704 0.226220 0.231349
C46   C     C_1   0.679140 0.763052 0.274344 0.236928
N6    N     N_1   0.689980 0.833471 0.213943 -0.288470
C47   C     C_1   0.060111 0.906203 0.424134 0.283544
N7    N     N_1   0.959461 0.890921 0.417468 -0.301498
N8    N     N_2   0.232316 0.128612 0.363779 -0.457625
H21   H     H_    0.152765 0.102380 0.322088 0.257532
C48   C     C_3   0.244363 0.211205 0.417427 -0.623771
H22   H     H_    0.155161 0.213062 0.416095 0.238371
H23   H     H_    0.308466 0.298657 0.391212 0.216615
H24   H     H_    0.279027 0.189995 0.486185 0.245434

loop_
_geom_bond_atom_site_label_1
_geom_bond_atom_site_label_2
_ccdc_geom_bond_type
C48   H22   S    
C26   H9    S    
C3    C42   S    
C44   N4    T    
Cu2   O4    S    
C19   C20   A    
C4    C8    S    
C46   N6    T    
Cu1   O1    S    
C45   H18   S    
C10   C22   A    
C26   C27   A    
C20   H5    S    
C30   C35   A    
C28   C29   A    
C38   C42   S    
C38   C39   S    
C11   C43   S    
C9    C22   A    
C15   C16   A    
C11   C24   A    
C18   C19   A    
C23   O5    A    
N5    H17   S    
C2    C7    S    
C9    N8    S    
C2    C39   S    
C31   C32   A    
C7    C40   T    
Cu2   O8    S    
C34   O8    A    
C36   H8    S    
C16   C20   A    
C39   H1    S    
C25   C37   A    
C25   C32   A    
N8    C48   S    
C16   C24   A    
C13   C14   A    
C34   C41   S    
C1    O1    A    
C45   H19   S    
C10   C21   A    
C35   H11   S    
C27   C46   S    
C8    C41   T    
C4    C6    S    
Cu2   N2    S    
C33   H6    S    
N8    H21   S    
C12   O4    A    
Cu2   O2    S    
C23   O6    A    
C12   C40   S    
Cu1   Cu2   S    
C25   H7    S    
C29   C30   A    
C47   N7    T    
C38   H10   S    
Cu1   O3    S    
C6    C39   S    
C17   C18   A    
N5    C45   S    
C34   O7    A    
C4    C38   S    
C30   N2    A    
C19   H16   S    
Cu2   O6    S    
C2    C5    S    
C3    C4    S    
C1    O2    A    
Cu1   N1    S    
C21   H2    S    
C45   H20   S    
C15   C17   A    
C37   C44   S    
C14   C15   A    
C6    H12   S    
C3    C5    S    
C42   H15   S    
C13   H4    S    
C37   N1    A    
C14   H3    S    
C10   C23   S    
C12   O3    A    
C5    H13   S    
C22   C47   S    
C48   H23   S    
C26   N2    A    
C43   N3    T    
C29   C31   A    
C32   C33   A    
C11   C13   A    
C5    C6    S    
C2    C42   S    
C33   C35   A    
C17   C21   A    
C3    H14   S    
C9    C18   A    
C1    C24   S    
Cu1   O5    S    
C48   H24   S    
C27   C28   A    
C31   C36   A    
Cu1   O7    S    
C28   N5    S    
C36   N1    A    
