data_mof_unit_37777.cif
_audit_creation_date              2012-12-10T16:59:12-0500
_audit_creation_method            fapswitch 2.2
_symmetry_space_group_name_H-M    P1
_symmetry_Int_Tables_number       1
_space_group_crystal_system       triclinic
_cell_length_a                    7.722982
_cell_length_b                    8.61274
_cell_length_c                    27.756491
_cell_angle_alpha                 90.990434
_cell_angle_beta                  86.338311
_cell_angle_gamma                 93.57637
_cell_volume                      1838.7305595

loop_
_atom_site_label
_atom_site_type_symbol
_atom_type_description
_atom_site_fract_x
_atom_site_fract_y
_atom_site_fract_z
_atom_type_partial_charge
C1    C     C_R   0.545475 0.794459 0.498744 0.871508
C2    C     C_R   0.527657 0.639846 0.127737 -0.019725
C3    C     C_R   0.510332 0.499021 0.646538 -0.288194
C4    C     C_R   0.489665 0.500972 0.353463 -0.288179
C5    C     C_R   0.540447 0.640975 0.025717 0.096916
C6    C     C_R   0.459543 0.359033 0.974282 0.096916
C7    C     C_R   0.451489 0.359988 0.025485 -0.035938
C8    C     C_R   0.548520 0.640016 0.974513 -0.035945
C9    C     C_R   0.492695 0.500709 0.050871 0.082954
C10   C     C_R   0.507304 0.499297 0.949127 0.082953
C11   C     C_R   0.578310 0.778111 0.052940 -0.208264
C12   C     C_R   0.454525 0.205541 0.501256 0.871615
C13   C     C_R   0.421648 0.221903 0.947059 -0.208244
C14   C     C_R   0.572816 0.776922 0.102840 -0.045703
C15   C     C_R   0.427135 0.223094 0.897159 -0.045711
C16   C     C_R   0.503297 0.500005 0.593969 0.942659
C17   C     C_R   0.496702 0.499989 0.406032 0.942683
C18   C     C_R   0.597771 0.775440 0.947559 -0.320771
C19   C     C_R   0.402269 0.224557 0.052440 -0.320756
C20   C     C_2   0.569965 0.956765 0.498111 0.295527
C21   C     C_2   0.430035 0.043235 0.501888 0.295512
C22   C     C_R   0.563021 0.632674 0.821648 0.638645
C23   C     C_R   0.513733 0.498751 0.897918 -0.134288
C24   C     C_R   0.437004 0.367329 0.178351 0.638913
C25   C     C_R   0.476627 0.361831 0.821899 0.588681
C26   C     C_R   0.523330 0.638185 0.178100 0.588397
C27   C     C_R   0.358745 0.497657 0.725583 -0.145211
C28   C     C_R   0.641277 0.502783 0.274421 -0.145107
C29   C     C_R   0.354780 0.498845 0.675702 -0.213279
C30   C     C_R   0.645247 0.501583 0.324301 -0.213332
C31   C     C_R   0.670548 0.498093 0.668222 0.535440
C32   C     C_R   0.329416 0.501471 0.331779 0.535436
C33   C     C_R   0.673554 0.497031 0.718246 0.636075
C34   C     C_R   0.486263 0.501256 0.102081 -0.134295
C35   C     C_R   0.326405 0.502545 0.281756 0.636083
C36   C     C_R   0.517780 0.496873 0.746774 0.054770
C37   C     C_R   0.482208 0.503140 0.253227 0.054677
C38   C     C_R   0.561100 0.636589 0.872227 -0.185374
C39   C     C_R   0.438919 0.363414 0.127772 -0.185431
C40   C     C_R   0.604187 0.773955 0.897580 0.687040
C41   C     C_R   0.395854 0.226044 0.102418 0.687033
C42   C     C_R   0.472312 0.360166 0.872262 -0.019773
F1    F     F_    0.823966 0.499168 0.641403 -0.617853
F2    F     F_    0.175972 0.499936 0.358598 -0.617926
F3    F     F_    0.827672 0.495898 0.739136 -0.615727
F4    F     F_    0.172252 0.503261 0.260866 -0.615726
F5    F     F_    0.653919 0.908636 0.874411 -0.614497
F6    F     F_    0.346138 0.091360 0.125588 -0.614525
F7    F     F_    0.737896 0.016935 0.493685 -0.605983
F8    F     F_    0.262104 0.983065 0.506315 -0.606002
H1    H     H_    0.014443 0.383522 0.463564 0.240719
H2    H     H_    0.386943 0.110246 0.962812 0.143797
H3    H     H_    0.633578 0.886162 0.963713 0.169380
H4    H     H_    0.366494 0.113829 0.036286 0.169363
H5    H     H_    0.985557 0.616478 0.536436 0.240601
H6    H     H_    0.770187 0.501489 0.339944 0.257596
H7    H     H_    0.229864 0.499283 0.660061 0.257598
H8    H     H_    0.761612 0.503029 0.252120 0.229166
H9    H     H_    0.238434 0.497747 0.747885 0.229134
H10   H     H_    0.604666 0.884802 0.121882 0.223247
H11   H     H_    0.395265 0.115217 0.878117 0.223205
H12   H     H_    0.612984 0.889774 0.037186 0.143794
N1    N     N_R   0.520446 0.496873 0.797973 -0.338161
N2    N     N_R   0.479542 0.503137 0.202027 -0.338166
N3    N     N_2   0.950320 0.457960 0.486880 -0.125893
N4    N     N_2   0.049680 0.542040 0.513120 -0.125921
O1    O     O_R   0.389250 0.738570 0.503220 -0.578465
O2    O     O_2   0.394913 0.236935 0.203886 -0.422612
O3    O     O_2   0.562544 0.770186 0.203131 -0.486897
O4    O     O_2   0.437366 0.229841 0.796868 -0.486834
O5    O     O_R   0.610750 0.261430 0.496780 -0.578416
O6    O     O_R   0.678390 0.711630 0.494810 -0.585999
O7    O     O_R   0.321610 0.288370 0.505190 -0.585927
O8    O     O_R   0.355440 0.513440 0.575450 -0.618567
O9    O     O_R   0.644560 0.486560 0.424550 -0.618552
O10   O     O_R   0.644590 0.486500 0.567040 -0.572248
O11   O     O_R   0.355410 0.513500 0.432960 -0.572286
O12   O     O_2   0.605162 0.763056 0.796111 -0.422734
Zn1   Zn    Zn3+2 0.306940 0.517990 0.505620 1.085689
Zn2   Zn    Zn3+2 0.693060 0.482010 0.494380 1.085713

loop_
_geom_bond_atom_site_label_1
_geom_bond_atom_site_label_2
_ccdc_geom_bond_type
C40   F5    S    
C27   C29   A    
C33   F3    S    
C11   H12   S    
C37   N2    S    
C39   C41   A    
N4    Zn1   S    
C23   C42   A    
C31   F1    S    
C16   O8    A    
C35   C37   A    
C5    C11   A    
C25   N1    A    
C11   C14   A    
C22   C38   A    
C33   C36   A    
H1    N3    S    
C3    C29   A    
C18   C40   A    
C21   F8    S    
C26   N2    A    
C18   H3    S    
C22   N1    A    
C31   C33   A    
C36   N1    S    
O9    Zn2   S    
C2    C34   A    
C24   N2    A    
N3    Zn2   S    
C12   O7    A    
O5    Zn2   S    
O11   Zn1   S    
C15   H11   S    
C1    O6    A    
C34   C39   A    
C32   C35   A    
O1    Zn1   S    
C22   O12   S    
C30   H6    S    
C12   C21   S    
C8    C18   A    
C5    C9    A    
C20   F7    S    
C13   H2    S    
C17   O11   A    
C32   F2    S    
C2    C26   A    
C3    C31   A    
C4    C32   A    
C4    C17   S    
C19   H4    S    
C12   O5    A    
C29   H7    S    
C7    C19   A    
O8    Zn1   S    
C13   C15   A    
C9    C34   A    
C10   C23   A    
H5    N4    S    
C7    C9    A    
C1    C20   S    
C16   O10   A    
O10   Zn2   S    
C15   C42   A    
O7    Zn1   S    
C25   C42   A    
C6    C10   A    
C5    C8    A    
C6    C7    A    
C28   H8    S    
C27   C36   A    
C23   C38   A    
C14   H10   S    
C28   C30   A    
O6    Zn2   S    
C27   H9    S    
C6    C13   A    
C38   C40   A    
C28   C37   A    
C1    O1    A    
C41   F6    S    
C2    C14   A    
C24   O2    S    
C20   C21   D    
C8    C10   A    
N3    N4    D    
C17   O9    A    
C26   O3    S    
C25   O4    S    
C35   F4    S    
C24   C39   A    
C4    C30   A    
C3    C16   S    
C19   C41   A    
