data_mof_unit_44439.cif
_audit_creation_date              2013-03-05T15:40:34-0500
_audit_creation_method            fapswitch 2.2
_symmetry_space_group_name_H-M    P1
_symmetry_Int_Tables_number       1
_space_group_crystal_system       triclinic
_cell_length_a                    7.712676
_cell_length_b                    8.638429
_cell_length_c                    10.936805
_cell_angle_alpha                 92.240767
_cell_angle_beta                  86.035817
_cell_angle_gamma                 93.356695
_cell_volume                      725.228952363

loop_
_atom_site_label
_atom_site_type_symbol
_atom_site_description
_atom_site_fract_x
_atom_site_fract_y
_atom_site_fract_z
_atom_type_partial_charge
O1    O     O_R   0.389250 0.738570 0.508280 -0.582744
O2    O     O_R   0.610750 0.261430 0.491720 -0.600326
O3    O     O_R   0.678390 0.711630 0.486650 -0.591646
O4    O     O_R   0.321610 0.288370 0.513350 -0.585506
C1    C     C_R   0.545876 0.794361 0.500819 0.885778
C2    C     C_R   0.455322 0.205698 0.505919 0.884962
O5    O     O_R   0.355430 0.513480 0.694040 -0.665953
O6    O     O_R   0.644570 0.486520 0.305960 -0.657502
O7    O     O_R   0.644570 0.486540 0.672410 -0.539327
O8    O     O_R   0.355430 0.513460 0.327590 -0.536319
C3    C     C_R   0.503268 0.503289 0.740009 0.884327
C4    C     C_R   0.496650 0.496431 0.260000 0.920856
Zn1   Zn    Zn3+2 0.306940 0.517990 0.514440 1.050241
Zn2   Zn    Zn3+2 0.693060 0.482010 0.485560 1.044254
H1    H     H_    0.066222 0.353062 0.883279 0.152484
H2    H     H_    0.933235 0.645525 0.116862 0.166142
C5    C     C_R   0.211966 0.615911 0.893973 -0.161828
C6    C     C_R   0.787387 0.382664 0.106118 -0.153416
C7    C     C_R   0.042278 0.583969 0.945697 -0.184820
C8    C     C_R   0.957152 0.414641 0.054433 -0.192783
C9    C     C_R   0.028192 0.568409 0.073644 -0.184401
C10   C     C_R   0.971272 0.430224 0.926483 -0.180592
C11   C     C_R   0.187086 0.589069 0.134610 0.482383
C12   C     C_R   0.812449 0.409764 0.865442 0.489260
C13   C     C_R   0.344138 0.538784 0.071038 0.023618
C14   C     C_R   0.655344 0.459921 0.928979 0.023406
C15   C     C_R   0.355209 0.550578 0.943882 0.001684
C16   C     C_R   0.644239 0.448084 0.056136 -0.001432
C17   C     C_R   0.492395 0.492053 0.127623 -0.193760
C18   C     C_R   0.507216 0.506935 0.872389 -0.197052
H3    H     H_    0.231399 0.695905 0.820017 0.154395
H4    H     H_    0.767746 0.302615 0.180137 0.168529
H5    H     H_    0.959904 0.670834 0.914433 0.152178
H6    H     H_    0.039562 0.327818 0.085697 0.160002
C19   C     C_2   0.572463 0.956556 0.497248 0.176455
C20   C     C_2   0.435423 0.045363 0.526913 0.248392
N1    N     N_2   0.950330 0.457950 0.466250 0.170925
N2    N     N_2   0.049670 0.542050 0.533750 0.178364
O9    O     O_3   0.201211 0.702652 0.226772 -0.739775
H7    H     H_    0.084415 0.718407 0.267582 0.339349
O10   O     O_3   0.798590 0.296848 0.772818 -0.771181
H8    H     H_    0.915554 0.281470 0.732169 0.321924
O11   O     O_3   0.731958 0.015685 0.446055 -0.635993
C21   C     C_3   0.861046 0.009969 0.531391 -0.127366
H9    H     H_    0.938280 0.906948 0.510011 0.230635
H10   H     H_    0.809026 0.009843 0.629194 0.128994
H11   H     H_    0.951689 0.113618 0.521311 0.221624
O12   O     O_3   0.276718 0.986964 0.579086 -0.617002
C22   C     C_3   0.271441 0.018543 0.706855 -0.387483
H12   H     H_    0.274212 0.145540 0.728894 0.179820
H13   H     H_    0.379934 0.965175 0.749096 0.158705
H14   H     H_    0.147273 0.967048 0.748800 0.182470
O13   O     O_3   0.032733 0.360663 0.387122 -0.674571
H15   H     H_    0.938556 0.301645 0.345715 0.338183
O14   O     O_3   0.967350 0.639234 0.612948 -0.689454
H16   H     H_    0.061628 0.698564 0.653950 0.331894

loop_
_geom_bond_atom_site_label_1
_geom_bond_atom_site_label_2
_geom_bond_distance
_ccdc_geom_bond_type
O7    Zn2   2.051159 S    
C6    C16   1.420490 A    
C14   C18   1.423015 A    
H2    C9    1.090050 S    
C4    C17   1.449383 S    
C13   C15   1.394743 A    
C19   O11   1.393258 S    
O10   H8    0.991494 S    
C14   C16   1.394785 A    
C19   C20   1.356095 D    
C21   H11   1.107400 S    
O6    C4    1.286715 A    
O11   C21   1.415122 S    
C22   H14   1.109405 S    
C8    H6    1.090573 S    
O14   H16   0.987909 S    
C9    C11   1.433997 A    
O2    Zn2   1.975047 S    
N1    O13   1.337443 S    
O13   H15   0.988259 S    
C21   H9    1.108178 S    
Zn2   N1    2.002981 S    
O5    C3    1.286513 A    
C12   O10   1.383664 S    
O7    C3    1.286049 A    
C12   C14   1.435389 A    
Zn1   N2    2.002981 S    
O2    C2    1.267064 A    
O3    Zn2   1.992909 S    
O8    C4    1.285824 A    
O1    C1    1.272591 A    
C1    C19   1.405775 S    
C16   C17   1.424551 A    
C5    C7    1.405889 A    
N1    N2    1.277063 D    
C2    C20   1.410580 S    
C20   O12   1.389959 S    
C6    C8    1.406321 A    
C11   C13   1.435577 A    
C13   C17   1.422984 A    
C5    H3    1.081211 S    
C10   C12   1.433850 A    
C6    H4    1.082130 S    
C5    C15   1.420383 A    
O5    Zn1   2.027049 S    
C7    C10   1.420174 A    
O1    Zn1   1.975047 S    
C8    C9    1.420428 A    
O4    C2    1.284631 A    
C22   H12   1.113272 S    
C7    H5    1.090669 S    
C22   H13   1.114193 S    
O9    H7    0.991574 S    
O12   C22   1.411525 S    
O6    Zn2   2.027049 S    
C21   H10   1.116169 S    
O3    C1    1.278393 A    
C7    C9    1.407107 A    
C11   O9    1.384156 S    
H1    C10   1.090204 S    
N2    O14   1.337039 S    
O4    Zn1   1.992909 S    
C3    C18   1.449308 S    
C8    C10   1.407174 A    
C15   C18   1.424761 A    
O8    Zn1   2.051159 S    
