data_mof_unit_45190.cif
_audit_creation_date              2013-03-05T15:41:34-0500
_audit_creation_method            fapswitch 2.2
_symmetry_space_group_name_H-M    P1
_symmetry_Int_Tables_number       1
_space_group_crystal_system       triclinic
_cell_length_a                    24.732794
_cell_length_b                    17.566018
_cell_length_c                    15.542395
_cell_angle_alpha                 89.961337
_cell_angle_beta                  129.604759
_cell_angle_gamma                 90.094154
_cell_volume                      5202.52375026

loop_
_atom_site_label
_atom_site_type_symbol
_atom_site_description
_atom_site_fract_x
_atom_site_fract_y
_atom_site_fract_z
_atom_type_partial_charge
C1    C     C_R   0.351278 0.358568 0.243644 -0.189533
C2    C     C_R   0.335379 0.613893 0.203027 -0.104179
C3    C     C_R   0.835114 0.886896 0.202081 -0.170997
C4    C     C_R   0.833734 0.109245 0.199423 -0.201346
N1    N     N_R   0.389430 0.421450 0.294590 -0.071335
N2    N     N_R   0.389430 0.578550 0.294590 -0.076436
N3    N     N_R   0.889430 0.921450 0.294590 -0.075135
N4    N     N_R   0.889430 0.078550 0.294590 -0.074955
C5    C     C_R   0.650233 0.361586 0.757166 -0.103175
C6    C     C_R   0.651290 0.637627 0.759243 -0.101943
C7    C     C_R   0.151075 0.862425 0.759526 -0.104820
C8    C     C_R   0.166541 0.109808 0.798505 -0.091071
H1    H     H_    0.697474 0.347585 0.770327 0.104057
H2    H     H_    0.698652 0.651618 0.772617 0.104078
H3    H     H_    0.198834 0.848681 0.774203 0.095656
H4    H     H_    0.218928 0.110466 0.825086 0.098678
N5    N     N_R   0.612200 0.424040 0.705410 -0.051242
N6    N     N_R   0.612200 0.575960 0.705410 -0.050871
N7    N     N_R   0.112200 0.924040 0.705410 -0.051842
N8    N     N_R   0.112200 0.075960 0.705410 -0.052234
C9    C     C_R   0.616489 0.403548 0.408410 -0.059350
C10   C     C_R   0.615131 0.601548 0.408074 -0.108551
C11   C     C_R   0.114459 0.893323 0.409230 -0.117672
C12   C     C_R   0.116057 0.098467 0.408427 -0.041492
H5    H     H_    0.597228 0.413599 0.324753 0.167746
H6    H     H_    0.591162 0.607844 0.321705 0.172236
H7    H     H_    0.092486 0.885266 0.323864 0.181525
H8    H     H_    0.096402 0.089849 0.324272 0.165487
N9    N     N_R   0.581780 0.422390 0.443390 -0.055871
N10   N     N_R   0.581780 0.577610 0.443390 -0.045832
N11   N     N_R   0.081780 0.922390 0.443390 -0.046088
N12   N     N_R   0.081780 0.077610 0.443390 -0.050018
C13   C     C_R   0.390774 0.385331 0.591932 -0.066170
C14   C     C_R   0.397087 0.623549 0.593146 -0.042678
C15   C     C_R   0.893117 0.879977 0.591170 -0.051817
C16   C     C_R   0.902503 0.132571 0.592617 -0.025687
H9    H     H_    0.412613 0.381176 0.677986 0.139295
H10   H     H_    0.418022 0.626935 0.678711 0.120719
H11   H     H_    0.913419 0.876815 0.676451 0.135772
H12   H     H_    0.927353 0.143303 0.679059 0.136309
N13   N     N_R   0.419850 0.423100 0.556610 -0.057094
N14   N     N_R   0.419850 0.576900 0.556610 -0.054192
N15   N     N_R   0.919850 0.923100 0.556610 -0.055642
N16   N     N_R   0.919850 0.076900 0.556610 -0.047355
C17   C     C_R   0.689973 0.400700 0.592175 -0.147545
C18   C     C_R   0.689734 0.599566 0.592518 -0.136490
C19   C     C_R   0.188625 0.896770 0.594519 -0.150060
C20   C     C_R   0.189387 0.101447 0.592664 -0.129476
H13   H     H_    0.737025 0.398244 0.678649 0.115391
H14   H     H_    0.736761 0.599680 0.679043 0.105374
H15   H     H_    0.235614 0.899001 0.680983 0.101267
H16   H     H_    0.235408 0.106220 0.679635 0.112561
N17   N     N_R   0.627410 0.423100 0.556610 -0.047407
N18   N     N_R   0.627410 0.576900 0.556610 -0.044114
N19   N     N_R   0.127410 0.923100 0.556610 -0.044419
N20   N     N_R   0.127410 0.076900 0.556610 -0.045872
C21   C     C_R   0.316571 0.386322 0.406457 -0.080911
C22   C     C_R   0.323149 0.625815 0.406101 0.025883
C23   C     C_R   0.821577 0.876529 0.404703 -0.016903
C24   C     C_R   0.829733 0.133941 0.405535 -0.013918
H17   H     H_    0.269340 0.388387 0.321249 0.176050
H18   H     H_    0.278831 0.634382 0.319304 0.159871
H19   H     H_    0.777187 0.871819 0.317774 0.169288
H20   H     H_    0.788639 0.144134 0.318754 0.146824
N21   N     N_R   0.374220 0.422390 0.443390 -0.059849
N22   N     N_R   0.374220 0.577610 0.443390 -0.060325
N23   N     N_R   0.874220 0.922390 0.443390 -0.057711
N24   N     N_R   0.874220 0.077610 0.443390 -0.045800
C25   C     C_R   0.560087 0.361243 0.759421 -0.121409
C26   C     C_R   0.562145 0.637145 0.763688 -0.115047
C27   C     C_R   0.061051 0.862345 0.761968 -0.120925
C28   C     C_R   0.076353 0.109713 0.799842 -0.135003
H21   H     H_    0.525118 0.345434 0.775514 0.111517
H22   H     H_    0.529308 0.651672 0.784258 0.108275
H23   H     H_    0.026788 0.847259 0.779724 0.113017
H24   H     H_    0.047577 0.108907 0.830622 0.136891
N25   N     N_R   0.555000 0.424040 0.705410 -0.049729
N26   N     N_R   0.555000 0.575960 0.705410 -0.049740
N27   N     N_R   0.055000 0.924040 0.705410 -0.050325
N28   N     N_R   0.055000 0.075960 0.705410 -0.054844
C29   C     C_R   0.441116 0.357018 0.242377 0.353625
C30   C     C_R   0.424797 0.613635 0.200362 0.325661
C31   C     C_R   0.924713 0.887152 0.199894 0.312412
C32   C     C_R   0.923619 0.114141 0.199682 0.367055
N29   N     N_R   0.446630 0.421450 0.294590 -0.095696
N30   N     N_R   0.446630 0.578550 0.294590 -0.098276
N31   N     N_R   0.946630 0.921450 0.294590 -0.100364
N32   N     N_R   0.946630 0.078550 0.294590 -0.104726
C33   C     C_R   0.383479 0.315726 0.212641 -0.009296
C34   C     C_R   0.355456 0.636239 0.141360 0.000823
C35   C     C_R   0.855165 0.865024 0.140209 -0.009154
C36   C     C_R   0.853293 0.131894 0.137596 -0.011426
C37   C     C_R   0.617930 0.320296 0.789766 0.133959
C38   C     C_R   0.620055 0.678022 0.794168 0.136200
C39   C     C_R   0.119199 0.821693 0.793288 0.134527
C40   C     C_R   0.145893 0.130724 0.859929 0.131898
C41   C     C_R   0.684191 0.386848 0.499665 0.012362
C42   C     C_R   0.683579 0.615798 0.500292 0.025427
C43   C     C_R   0.181104 0.875215 0.503261 0.049421
C44   C     C_R   0.183549 0.116695 0.500169 -0.004573
C45   C     C_R   0.327037 0.357411 0.497929 0.096587
C46   C     C_R   0.337626 0.657540 0.499497 0.051659
C47   C     C_R   0.832648 0.846854 0.496429 0.048834
C48   C     C_R   0.844658 0.168876 0.497786 0.001664
Ni1   Ni    Ni4+2 0.382890 0.500000 0.370170 0.251059
Ni2   Ni    Ni4+2 0.882890 0.000000 0.370170 0.249012
Ni3   Ni    Ni4+2 0.618740 0.500000 0.629830 0.216122
Ni4   Ni    Ni4+2 0.118740 0.000000 0.629830 0.208687
Ni5   Ni    Ni4+2 0.514090 0.500000 0.370170 0.296827
Ni6   Ni    Ni4+2 0.014090 0.000000 0.370170 0.287213
Ni7   Ni    Ni4+2 0.487550 0.500000 0.629830 0.256366
Ni8   Ni    Ni4+2 0.987550 0.000000 0.629830 0.263724
C49   C     C_3   0.339419 0.235700 0.585667 -0.449833
C50   C     C_3   0.333344 0.740894 0.622539 -0.455206
C51   C     C_3   0.842429 0.733656 0.597313 -0.449977
C52   C     C_3   0.848005 0.292835 0.572413 -0.419461
H25   H     H_    0.377825 0.260971 0.670119 0.209991
H26   H     H_    0.335945 0.694622 0.673757 0.234116
H27   H     H_    0.875444 0.764761 0.677908 0.212301
H28   H     H_    0.893777 0.273731 0.657360 0.216611
C53   C     C_3   0.802544 0.672329 0.606847 -0.366525
C54   C     C_3   0.806032 0.351886 0.581777 -0.351555
C55   C     C_3   0.301669 0.170928 0.594436 -0.358782
C56   C     C_3   0.295411 0.808359 0.623596 -0.416221
H29   H     H_    0.826178 0.615457 0.618439 0.161414
H30   H     H_    0.815285 0.409788 0.564263 0.154907
H31   H     H_    0.321202 0.115040 0.590564 0.160928
H32   H     H_    0.327863 0.860896 0.650762 0.180065
C57   C     C_3   0.238688 0.324467 0.525415 0.538570
C58   C     C_3   0.219535 0.680985 0.448620 0.521695
C59   C     C_3   0.735535 0.820652 0.505708 0.549800
C60   C     C_3   0.762756 0.189757 0.541130 0.530900
C61   C     C_3   0.241119 0.250659 0.379431 0.166663
C62   C     C_3   0.290812 0.789167 0.437991 0.206573
C63   C     C_3   0.754578 0.733284 0.387498 0.184016
C64   C     C_3   0.743907 0.261397 0.374067 0.165324
C65   C     C_3   0.285327 0.295786 0.495035 -0.070444
C66   C     C_3   0.294841 0.714411 0.499130 -0.063165
C67   C     C_3   0.790018 0.787134 0.493802 -0.067316
C68   C     C_3   0.799439 0.225008 0.495088 -0.059748
H33   H     H_    0.278628 0.232518 0.366313 0.087503
H34   H     H_    0.342766 0.818199 0.496548 0.114790
H35   H     H_    0.797270 0.713454 0.387120 0.098266
H36   H     H_    0.774134 0.285468 0.349537 0.099589
C69   C     C_3   0.725134 0.673860 0.499795 0.249045
C70   C     C_3   0.727371 0.331572 0.497166 0.233178
C71   C     C_3   0.222263 0.178302 0.497832 0.249842
C72   C     C_3   0.224166 0.819335 0.504557 0.243837
C73   C     C_3   0.691042 0.751615 0.490529 -0.503715
C74   C     C_3   0.712998 0.252541 0.525285 -0.484348
C75   C     C_3   0.193900 0.254560 0.507844 -0.490435
C76   C     C_3   0.183466 0.742688 0.467615 -0.511174
C77   C     C_3   0.724249 0.662177 0.400166 -0.472064
C78   C     C_3   0.706821 0.328302 0.379822 -0.471397
C79   C     C_3   0.210707 0.177614 0.387462 -0.470539
C80   C     C_3   0.237191 0.843650 0.423383 -0.482314
H37   H     H_    0.756322 0.611398 0.415651 0.154248
H38   H     H_    0.721379 0.382710 0.362284 0.158151
H39   H     H_    0.236569 0.126793 0.384972 0.158081
H40   H     H_    0.257815 0.902971 0.441497 0.155931
H41   H     H_    0.671352 0.650202 0.320406 0.210401
H42   H     H_    0.649419 0.321413 0.312790 0.237048
H43   H     H_    0.154546 0.173454 0.312816 0.229303
H44   H     H_    0.187061 0.842779 0.336221 0.241304
H45   H     H_    0.638036 0.754012 0.406796 0.213326
H46   H     H_    0.657151 0.237798 0.455684 0.229765
H47   H     H_    0.138686 0.261427 0.429825 0.226043
H48   H     H_    0.127165 0.748836 0.393625 0.212245
H49   H     H_    0.214481 0.631548 0.994421 0.146221
H50   H     H_    0.284956 0.223236 0.176937 0.159717
H51   H     H_    0.712650 0.130361 0.990550 0.148676
H52   H     H_    0.714240 0.869933 0.992603 0.147216
H53   H     H_    0.713936 0.226004 0.822790 0.150783
H54   H     H_    0.713031 0.774936 0.822146 0.161477
H55   H     H_    0.213277 0.725919 0.823444 0.135865
H56   H     H_    0.285845 0.127909 0.008517 0.141488
C81   C     C_2   0.642916 0.248798 0.851868 -0.194726
C82   C     C_2   0.645536 0.749022 0.857456 -0.191173
C83   C     C_2   0.144656 0.750790 0.856750 -0.173286
C84   C     C_2   0.191438 0.159513 0.974372 -0.168977
C85   C     C_2   0.694629 0.210108 0.866441 -0.087063
C86   C     C_2   0.695247 0.789616 0.868365 -0.088027
C87   C     C_2   0.195185 0.711033 0.869190 -0.103189
C88   C     C_2   0.261163 0.156714 0.037276 -0.094630
C89   C     C_2   0.308208 0.664809 0.026529 -0.090635
C90   C     C_2   0.356160 0.245225 0.147772 -0.077020
C91   C     C_2   0.806978 0.162263 0.023935 -0.070311
C92   C     C_2   0.808004 0.836658 0.025229 -0.076480
C93   C     C_2   0.238568 0.660885 0.964964 -0.093945
C94   C     C_2   0.303922 0.207283 0.132847 -0.126560
C95   C     C_2   0.737269 0.159479 0.961826 -0.108676
C96   C     C_2   0.738384 0.840502 0.963399 -0.100433
H57   H     H_    0.302781 0.345823 0.226849 0.155555
H58   H     H_    0.283009 0.613810 0.176315 0.133646
H59   H     H_    0.782648 0.887231 0.174969 0.149533
H60   H     H_    0.781109 0.106098 0.171474 0.150623
H61   H     H_    0.370813 0.211606 0.563581 0.178389
H62   H     H_    0.388440 0.758545 0.664802 0.177384
H63   H     H_    0.879318 0.705964 0.588851 0.177771
H64   H     H_    0.870538 0.320968 0.537259 0.175087
H65   H     H_    0.313848 0.173915 0.676564 0.209401
H66   H     H_    0.288318 0.795554 0.685974 0.179096
H67   H     H_    0.807475 0.683820 0.681848 0.210483
H68   H     H_    0.824410 0.352999 0.668182 0.212358
N33   N     N_R   0.283811 0.351081 0.642795 0.228691
O1    O     O_R   0.305692 0.421282 0.666343 -0.298814
O2    O     O_R   0.299819 0.307255 0.723718 -0.405859
N34   N     N_R   0.223036 0.611015 0.505514 0.251385
O3    O     O_R   0.164981 0.581633 0.475984 -0.277752
O4    O     O_R   0.281284 0.574881 0.579344 -0.352886
N35   N     N_R   0.773307 0.856081 0.617144 0.232283
O5    O     O_R   0.794924 0.926198 0.632794 -0.281791
O6    O     O_R   0.782144 0.820897 0.699087 -0.416030
N36   N     N_R   0.815071 0.169505 0.661193 0.217075
O7    O     O_R   0.828843 0.098336 0.691470 -0.284945
O8    O     O_R   0.842274 0.220800 0.739233 -0.420069
H69   H     H_    0.680425 0.754657 0.550043 0.205843
H70   H     H_    0.716969 0.255473 0.600647 0.191584
H71   H     H_    0.189784 0.251806 0.574932 0.205953
H72   H     H_    0.182123 0.724613 0.535060 0.183883
N37   N     N_R   0.699971 0.768436 0.277951 0.244423
O9    O     O_R   0.638389 0.784227 0.246876 -0.333376
O10   O     O_R   0.706246 0.764293 0.201019 -0.421960
N38   N     N_R   0.690597 0.209154 0.284001 0.247469
O11   O     O_R   0.640785 0.181668 0.281601 -0.292427
O12   O     O_R   0.680513 0.209207 0.190896 -0.409117
N39   N     N_R   0.184380 0.293733 0.279468 0.248410
O13   O     O_R   0.127556 0.311711 0.263458 -0.298063
O14   O     O_R   0.182040 0.294699 0.193374 -0.426158
N40   N     N_R   0.279742 0.778530 0.333744 0.229233
O15   O     O_R   0.217361 0.771156 0.237623 -0.344080
O16   O     O_R   0.332594 0.787354 0.335197 -0.399045
N41   N     N_R   0.190626 0.387566 0.454596 0.272134
O17   O     O_R   0.205571 0.436118 0.409246 -0.286301
O18   O     O_R   0.140913 0.405345 0.457989 -0.294457
N42   N     N_R   0.176500 0.663092 0.328047 0.233327
O19   O     O_R   0.127327 0.708933 0.251760 -0.339866
O20   O     O_R   0.175559 0.593683 0.297692 -0.318882
N43   N     N_R   0.686744 0.878715 0.421915 0.269302
O21   O     O_R   0.699896 0.917097 0.365648 -0.308092
O22   O     O_R   0.635248 0.901756 0.418150 -0.290951
N44   N     N_R   0.720851 0.120441 0.480353 0.273659
O23   O     O_R   0.672049 0.100046 0.484893 -0.283746
O24   O     O_R   0.744146 0.068644 0.451604 -0.294922
H73   H     H_    0.330591 0.695735 0.995272 0.177290
H74   H     H_    0.373570 0.229002 0.101422 0.184248
H75   H     H_    0.830494 0.192678 0.994056 0.183419
H76   H     H_    0.830362 0.805435 0.994270 0.188308
H77   H     H_    0.624484 0.232723 0.896879 0.167005
H78   H     H_    0.628673 0.763730 0.905088 0.170238
H79   H     H_    0.127384 0.735811 0.903760 0.165928
H80   H     H_    0.167385 0.188845 0.004030 0.178002
N45   N     N_R   0.481975 0.338705 0.209778 0.208377
O25   O     O_R   0.480315 0.383517 0.141564 -0.330803
O26   O     O_R   0.507680 0.270557 0.227505 -0.376701
N46   N     N_R   0.457699 0.603898 0.151835 0.222790
O27   O     O_R   0.487938 0.539784 0.163720 -0.377056
O28   O     O_R   0.455081 0.657562 0.091604 -0.378629
N47   N     N_R   0.958463 0.896668 0.152603 0.229866
O29   O     O_R   0.994182 0.958136 0.172881 -0.392456
O30   O     O_R   0.953157 0.844649 0.088088 -0.355364
N48   N     N_R   0.963442 0.125586 0.163422 0.225251
O31   O     O_R   0.940617 0.096588 0.068532 -0.299910
O32   O     O_R   0.004346 0.184812 0.201112 -0.388991

loop_
_geom_bond_atom_site_label_1
_geom_bond_atom_site_label_2
_geom_bond_distance
_ccdc_geom_bond_type
C22   H18   1.076558 S    
C11   C43   1.372490 A    
C35   C92   1.464263 S    
C61   C65   1.595792 S    
C10   C42   1.374192 A    
C26   N26   1.342924 A    
C60   C74   1.552140 S    
C41   C70   1.463293 S    
C53   C69   1.540537 S    
C25   N25   1.342330 A    
N43   O21   1.298581 A    
C14   N14   1.311746 A    
H49   C93   1.084663 S    
C4    N4    1.334043 A    
C32   N48   1.426559 S    
N38   O11   1.300684 A    
H54   C86   1.086044 S    
C27   N27   1.342055 A    
C76   H72   1.115652 S    
C36   C91   1.462263 S    
N31   Ni6   1.887680 S    
N1    Ni1   1.885506 S    
N33   O1    1.301298 A    
H52   C96   1.084800 S    
C63   C67   1.595573 S    
C56   C72   1.552170 S    
C43   C72   1.440256 S    
C7    N7    1.332081 A    
C57   N33   1.481857 S    
C14   C46   1.382171 A    
C86   C96   1.452040 S    
N18   Ni3   1.863837 S    
C51   C53   1.529132 S    
N9    Ni5   1.879570 S    
C26   C38   1.386880 A    
C78   H38   1.114023 S    
C3    N3    1.332752 A    
N1    N29   1.414716 A    
N5    Ni3   1.850919 S    
N16   N24   1.355866 A    
C38   C82   1.459075 S    
N45   O25   1.299548 A    
C52   H64   1.113700 S    
C27   C39   1.387629 A    
N36   O8    1.301824 A    
C12   C44   1.373428 A    
C6    C38   1.389938 A    
C44   C71   1.459498 S    
C74   H46   1.113234 S    
N27   Ni8   1.857408 S    
C19   C43   1.361558 A    
N42   O19   1.302598 A    
C3    C35   1.388323 A    
C46   C66   1.453808 S    
C54   H68   1.110057 S    
C21   H17   1.071169 S    
C2    C34   1.387437 A    
C51   H63   1.113945 S    
C5    H1    1.078744 S    
N6    Ni3   1.852443 S    
N20   Ni4   1.863837 S    
C91   H75   1.087374 S    
C23   N23   1.305673 A    
C70   C74   1.562138 S    
C7    H3    1.078372 S    
C22   N22   1.310686 A    
N3    N31   1.414716 A    
C8    H4    1.080314 S    
C59   N43   1.480240 S    
N34   O3    1.302471 A    
N46   O28   1.300341 A    
C26   H22   1.076439 S    
N44   O24   1.299976 A    
C25   H21   1.078263 S    
N26   Ni7   1.854605 S    
C22   C46   1.372459 A    
C11   H7    1.075369 S    
C42   C69   1.450255 S    
C71   C79   1.549012 S    
N41   O17   1.300428 A    
C91   C95   1.335893 D    
C18   N18   1.321930 A    
C1    N1    1.335148 A    
C64   C68   1.593878 S    
N47   O29   1.299210 A    
C56   H32   1.113627 S    
N32   Ni6   1.890526 S    
N7    Ni4   1.850919 S    
C18   H14   1.080316 S    
C54   C70   1.542101 S    
C18   C42   1.371327 A    
C19   N19   1.310685 A    
H53   C85   1.085661 S    
C49   C55   1.530814 S    
N37   O10   1.302233 A    
C61   C79   1.531010 S    
C30   N46   1.429489 S    
C64   C78   1.529331 S    
C2    N2    1.331820 A    
N24   Ni2   1.874521 S    
C63   N37   1.474364 S    
C87   C93   1.451903 S    
N21   Ni1   1.872892 S    
C76   H48   1.109859 S    
C61   N39   1.475718 S    
H56   C88   1.085218 S    
N44   O23   1.302833 A    
C83   C87   1.334741 D    
N33   O2    1.302356 A    
C20   C44   1.376313 A    
C62   C80   1.531758 S    
C27   H23   1.077883 S    
N2    Ni1   1.883954 S    
N8    N28   1.414716 A    
N10   Ni5   1.876689 S    
C79   H39   1.114035 S    
C12   H8    1.076743 S    
C75   H47   1.113055 S    
C16   H12   1.079567 S    
N30   Ni5   1.890526 S    
C73   H45   1.113084 S    
C53   H67   1.110596 S    
C6    H2    1.079102 S    
N45   O26   1.300709 A    
C59   C67   1.586622 S    
C37   C81   1.459902 S    
N36   O7    1.302544 A    
C4    C36   1.381023 A    
C19   H15   1.080190 S    
C79   H43   1.107197 S    
C30   N30   1.344561 A    
C9    N9    1.318449 A    
N28   Ni8   1.854605 S    
C13   H9    1.079290 S    
C4    H60   1.079238 S    
C48   C68   1.472598 S    
C57   N41   1.479072 S    
N4    N32   1.414716 A    
C29   N29   1.348252 A    
C32   N32   1.349163 A    
C54   H30   1.113244 S    
C15   C47   1.390691 A    
C71   C75   1.566271 S    
N14   Ni7   1.870653 S    
C12   N12   1.316933 A    
N35   O5    1.301718 A    
C53   H29   1.113368 S    
N37   O9    1.301275 A    
C90   C94   1.335107 D    
C47   C67   1.468130 S    
C62   H34   1.116676 S    
N10   N18   1.355866 A    
N17   Ni3   1.865462 S    
C32   C36   1.383899 A    
C55   H31   1.113342 S    
N39   O13   1.300912 A    
C64   N38   1.478089 S    
C58   N34   1.483697 S    
C80   H40   1.113935 S    
N6    N26   1.414716 A    
C55   H65   1.110251 S    
C81   H77   1.087612 S    
N46   O27   1.299309 A    
C8    N8    1.331380 A    
N5    N25   1.414716 A    
C17   H13   1.080946 S    
C74   H70   1.112502 S    
N3    Ni2   1.885506 S    
H51   C95   1.084872 S    
C28   H24   1.081496 S    
N43   O22   1.302324 A    
C73   H69   1.112318 S    
C30   C34   1.391546 A    
C40   C84   1.460554 S    
N40   O16   1.301908 A    
N41   O18   1.302314 A    
C80   H44   1.109581 S    
C82   C86   1.334288 D    
C10   H6    1.072867 S    
N12   Ni6   1.876689 S    
C89   C93   1.336187 D    
C49   H25   1.109950 S    
N16   Ni8   1.870653 S    
C50   C66   1.572638 S    
C39   C83   1.459334 S    
N35   O6    1.302412 A    
C51   C67   1.579277 S    
C51   H27   1.108942 S    
C50   H62   1.114518 S    
C59   N35   1.482028 S    
C70   C78   1.551142 S    
C64   H36   1.115889 S    
C88   C94   1.452492 S    
C23   H19   1.070634 S    
C16   N16   1.327351 A    
C60   N36   1.484962 S    
N15   Ni8   1.867787 S    
N22   Ni1   1.874521 S    
C31   C35   1.390793 A    
C58   C66   1.600897 S    
C5    C37   1.390969 A    
C90   H74   1.087087 S    
C84   C88   1.335200 D    
N38   O12   1.302337 A    
C89   H73   1.085882 S    
C52   C54   1.539863 S    
C25   C37   1.388925 A    
C7    C39   1.390682 A    
C69   C77   1.548414 S    
C20   N20   1.323870 A    
C9    H5    1.076541 S    
C50   H26   1.110182 S    
C1    C33   1.387294 A    
C10   N10   1.316926 A    
N39   O14   1.302072 A    
C14   H10   1.078103 S    
H55   C87   1.085868 S    
C61   H33   1.116218 S    
C29   N45   1.426708 S    
C78   H42   1.108789 S    
C72   C76   1.554153 S    
C21   N21   1.310673 A    
N47   O30   1.300270 A    
N4    Ni2   1.883954 S    
C31   N31   1.343851 A    
C62   C66   1.585972 S    
N13   N21   1.355854 A    
C75   H71   1.111402 S    
N23   Ni2   1.872892 S    
C57   C75   1.555589 S    
N48   O31   1.300684 A    
C34   C89   1.464361 S    
C23   C47   1.371469 A    
C60   C68   1.594996 S    
C21   C45   1.369822 A    
C92   C96   1.335483 D    
H50   C94   1.085687 S    
N29   Ni5   1.887680 S    
N2    N30   1.414716 A    
C16   C48   1.392529 A    
N19   Ni4   1.865462 S    
C24   H20   1.066178 S    
C49   C65   1.577345 S    
C13   N13   1.326641 A    
N11   N19   1.355854 A    
C13   C45   1.386400 A    
C45   C65   1.474889 S    
C55   C71   1.539201 S    
C15   N15   1.322913 A    
C50   C56   1.519304 S    
C28   N28   1.340335 A    
N34   O4    1.299763 A    
C17   C41   1.373017 A    
C58   C76   1.548294 S    
C84   H80   1.087563 S    
C33   C90   1.461894 S    
N9    N17   1.355854 A    
C6    N6    1.332151 A    
C81   C85   1.335034 D    
C15   H11   1.078662 S    
C60   N44   1.482639 S    
C58   N42   1.483280 S    
C63   H35   1.115980 S    
N11   Ni6   1.879570 S    
N42   O20   1.302447 A    
C92   H76   1.085693 S    
C5    N5    1.331511 A    
C82   H78   1.087681 S    
C62   N40   1.473000 S    
C29   C33   1.388853 A    
C77   H37   1.114196 S    
N40   O15   1.299967 A    
C3    H59   1.079047 S    
C59   C73   1.549920 S    
C9    C41   1.369153 A    
N25   Ni7   1.857408 S    
C17   N17   1.328864 A    
C11   N11   1.320874 A    
C28   C40   1.384547 A    
C52   H28   1.110111 S    
C20   H16   1.080716 S    
N48   O32   1.300295 A    
C57   C65   1.582407 S    
C24   N24   1.308948 A    
N15   N23   1.355854 A    
N13   Ni7   1.867787 S    
C56   H66   1.112533 S    
N14   N22   1.355866 A    
C49   H61   1.114000 S    
C1    H57   1.075603 S    
C8    C40   1.389195 A    
C85   C95   1.452196 S    
C72   C80   1.547552 S    
C2    H58   1.079081 S    
C83   H79   1.087601 S    
C24   C48   1.376333 A    
N12   N20   1.355866 A    
C77   H41   1.106479 S    
C69   C73   1.563962 S    
C63   C77   1.531835 S    
N7    N27   1.414716 A    
N8    Ni4   1.852443 S    
C31   N47   1.430589 S    
C52   C68   1.569520 S    
