data_mof_unit_6067.cif
_audit_creation_date              2013-03-05T15:46:48-0500
_audit_creation_method            fapswitch 2.2
_symmetry_space_group_name_H-M    P1
_symmetry_Int_Tables_number       1
_space_group_crystal_system       triclinic
_cell_length_a                    17.221944
_cell_length_b                    11.044338
_cell_length_c                    9.867045
_cell_angle_alpha                 111.611477
_cell_angle_beta                  94.097127
_cell_angle_gamma                 91.61404
_cell_volume                      1737.36447365

loop_
_atom_site_label
_atom_site_type_symbol
_atom_site_description
_atom_site_fract_x
_atom_site_fract_y
_atom_site_fract_z
_atom_type_partial_charge
O1    O     O_R   0.507280 0.332200 0.576490 -0.597388
O2    O     O_R   0.492720 0.667800 0.423510 -0.601007
O3    O     O_R   0.484240 0.295800 0.334620 -0.546440
O4    O     O_R   0.515760 0.704200 0.665380 -0.545889
C1    C     C_R   0.494345 0.254095 0.441031 0.856395
C2    C     C_R   0.505683 0.745903 0.558962 0.844297
O5    O     O_R   0.399260 0.520290 0.634950 -0.589989
O6    O     O_R   0.600740 0.479710 0.365050 -0.585429
O7    O     O_R   0.376220 0.483890 0.393080 -0.522614
O8    O     O_R   0.623780 0.516110 0.606920 -0.521764
C3    C     C_R   0.351991 0.504497 0.520574 0.874393
C4    C     C_R   0.648046 0.495587 0.479330 0.848892
Cu1   Cu    Cu3+1 0.513640 0.521550 0.643210 1.060506
Cu2   Cu    Cu3+1 0.486360 0.478450 0.356790 1.062791
C5    C     C_R   0.268504 0.514108 0.536588 -0.046028
C6    C     C_R   0.731604 0.486351 0.462791 -0.070941
C7    C     C_R   0.225847 0.593223 0.477843 0.005588
C8    C     C_R   0.774923 0.410866 0.525763 0.014966
C9    C     C_R   0.144974 0.600618 0.490500 0.323194
C10   C     C_R   0.855632 0.402945 0.512122 0.320270
C11   C     C_R   0.108025 0.526907 0.560619 -0.021295
C12   C     C_R   0.892005 0.473078 0.437450 -0.025556
C13   C     C_R   0.151443 0.452884 0.623096 -0.183503
C14   C     C_R   0.847918 0.542301 0.369495 -0.170984
C15   C     C_R   0.231379 0.445118 0.610696 0.087816
C16   C     C_R   0.767820 0.550425 0.382063 0.112283
C17   C     C_2   0.023169 0.517099 0.561470 -0.062418
C18   C     C_2   0.976941 0.483988 0.436891 -0.063661
H1    H     H_    0.001401 0.473489 0.334877 0.182888
H2    H     H_    0.998857 0.528036 0.663701 0.184252
H3    H     H_    0.122561 0.396445 0.676544 0.198146
H4    H     H_    0.876777 0.594881 0.311813 0.190012
H5    H     H_    0.488055 0.863865 0.370471 0.192208
H6    H     H_    0.512138 0.136117 0.629483 0.192437
C19   C     C_2   0.491270 0.114342 0.407842 -0.303780
C20   C     C_2   0.508813 0.885649 0.592135 -0.306608
C21   C     C_2   0.501518 0.069652 0.516006 -0.139049
C22   C     C_2   0.498643 0.930332 0.483953 -0.143835
H7    H     H_    0.519420 0.952371 0.705425 0.172690
H8    H     H_    0.480632 0.047622 0.294556 0.171055
H9    H     H_    0.444355 0.428271 0.854869 0.165845
H10   H     H_    0.554756 0.573582 0.146483 0.170270
N1    N     N_2   0.465840 0.446060 0.141630 -0.071091
N2    N     N_2   0.534160 0.553940 0.858370 -0.072179
C23   C     C_2   0.506560 0.508991 0.079796 0.034776
C24   C     C_2   0.492848 0.492481 0.921076 0.026142
N3    N     N_3   0.266192 0.670295 0.412303 -0.544562
H11   H     H_    0.246585 0.638226 0.301441 0.297063
H12   H     H_    0.253603 0.767948 0.463610 0.254231
N4    N     N_3   0.735327 0.337319 0.596307 -0.539561
H13   H     H_    0.755457 0.372811 0.707085 0.296850
H14   H     H_    0.747929 0.239317 0.548350 0.253764
N5    N     N_3   0.723458 0.627070 0.317542 -0.522798
H15   H     H_    0.706451 0.708312 0.402875 0.212380
H16   H     H_    0.758218 0.662856 0.256336 0.263644
N6    N     N_3   0.274234 0.362436 0.667739 -0.563408
H17   H     H_    0.249898 0.267126 0.615880 0.243403
H18   H     H_    0.266252 0.391796 0.778983 0.281139
N7    N     N_R   0.899571 0.319311 0.567097 0.107587
O9    O     O_R   0.896230 0.327452 0.701449 -0.348271
O10   O     O_R   0.945680 0.238161 0.484418 -0.315520
N8    N     N_R   0.101393 0.686620 0.438710 0.108833
O11   O     O_R   0.054684 0.765633 0.522331 -0.315486
O12   O     O_R   0.105644 0.682701 0.306077 -0.347060
N9    N     N_R   0.604602 0.618211 0.930600 0.227061
O13   O     O_R   0.625760 0.727737 0.919248 -0.314026
O14   O     O_R   0.657383 0.554752 0.973493 -0.364013
N10   N     N_R   0.394652 0.384473 0.070674 0.226755
O15   O     O_R   0.373707 0.272689 0.076657 -0.312415
O16   O     O_R   0.341379 0.452009 0.036216 -0.386252

loop_
_geom_bond_atom_site_label_1
_geom_bond_atom_site_label_2
_geom_bond_distance
_ccdc_geom_bond_type
C9    C11   1.412428 A    
C23   C24   1.508660 S    
N4    H14   1.045544 S    
O7    Cu2   1.953817 S    
C14   H4    1.084343 S    
H10   C23   1.083349 S    
C21   C22   1.450881 S    
N6    H18   1.044392 S    
H6    C21   1.087994 S    
O7    C3    1.295344 A    
N3    H11   1.044573 S    
C15   N6    1.432684 S    
O6    C4    1.296533 A    
H9    C24   1.083757 S    
C17   C18   1.338361 D    
Cu2   N1    2.021435 S    
N8    O11   1.301300 A    
C20   C22   1.334094 D    
N4    H13   1.044599 S    
C11   C17   1.463200 S    
N7    O9    1.300829 A    
N3    H12   1.045535 S    
C12   C18   1.464894 S    
N5    H15   1.045643 S    
N2    C24   1.301848 D    
C10   N7    1.438706 S    
O5    C3    1.297106 A    
N1    C23   1.301213 D    
N2    N9    1.392420 S    
O2    C2    1.295167 A    
O3    Cu2   1.946314 S    
O8    C4    1.296637 A    
O1    C1    1.295189 A    
C1    C19   1.453599 S    
O4    C2    1.295966 A    
C18   H1    1.086954 S    
C7    C9    1.409224 A    
C14   C16   1.396247 A    
C19   H8    1.087389 S    
C8    C10   1.408075 A    
N5    H16   1.045687 S    
C11   C13   1.395466 A    
C6    C16   1.409133 A    
C4    C6    1.461983 S    
O2    Cu2   1.944573 S    
C12   C14   1.395753 A    
C5    C15   1.404933 A    
O1    Cu1   1.944573 S    
C10   C12   1.412175 A    
C9    N8    1.438592 S    
C16   N5    1.438553 S    
C7    N3    1.435937 S    
O5    Cu1   1.965150 S    
C13   C15   1.393025 A    
N6    H17   1.045591 S    
C8    N4    1.436111 S    
C6    C8    1.409980 A    
N9    O13   1.299747 A    
N7    O10   1.301314 A    
C19   C21   1.334097 D    
O4    Cu1   1.946312 S    
C5    C7    1.409797 A    
N10   O16   1.301723 A    
C17   H2    1.086673 S    
N10   O15   1.299779 A    
N8    O12   1.300796 A    
O6    Cu2   1.965147 S    
N9    O14   1.302309 A    
Cu1   Cu2   2.690908 S    
C3    C5    1.460214 S    
C20   H7    1.087385 S    
Cu1   N2    2.021435 S    
H5    C22   1.087998 S    
C2    C20   1.453555 S    
N1    N10   1.391208 S    
O3    C1    1.295964 A    
O8    Cu1   1.953817 S    
C13   H3    1.084535 S    
