data_mof_unit_37141.cif
_audit_creation_date              2013-03-05T16:48:14-0500
_audit_creation_method            fapswitch 2.2
_symmetry_space_group_name_H-M    P1
_symmetry_Int_Tables_number       1
_space_group_crystal_system       triclinic
_cell_length_a                    23.424306
_cell_length_b                    8.92334
_cell_length_c                    8.102492
_cell_angle_alpha                 90.067752
_cell_angle_beta                  89.999976
_cell_angle_gamma                 90.0
_cell_volume                      1693.60637964

loop_
_atom_site_label
_atom_site_type_symbol
_atom_site_description
_atom_site_fract_x
_atom_site_fract_y
_atom_site_fract_z
_atom_type_partial_charge
O1    O     O_R   0.500000 0.285350 0.636850 -0.611587
O2    O     O_R   0.500000 0.714650 0.363150 -0.611587
O3    O     O_R   0.500000 0.714650 0.636850 -0.616227
O4    O     O_R   0.500000 0.285350 0.363150 -0.616227
H1    H     H_    0.948141 0.148922 0.658580 0.204052
H2    H     H_    0.051859 0.851078 0.341420 0.204052
H3    H     H_    0.948141 0.851078 0.341419 0.204052
H4    H     H_    0.051859 0.148922 0.658580 0.204052
C1    C     C_R   0.500000 0.217996 0.499937 0.941516
C2    C     C_R   0.500000 0.782004 0.500063 0.941516
O5    O     O_R   0.416160 0.500000 0.636910 -0.618799
O6    O     O_R   0.583840 0.500000 0.363090 -0.618799
O7    O     O_R   0.583840 0.500000 0.636910 -0.618799
O8    O     O_R   0.416160 0.500000 0.363090 -0.618799
C3    C     C_R   0.208324 0.500000 0.500000 0.154421
C4    C     C_R   0.791676 0.500000 0.499999 0.154421
C5    C     C_R   0.389065 0.500000 0.500000 0.913368
C6    C     C_R   0.610935 0.500000 0.500000 0.913368
Zn1   Zn    Zn3+2 0.500000 0.500000 0.682780 1.012423
Zn2   Zn    Zn3+2 0.500000 0.500000 0.317220 1.012423
C7    C     C_R   0.297249 0.555973 0.636772 -0.226761
C8    C     C_R   0.702751 0.444027 0.363229 -0.226761
C9    C     C_R   0.297249 0.444027 0.363229 -0.226761
C10   C     C_R   0.702751 0.555973 0.636771 -0.226761
H5    H     H_    0.319974 0.600517 0.742456 0.195777
H6    H     H_    0.680026 0.399482 0.257544 0.195776
H7    H     H_    0.319974 0.399483 0.257544 0.195777
H8    H     H_    0.680026 0.600517 0.742456 0.195776
C11   C     C_R   0.327014 0.500000 0.500000 -0.144872
C12   C     C_R   0.672986 0.500000 0.500000 -0.144872
C13   C     C_R   0.880521 0.623783 0.443219 0.600023
C14   C     C_R   0.119479 0.376217 0.556781 0.600023
C15   C     C_R   0.880521 0.376216 0.556780 0.600023
C16   C     C_R   0.119479 0.623783 0.443220 0.600023
N1    N     N_R   0.852379 0.500000 0.499999 -0.343957
N2    N     N_R   0.147621 0.500000 0.500000 -0.343956
C17   C     C_R   0.940108 0.373331 0.557577 -0.027404
C18   C     C_R   0.059892 0.626668 0.442423 -0.027404
C19   C     C_R   0.940108 0.626668 0.442423 -0.027404
C20   C     C_R   0.059892 0.373332 0.557577 -0.027404
C21   C     C_R   0.970018 0.500000 0.500000 -0.010277
C22   C     C_R   0.029982 0.500000 0.500000 -0.010277
C23   C     C_R   0.970288 0.247558 0.614202 -0.132500
C24   C     C_R   0.029712 0.752441 0.385798 -0.132500
C25   C     C_R   0.970288 0.752441 0.385797 -0.132500
C26   C     C_R   0.029712 0.247558 0.614202 -0.132500
C27   C     C_1   0.500000 0.065209 0.499910 -0.168757
C28   C     C_1   0.500000 0.934791 0.500090 -0.168757
C29   C     C_R   0.237961 0.557543 0.636473 0.315439
C30   C     C_R   0.762039 0.442457 0.363527 0.315439
C31   C     C_R   0.237961 0.442457 0.363528 0.315439
C32   C     C_R   0.762039 0.557543 0.636472 0.315439
N3    N     N_1   0.500000 0.500000 0.073640 -0.025582
N4    N     N_1   0.500000 0.500000 0.926360 -0.025582
O9    O     O_2   0.850751 0.743175 0.387998 -0.493185
O10   O     O_2   0.149249 0.256825 0.612002 -0.493185
O11   O     O_2   0.850751 0.256824 0.612001 -0.493185
O12   O     O_2   0.149249 0.743175 0.387999 -0.493185
Br1   Br    Br    0.198414 0.640018 0.822691 -0.366876
Br2   Br    Br    0.801585 0.359981 0.177309 -0.366877
Br3   Br    Br    0.198414 0.359982 0.177310 -0.366877
Br4   Br    Br    0.801585 0.640018 0.822689 -0.366877

loop_
_geom_bond_atom_site_label_1
_geom_bond_atom_site_label_2
_geom_bond_distance
_ccdc_geom_bond_type
C10   C32   1.388855 A    
C9    C11   1.400836 A    
C18   C24   1.403953 A    
C6    C12   1.453513 S    
C9    H7    1.083421 S    
C5    C11   1.453513 S    
C21   C22   1.404603 A    
C9    C31   1.388855 A    
C27   C28   1.163764 T    
C29   Br1   1.916688 S    
C19   C25   1.403954 A    
C8    C30   1.388855 A    
C30   Br2   1.916687 S    
O3    Zn1   1.951644 S    
O6    Zn2   1.998753 S    
C7    C29   1.388855 A    
H1    C23   1.083445 S    
C19   C21   1.409736 A    
O3    C2    1.261416 A    
H2    C24   1.083446 S    
N3    N4    1.193334 T    
C20   C26   1.403953 A    
O8    C5    1.278039 A    
O5    Zn1   1.998755 S    
O7    C6    1.278039 A    
C17   C21   1.409737 A    
C14   N2    1.366551 A    
Zn1   N4    1.973605 S    
C20   C22   1.409736 A    
C15   N1    1.366552 A    
C16   N2    1.366552 A    
C13   C19   1.396025 A    
C1    C27   1.363374 S    
C3    C31   1.402497 A    
C3    C29   1.402496 A    
C4    N1    1.421930 S    
C2    C28   1.363374 S    
C4    C30   1.402496 A    
C23   C26   1.391975 A    
C13   N1    1.366552 A    
C17   C23   1.403952 A    
O1    Zn1   1.950781 S    
C10   C12   1.400836 A    
O7    Zn1   1.998752 S    
O2    Zn2   1.950780 S    
O4    Zn2   1.951645 S    
C18   C22   1.409736 A    
H3    C25   1.083445 S    
C3    N2    1.421930 S    
C14   C20   1.396025 A    
O1    C1    1.261059 A    
C24   C25   1.391975 A    
O8    Zn2   1.998755 S    
Zn2   N3    1.973605 S    
C8    H6    1.083422 S    
O6    C6    1.278039 A    
C16   O12   1.350052 S    
C7    H5    1.083421 S    
O5    C5    1.278039 A    
C15   O11   1.350052 S    
C8    C12   1.400837 A    
H4    C26   1.083447 S    
C13   O9    1.350052 S    
O4    C1    1.261416 A    
C16   C18   1.396025 A    
C7    C11   1.400837 A    
C32   Br4   1.916687 S    
O2    C2    1.261059 A    
C15   C17   1.396025 A    
C4    C32   1.402497 A    
C10   H8    1.083422 S    
C14   O10   1.350052 S    
C31   Br3   1.916687 S    
