data_mof_unit_48408.cif
_audit_creation_date              2012-12-10T17:09:55-0500
_audit_creation_method            fapswitch 2.2
_symmetry_space_group_name_H-M    P1
_symmetry_Int_Tables_number       1
_space_group_crystal_system       triclinic
_cell_length_a                    10.772993
_cell_length_b                    12.999017
_cell_length_c                    11.694287
_cell_angle_alpha                 99.766294
_cell_angle_beta                  93.574677
_cell_angle_gamma                 90.549945
_cell_volume                      1610.43633676

loop_
_atom_site_label
_atom_site_type_symbol
_atom_type_description
_atom_site_fract_x
_atom_site_fract_y
_atom_site_fract_z
_atom_type_partial_charge
C1    C     C_R   0.498234 0.299139 0.478706 0.787002
C2    C     C_R   0.067643 0.412541 0.547135 0.080312
C3    C     C_R   0.128621 0.490655 0.499425 -0.079707
C4    C     C_R   0.061107 0.562915 0.446556 -0.197364
C5    C     C_R   0.932959 0.562291 0.445346 -0.183606
C6    C     C_R   0.870769 0.489765 0.497564 -0.095104
C7    C     C_R   0.503215 0.814318 0.533611 -0.061301
C8    C     C_R   0.497422 0.185760 0.466456 -0.062337
C9    C     C_R   0.488593 0.015269 0.344636 -0.204849
C10   C     C_R   0.489071 0.123378 0.355690 -0.161745
C11   C     C_R   0.505215 0.139365 0.566230 -0.265341
C12   C     C_R   0.262468 0.497229 0.500079 0.787895
C13   C     C_R   0.504749 0.031322 0.555886 0.166067
C14   C     C_R   0.496366 0.968802 0.444216 0.161968
C15   C     C_R   0.495747 0.860756 0.433857 -0.235702
C16   C     C_R   0.511743 0.876711 0.644392 -0.191830
C17   C     C_R   0.512499 0.984841 0.655458 -0.208103
C18   C     C_R   0.382909 0.403074 0.022480 -0.320549
C19   C     C_R   0.393661 0.411818 0.144025 0.690446
C20   C     C_R   0.551868 0.542185 0.157534 0.705819
C21   C     C_R   0.544914 0.535679 0.034350 -0.219934
C22   C     C_R   0.458435 0.465096 0.966427 -0.258064
C23   C     C_R   0.501931 0.700881 0.521305 0.805247
C24   C     C_R   0.449667 0.457956 0.843800 0.795336
C25   C     C_R   0.607464 0.587811 0.854590 -0.164863
C26   C     C_R   0.622131 0.596347 0.976733 0.383988
C27   C     C_R   0.737360 0.496929 0.499184 0.783923
C28   C     C_R   0.133552 0.332390 0.590690 -0.104718
C29   C     C_R   0.070877 0.255815 0.636312 -0.109560
C30   C     C_R   0.941820 0.256456 0.637503 -0.147470
C31   C     C_R   0.874657 0.333364 0.592531 -0.180454
C32   C     C_R   0.936424 0.412563 0.547086 0.087999
Cu1   Cu    Cu3+1 0.509250 0.507730 0.615930 0.979752
Cu2   Cu    Cu3+1 0.490750 0.492270 0.384070 1.042398
H1    H     H_    0.108156 0.621327 0.407885 0.146099
H2    H     H_    0.519024 0.031962 0.741545 0.144740
H3    H     H_    0.482946 0.157994 0.277606 0.184595
H4    H     H_    0.511640 0.187070 0.652071 0.177917
H5    H     H_    0.664722 0.635964 0.811101 0.169322
H6    H     H_    0.315723 0.347828 0.972787 0.222157
H7    H     H_    0.233310 0.326651 0.587568 0.183785
H8    H     H_    0.122575 0.194972 0.669502 0.149830
H9    H     H_    0.893350 0.196182 0.671780 0.142820
H10   H     H_    0.774380 0.328660 0.591831 0.144608
H11   H     H_    0.882066 0.620351 0.406047 0.172256
H12   H     H_    0.489314 0.813073 0.348003 0.183175
H13   H     H_    0.517732 0.842084 0.722472 0.166509
H14   H     H_    0.482125 0.968147 0.258548 0.151522
N1    N     N_R   0.523180 0.519350 0.790130 -0.243257
N2    N     N_R   0.476820 0.480650 0.209890 -0.285652
O1    O     O_R   0.506570 0.354460 0.582000 -0.563962
O2    O     O_R   0.490940 0.341410 0.386200 -0.549868
O3    O     O_R   0.327470 0.506530 0.597920 -0.547435
O4    O     O_R   0.311840 0.493480 0.402120 -0.535978
O5    O     O_R   0.509060 0.658590 0.613800 -0.596919
O6    O     O_R   0.493430 0.645540 0.418000 -0.547082
O7    O     O_R   0.688160 0.506520 0.597880 -0.601430
O8    O     O_R   0.672530 0.493470 0.402080 -0.534875
F1    F     F_    0.367376 0.389390 0.778243 -0.688777
O9    O     O_3   0.708108 0.667219 0.039080 -0.531087
C33   C     C_3   0.826905 0.622335 0.033259 0.119321
H15   H     H_    0.858606 0.614233 0.943384 0.121358
H16   H     H_    0.826687 0.544261 0.060849 0.151179
C34   C     C_3   0.919540 0.692849 0.114850 -0.724605
H17   H     H_    0.890951 0.701374 0.205561 0.263881
H18   H     H_    0.013416 0.658360 0.110888 0.191255
H19   H     H_    0.923823 0.771111 0.089013 0.241020
F2    F     F_    0.320111 0.350801 0.195906 -0.649301
F3    F     F_    0.633490 0.609847 0.225449 -0.632673

loop_
_geom_bond_atom_site_label_1
_geom_bond_atom_site_label_2
_ccdc_geom_bond_type
Cu1   O5    S    
C11   H4    S    
C2    C28   A    
C9    C14   A    
Cu2   O6    S    
C29   C30   A    
C3    C12   S    
C17   H2    S    
C20   N2    A    
C29   H8    S    
Cu1   O1    S    
C1    C8    S    
C11   C13   A    
C9    C10   A    
C6    C32   A    
C31   C32   A    
C6    C27   S    
C13   C17   A    
C30   C31   A    
C21   C26   A    
C34   H17   S    
C7    C15   A    
C2    C3    A    
C4    H1    S    
C23   O6    A    
C18   C22   A    
C21   C22   A    
C25   H5    S    
C33   C34   S    
C23   O5    A    
C1    O1    A    
C19   N2    A    
C5    C6    A    
C5    H11   S    
C8    C11   A    
C7    C23   S    
C16   H13   S    
C2    C32   A    
C28   C29   A    
Cu1   Cu2   S    
Cu2   O4    S    
C25   N1    A    
C24   F1    S    
Cu1   O3    S    
C33   H15   S    
C20   F3    S    
C1    O2    A    
C22   C24   A    
C30   H9    S    
Cu2   N2    S    
C16   C17   A    
C31   H10   S    
Cu1   N1    S    
C3    C4    A    
C34   H19   S    
C28   H7    S    
C19   F2    S    
C20   C21   A    
C7    C16   A    
C9    H14   S    
C8    C10   A    
C18   C19   A    
C27   O7    A    
C24   N1    A    
Cu2   O8    S    
C18   H6    S    
C14   C15   A    
C4    C5    A    
Cu1   O7    S    
Cu2   O2    S    
C15   H12   S    
C25   C26   A    
C13   C14   A    
C26   O9    S    
C33   H16   S    
C12   O4    A    
C12   O3    A    
C34   H18   S    
O9    C33   S    
C27   O8    A    
C10   H3    S    
