data_mof_unit_64043.cif
_audit_creation_date              2012-12-10T19:46:47-0500
_audit_creation_method            fapswitch 2.2
_symmetry_space_group_name_H-M    P1
_symmetry_Int_Tables_number       1
_space_group_crystal_system       triclinic
_cell_length_a                    28.303202
_cell_length_b                    18.257405
_cell_length_c                    21.676041
_cell_angle_alpha                 89.577579
_cell_angle_beta                  139.788064
_cell_angle_gamma                 90.174992
_cell_volume                      7231.26271241

loop_
_atom_site_label
_atom_site_type_symbol
_atom_type_description
_atom_site_fract_x
_atom_site_fract_y
_atom_site_fract_z
_atom_type_partial_charge
C1    C     C_R   0.858726 0.500131 0.858633 0.927545
C2    C     C_R   0.141274 0.499869 0.141367 0.927554
C3    C     C_R   0.358726 0.000131 0.858633 0.927591
C4    C     C_R   0.641274 0.999869 0.141367 0.927578
C5    C     C_R   0.030428 0.447101 0.812758 -0.214929
C6    C     C_R   0.969315 0.552747 0.186974 -0.215029
C7    C     C_R   0.530438 0.947117 0.812771 -0.214935
C8    C     C_R   0.469481 0.052846 0.187147 -0.214964
C9    C     C_R   0.033656 0.447212 0.752632 0.140722
C10   C     C_R   0.966109 0.552644 0.247124 0.140927
C11   C     C_R   0.533669 0.947220 0.752647 0.140692
C12   C     C_R   0.466262 0.052736 0.247284 0.140810
C13   C     C_R   0.999127 0.503757 0.685154 -0.141995
C14   C     C_R   0.000859 0.496228 0.314825 -0.142194
C15   C     C_R   0.499135 0.003752 0.685161 -0.141972
C16   C     C_R   0.500870 0.996234 0.314840 -0.142075
C17   C     C_1   0.782248 0.500367 0.782012 -0.173820
C18   C     C_1   0.217752 0.499633 0.217989 -0.173865
C19   C     C_1   0.282248 0.000367 0.782012 -0.173809
C20   C     C_1   0.717752 0.999633 0.217988 -0.173846
C21   C     C_1   0.717467 0.500325 0.717212 -0.157145
C22   C     C_1   0.282533 0.499675 0.282788 -0.157148
C23   C     C_1   0.217467 0.000325 0.717212 -0.157156
C24   C     C_1   0.782533 0.999675 0.282788 -0.157151
C25   C     C_R   0.999865 0.641262 0.500043 0.928763
C26   C     C_R   0.000135 0.358738 0.499954 0.928860
C27   C     C_R   0.499865 0.141262 0.500044 0.928825
C28   C     C_R   0.500135 0.858738 0.499955 0.928809
C29   C     C_R   0.999909 0.500625 0.620082 0.895576
C30   C     C_R   0.000089 0.499370 0.379914 0.895493
C31   C     C_R   0.499910 0.000609 0.620083 0.895583
C32   C     C_R   0.500091 0.999368 0.379917 0.895546
C33   C     C_R   0.500161 0.640982 0.499964 0.922058
C34   C     C_R   0.499839 0.359018 0.500035 0.922092
C35   C     C_R   0.000161 0.140982 0.499964 0.922045
C36   C     C_R   0.999839 0.859018 0.500035 0.922102
C37   C     C_R   0.640983 0.500124 0.640908 0.921719
C38   C     C_R   0.359017 0.499876 0.359092 0.921743
C39   C     C_R   0.140983 0.000124 0.640908 0.921720
C40   C     C_R   0.859017 0.999876 0.359092 0.921758
C41   C     C_1   0.999601 0.717732 0.500090 -0.149855
C42   C     C_1   0.000399 0.282268 0.499908 -0.149811
C43   C     C_1   0.499601 0.217732 0.500091 -0.149786
C44   C     C_1   0.500399 0.782268 0.499908 -0.149794
C45   C     C_R   0.995686 0.500390 0.875397 0.883264
C46   C     C_R   0.004293 0.499611 0.124580 0.883197
C47   C     C_R   0.495683 0.000392 0.875395 0.883261
C48   C     C_R   0.504307 0.999611 0.124594 0.883233
C49   C     C_1   0.499623 0.282529 0.500178 -0.143432
C50   C     C_1   0.500376 0.717471 0.499822 -0.143508
C51   C     C_1   0.999623 0.782529 0.500177 -0.143496
C52   C     C_1   0.000377 0.217471 0.499822 -0.143575
C53   C     C_R   0.906102 0.607855 0.716636 -0.193078
C54   C     C_R   0.094202 0.392436 0.283637 -0.193228
C55   C     C_R   0.406161 0.107912 0.716685 -0.193109
C56   C     C_R   0.594035 0.892273 0.283487 -0.193138
C57   C     C_R   0.873205 0.664718 0.650528 -0.143968
C58   C     C_R   0.127353 0.335719 0.349998 -0.143940
C59   C     C_R   0.373280 0.164772 0.650583 -0.143932
C60   C     C_R   0.627046 0.835476 0.349707 -0.143973
C61   C     C_R   0.885104 0.671329 0.599230 0.218321
C62   C     C_R   0.115496 0.329068 0.401342 0.218350
C63   C     C_R   0.385159 0.171347 0.599262 0.218323
C64   C     C_R   0.615162 0.828842 0.401022 0.218334
C65   C     C_R   0.927602 0.619298 0.611204 -0.189090
C66   C     C_R   0.072781 0.380921 0.389154 -0.189064
C67   C     C_R   0.427632 0.119295 0.611219 -0.189086
C68   C     C_R   0.572561 0.880788 0.388946 -0.189082
C69   C     C_R   0.959762 0.559952 0.676013 0.032287
C70   C     C_R   0.040402 0.440156 0.324136 0.032305
C71   C     C_R   0.459784 0.059957 0.676029 0.032294
C72   C     C_R   0.540308 0.940089 0.324049 0.032287
C73   C     C_R   0.952600 0.556676 0.733480 0.099386
C74   C     C_R   0.047536 0.443452 0.266639 0.099354
C75   C     C_R   0.452629 0.056700 0.733505 0.099394
C76   C     C_R   0.547461 0.943377 0.266572 0.099383
C77   C     C_R   0.991351 0.501353 0.804765 -0.142685
C78   C     C_R   0.008596 0.498644 0.195175 -0.142508
C79   C     C_R   0.491360 0.001365 0.804773 -0.142689
C80   C     C_R   0.508632 0.998648 0.195215 -0.142616
H1    H     H_    0.059258 0.404426 0.866778 0.190010
H2    H     H_    0.940326 0.595311 0.132790 0.189900
H3    H     H_    0.559265 0.904447 0.866792 0.190018
H4    H     H_    0.440595 0.095484 0.133071 0.189972
H5    H     H_    0.893335 0.604060 0.752465 0.171983
H6    H     H_    0.106904 0.396258 0.247730 0.171851
H7    H     H_    0.393406 0.104151 0.752529 0.172056
H8    H     H_    0.606777 0.896086 0.247628 0.171909
H9    H     H_    0.838690 0.703919 0.639610 0.186993
H10   H     H_    0.162012 0.296646 0.361054 0.187038
H11   H     H_    0.338800 0.204005 0.639695 0.187085
H12   H     H_    0.661630 0.796337 0.360693 0.186974
H13   H     H_    0.935440 0.626346 0.569911 0.156915
H14   H     H_    0.064958 0.373822 0.430459 0.157140
H15   H     H_    0.435464 0.126327 0.569918 0.156938
H16   H     H_    0.564728 0.873716 0.430242 0.156997
O1    O     O_R   0.892670 0.439420 0.892670 -0.613197
O2    O     O_R   0.107330 0.560580 0.107330 -0.613175
O3    O     O_R   0.107330 0.439420 0.107330 -0.621158
O4    O     O_R   0.892670 0.560580 0.892670 -0.621167
O5    O     O_R   0.392670 0.939420 0.892670 -0.613200
O6    O     O_R   0.607330 0.060580 0.107330 -0.613180
O7    O     O_R   0.607330 0.939420 0.107330 -0.621156
O8    O     O_R   0.392670 0.060580 0.892670 -0.621143
O9    O     O_R   0.999990 0.439420 0.908380 -0.616983
O10   O     O_R   0.000010 0.560580 0.091620 -0.616949
O11   O     O_R   0.000010 0.439420 0.091620 -0.627059
O12   O     O_R   0.999990 0.560580 0.908380 -0.627124
O13   O     O_R   0.499990 0.939420 0.908380 -0.616974
O14   O     O_R   0.500010 0.060580 0.091620 -0.616973
O15   O     O_R   0.500010 0.939420 0.091620 -0.627095
O16   O     O_R   0.499990 0.060580 0.908380 -0.627151
O17   O     O_R   0.060590 0.607350 0.560620 -0.620591
O18   O     O_R   0.939410 0.392650 0.439380 -0.620577
O19   O     O_R   0.939410 0.607350 0.439380 -0.603386
O20   O     O_R   0.060590 0.392650 0.560620 -0.603418
O21   O     O_R   0.560590 0.107350 0.560620 -0.620582
O22   O     O_R   0.439410 0.892650 0.439380 -0.620592
O23   O     O_R   0.439410 0.107350 0.439380 -0.603389
O24   O     O_R   0.560590 0.892650 0.560620 -0.603418
O25   O     O_R   0.060610 0.500000 0.652240 -0.597165
O26   O     O_R   0.939390 0.500000 0.347760 -0.597101
O27   O     O_R   0.560610 0.000000 0.652240 -0.597176
O28   O     O_R   0.439390 0.000000 0.347760 -0.597149
O29   O     O_R   0.939430 0.500000 0.531050 -0.622994
O30   O     O_R   0.060570 0.500000 0.468950 -0.623075
O31   O     O_R   0.439430 0.000000 0.531050 -0.623012
O32   O     O_R   0.560570 0.000000 0.468950 -0.623019
O33   O     O_R   0.500010 0.607330 0.448300 -0.608283
O34   O     O_R   0.499990 0.392670 0.551700 -0.608182
O35   O     O_R   0.499990 0.607330 0.551700 -0.612611
O36   O     O_R   0.500010 0.392670 0.448300 -0.612650
O37   O     O_R   0.000010 0.107330 0.448300 -0.608367
O38   O     O_R   0.999990 0.892670 0.551700 -0.608190
O39   O     O_R   0.999990 0.107330 0.551700 -0.612587
O40   O     O_R   0.000010 0.892670 0.448300 -0.612672
O41   O     O_R   0.607330 0.500000 0.555630 -0.610023
O42   O     O_R   0.392670 0.500000 0.444370 -0.609986
O43   O     O_R   0.107330 0.000000 0.555630 -0.610062
O44   O     O_R   0.892670 0.000000 0.444370 -0.609983
O45   O     O_R   0.607340 0.500000 0.659080 -0.616152
O46   O     O_R   0.392660 0.500000 0.340920 -0.616165
O47   O     O_R   0.107340 0.000000 0.659080 -0.616146
O48   O     O_R   0.892660 0.000000 0.340920 -0.616169
Zn1   Zn    Zn3+2 0.000000 0.419100 0.000000 0.991324
Zn2   Zn    Zn3+2 0.000000 0.580900 0.000000 0.991298
Zn3   Zn    Zn3+2 0.500000 0.919100 0.000000 0.991310
Zn4   Zn    Zn3+2 0.500000 0.080900 0.000000 0.991309
Zn5   Zn    Zn3+2 0.080920 0.500000 0.580940 1.020959
Zn6   Zn    Zn3+2 0.919080 0.500000 0.419060 1.021026
Zn7   Zn    Zn3+2 0.580920 0.000000 0.580940 1.020964
Zn8   Zn    Zn3+2 0.419080 0.000000 0.419060 1.020974
Zn9   Zn    Zn3+2 0.500000 0.500000 0.430940 1.022169
Zn10  Zn    Zn3+2 0.500000 0.500000 0.569060 1.022283
Zn11  Zn    Zn3+2 0.000000 0.000000 0.430940 1.022056
Zn12  Zn    Zn3+2 0.000000 1.000000 0.569060 1.022266
I1    I     I_    0.837773 0.759106 0.502019 -0.377913
I2    I     I_    0.163174 0.241470 0.498902 -0.378133
I3    I     I_    0.337879 0.259121 0.502074 -0.377983
I4    I     I_    0.662660 0.741155 0.498398 -0.377998
I5    I     I_    0.089135 0.357839 0.765717 -0.312470
I6    I     I_    0.910353 0.641868 0.233741 -0.312339
I7    I     I_    0.589156 0.857853 0.765748 -0.312484
I8    I     I_    0.410708 0.142070 0.234118 -0.312449

loop_
_geom_bond_atom_site_label_1
_geom_bond_atom_site_label_2
_ccdc_geom_bond_type
C3    O8    A    
C58   C62   A    
C48   O14   A    
C30   O30   A    
C6    H2    S    
C29   O29   A    
C2    C18   S    
C38   O46   A    
C32   O28   A    
C7    H3    S    
C16   C72   A    
C63   I3    S    
C72   C76   A    
C35   O37   A    
O7    Zn3   S    
C25   C41   S    
C7    C11   A    
C68   H16   S    
C7    C79   A    
C37   O45   A    
C56   C76   A    
C64   C68   A    
C13   C29   S    
C55   C59   A    
C25   O19   A    
O11   Zn1   S    
O30   Zn5   S    
C23   C39   S    
O45   Zn10  S    
C56   H8    S    
C44   C50   T    
C47   O16   A    
C22   C38   S    
C4    O7    A    
C46   O10   A    
O8    Zn4   S    
C9    C13   A    
O6    Zn4   S    
C54   C74   A    
C11   C15   A    
O38   Zn12  S    
O46   Zn9   S    
C12   C16   A    
O4    Zn2   S    
C34   C49   S    
C4    O6    A    
C70   C74   A    
C62   I2    S    
C69   C73   A    
C25   O17   A    
C31   O31   A    
C45   O12   A    
C8    C12   A    
C66   H14   S    
C55   C75   A    
C33   O35   A    
C65   H13   S    
O28   Zn8   S    
C34   O36   A    
C10   I6    S    
C37   O41   A    
C9    I5    S    
C67   H15   S    
C14   C70   A    
O13   Zn3   S    
C14   C30   S    
O14   Zn4   S    
C36   O40   A    
C1    O4    A    
O20   Zn5   S    
C45   O9    A    
O12   Zn2   S    
C27   O21   A    
O27   Zn7   S    
C71   C75   A    
C62   C66   A    
O17   Zn5   S    
O21   Zn7   S    
C28   O24   A    
C35   O39   A    
C54   H6    S    
O40   Zn11  S    
C53   C57   A    
C43   C49   T    
O2    Zn2   S    
C8    H4    S    
C33   C50   S    
C47   O13   A    
C48   C80   S    
C15   C31   S    
C28   C44   S    
C17   C21   T    
O39   Zn12  S    
O16   Zn4   S    
C29   O25   A    
C30   O26   A    
C19   C23   T    
C26   O18   A    
C63   C67   A    
C5    C9    A    
O15   Zn3   S    
O31   Zn8   S    
C12   I8    S    
C5    H1    S    
O32   Zn7   S    
O43   Zn11  S    
C68   C72   A    
O9    Zn1   S    
C46   O11   A    
C64   I4    S    
C11   I7    S    
O36   Zn9   S    
C38   O42   A    
O41   Zn9   S    
O34   Zn10  S    
C59   H11   S    
C3    C19   S    
C58   H10   S    
C34   O34   A    
C36   C51   S    
C57   H9    S    
O44   Zn12  S    
C55   H7    S    
C61   I1    S    
C41   C51   T    
C39   O47   A    
C2    O3    A    
C40   O48   A    
C10   C14   A    
C5    C77   A    
O18   Zn6   S    
C1    O1    A    
O26   Zn6   S    
C26   C42   S    
C46   C78   S    
C54   C58   A    
C33   O33   A    
O23   Zn8   S    
C27   C43   S    
O5    Zn3   S    
O24   Zn7   S    
O37   Zn11  S    
O1    Zn1   S    
O35   Zn10  S    
C53   C73   A    
C76   C80   A    
C36   O38   A    
C6    C10   A    
C45   C77   S    
C57   C61   A    
C27   O23   A    
C16   C32   S    
C15   C71   A    
C59   C63   A    
O10   Zn2   S    
C60   C64   A    
C32   O32   A    
O48   Zn11  S    
C18   C22   T    
C31   O27   A    
C28   O22   A    
C47   C79   S    
O22   Zn8   S    
O33   Zn9   S    
C3    O5    A    
O47   Zn12  S    
C66   C70   A    
C13   C69   A    
C65   C69   A    
C40   O44   A    
O19   Zn6   S    
C24   C40   S    
O25   Zn5   S    
C67   C71   A    
C61   C65   A    
O3    Zn1   S    
C26   O20   A    
C6    C78   A    
O29   Zn6   S    
C4    C20   S    
C56   C60   A    
C48   O15   A    
C21   C37   S    
C1    C17   S    
C2    O2    A    
C74   C78   A    
C35   C52   S    
C8    C80   A    
C73   C77   A    
C53   H5    S    
O42   Zn10  S    
C60   H12   S    
C75   C79   A    
C20   C24   T    
C39   O43   A    
C42   C52   T    
