data_mof_unit_42289.cif
_audit_creation_date              2012-12-10T17:32:18-0500
_audit_creation_method            fapswitch 2.2
_symmetry_space_group_name_H-M    P1
_symmetry_Int_Tables_number       1
_space_group_crystal_system       triclinic
_cell_length_a                    12.282785
_cell_length_b                    13.326428
_cell_length_c                    15.062963
_cell_angle_alpha                 77.348283
_cell_angle_beta                  101.543224
_cell_angle_gamma                 116.873168
_cell_volume                      2131.40095181

loop_
_atom_site_label
_atom_site_type_symbol
_atom_type_description
_atom_site_fract_x
_atom_site_fract_y
_atom_site_fract_z
_atom_type_partial_charge
C1    C     C_R   0.854093 0.287408 0.505389 0.783207
C2    C     C_R   0.904405 0.511832 0.075182 0.108447
C3    C     C_R   0.190525 0.476636 0.081852 -0.218653
C4    C     C_R   0.190129 0.476177 0.989326 -0.215423
C5    C     C_R   0.095167 0.487521 0.924975 0.108198
C6    C     C_R   0.999610 0.499483 0.953569 0.062883
C7    C     C_R   0.903688 0.511037 0.889241 0.109805
C8    C     C_R   0.809027 0.522675 0.918321 -0.216542
C9    C     C_R   0.809426 0.523142 0.010845 -0.216385
C10   C     C_R   0.094209 0.487298 0.832417 -0.248217
C11   C     C_R   0.999240 0.499229 0.768216 -0.074196
C12   C     C_R   0.999610 0.499615 0.671260 0.817950
C13   C     C_R   0.904188 0.510871 0.796872 -0.254935
C14   C     C_R   0.259381 0.031762 0.415913 0.163925
C15   C     C_R   0.228124 0.834005 0.458567 -0.094484
C16   C     C_R   0.810879 0.084519 0.549241 -0.190255
C17   C     C_R   0.729389 0.970563 0.564068 -0.147584
C18   C     C_R   0.605266 0.936565 0.533351 -0.202517
C19   C     C_R   0.560956 0.015195 0.480908 0.081674
C20   C     C_R   0.643698 0.131249 0.464267 0.092774
C21   C     C_R   0.433989 0.981960 0.450487 -0.002444
C22   C     C_R   0.387697 0.065268 0.421649 0.112800
C23   C     C_R   0.145610 0.713041 0.482007 0.823067
C24   C     C_R   0.471120 0.177549 0.395983 -0.234521
C25   C     C_R   0.596699 0.207582 0.410546 -0.206200
C26   C     C_R   0.351373 0.868059 0.445986 0.091236
C27   C     C_R   0.182828 0.916837 0.442431 -0.278273
C28   C     C_R   0.769161 0.166540 0.503099 -0.103706
C29   C     C_R   0.352099 0.338929 0.656255 0.067846
C30   C     C_R   0.758648 0.643627 0.375153 0.056473
C31   C     C_R   0.659715 0.673416 0.346587 0.109488
C32   C     C_R   0.555744 0.615543 0.393775 -0.289941
C33   C     C_R   0.549531 0.530181 0.469452 -0.009026
C34   C     C_R   0.000014 0.499841 0.328799 0.793172
C35   C     C_R   0.653022 0.504481 0.495388 0.273583
C36   C     C_R   0.446019 0.471594 0.521535 -0.051801
C37   C     C_R   0.450601 0.392519 0.601255 0.130089
C38   C     C_R   0.552575 0.367663 0.623459 -0.302076
C39   C     C_R   0.649498 0.420615 0.571085 -0.182966
C40   C     C_R   0.337562 0.488413 0.497887 -0.027763
C41   C     C_R   0.251336 0.365257 0.630193 0.025019
C42   C     C_R   0.905345 0.512036 0.167729 -0.250370
C43   C     C_R   0.000323 0.500126 0.231900 -0.068743
C44   C     C_R   0.095408 0.488521 0.203275 -0.251601
C45   C     C_R   0.095899 0.488330 0.110920 0.110393
C46   C     C_R   0.999979 0.499889 0.046590 0.063180
Cu1   Cu    Cu3+1 0.098270 0.475420 0.521130 0.925385
Cu2   Cu    Cu3+1 0.901730 0.524580 0.478870 0.913979
H1    H     H_    0.831691 0.520970 0.189662 0.153656
H2    H     H_    0.440970 0.242821 0.363076 0.155353
H3    H     H_    0.905895 0.109063 0.578290 0.153165
H4    H     H_    0.544039 0.848557 0.553068 0.140564
H5    H     H_    0.761800 0.908751 0.602984 0.143090
H6    H     H_    0.654563 0.291796 0.379857 0.183063
H7    H     H_    0.175249 0.326582 0.670943 0.128264
H8    H     H_    0.559273 0.305942 0.681604 0.169330
H9    H     H_    0.169245 0.479893 0.252686 0.152649
H10   H     H_    0.322486 0.539677 0.435280 0.137965
H11   H     H_    0.840149 0.685327 0.340361 0.146650
H12   H     H_    0.481731 0.640486 0.370559 0.138950
H13   H     H_    0.720559 0.393114 0.593737 0.210516
H14   H     H_    0.264663 0.467779 0.130646 0.139635
H15   H     H_    0.167852 0.478341 0.810496 0.152738
H16   H     H_    0.830416 0.519623 0.747482 0.159911
H17   H     H_    0.734844 0.531456 0.869539 0.142557
H18   H     H_    0.735539 0.532293 0.032099 0.141041
H19   H     H_    0.086444 0.891448 0.446032 0.166021
N1    N     N_R   0.246280 0.438190 0.553160 -0.193952
N2    N     N_R   0.754320 0.561190 0.447410 -0.232980
O1    O     O_R   0.972510 0.318130 0.526570 -0.578356
O2    O     O_R   0.806530 0.359650 0.490890 -0.609836
O3    O     O_R   0.082980 0.479210 0.647590 -0.587663
O4    O     O_R   0.917000 0.520730 0.611900 -0.600324
O5    O     O_R   0.193470 0.640350 0.509110 -0.575161
O6    O     O_R   0.027490 0.681870 0.473430 -0.591311
O7    O     O_R   0.083000 0.479270 0.388100 -0.590063
O8    O     O_R   0.917020 0.520790 0.352410 -0.600427
C47   C     C_3   0.201599 0.114842 0.385391 -0.429474
C48   C     C_3   0.223551 0.184521 0.460438 -0.796654
H20   H     H_    0.178158 0.127767 0.520853 0.249768
H21   H     H_    0.323197 0.230923 0.481521 0.261342
H22   H     H_    0.184113 0.247271 0.434796 0.249895
H23   H     H_    0.237040 0.171636 0.321774 0.193204
H24   H     H_    0.100626 0.068630 0.367791 0.203682
C49   C     C_3   0.388792 0.795352 0.404274 -0.406449
C50   C     C_3   0.310431 0.762242 0.313497 -0.818560
H25   H     H_    0.212737 0.708247 0.323299 0.247008
H26   H     H_    0.317267 0.839885 0.264505 0.252319
H27   H     H_    0.343572 0.714090 0.282889 0.222305
H28   H     H_    0.484859 0.842854 0.387329 0.202320
H29   H     H_    0.386571 0.720220 0.453673 0.212903
C51   C     C_3   0.351132 0.255390 0.742897 -0.435506
C52   C     C_3   0.312681 0.136536 0.720895 -0.819000
H30   H     H_    0.372152 0.137857 0.673619 0.258859
H31   H     H_    0.319722 0.079086 0.785166 0.243516
H32   H     H_    0.215828 0.102006 0.688816 0.243997
H33   H     H_    0.442097 0.285492 0.784865 0.201647
H34   H     H_    0.285252 0.249276 0.787107 0.193343
C53   C     C_3   0.659473 0.765775 0.267136 -0.408162
C54   C     C_3   0.776492 0.827561 0.219630 -0.867129
H35   H     H_    0.856999 0.870389 0.268830 0.246375
H36   H     H_    0.792153 0.766984 0.189315 0.246198
H37   H     H_    0.766506 0.893499 0.163476 0.252173
H38   H     H_    0.580738 0.727317 0.215146 0.206428
H39   H     H_    0.644349 0.830178 0.292667 0.213055
H40   H     H_    0.263998 0.466991 0.968082 0.139600

loop_
_geom_bond_atom_site_label_1
_geom_bond_atom_site_label_2
_ccdc_geom_bond_type
C16   C28   A    
C21   C26   A    
C52   H30   S    
C19   C20   A    
C16   H3    S    
Cu2   N2    S    
C10   H15   S    
C49   H29   S    
C18   H4    S    
C7    C8    A    
C49   C50   S    
C2    C46   A    
C1    O2    A    
C36   C37   A    
C19   C21   A    
Cu1   O7    S    
C34   O8    A    
C5    C6    A    
C50   H26   S    
C20   C25   A    
C33   C36   A    
C18   C19   A    
C9    H18   S    
C41   H7    S    
C47   H23   S    
C31   C32   A    
C16   C17   A    
C1    C28   S    
C31   C53   S    
C14   C27   A    
C15   C23   S    
C53   H38   S    
C12   O3    A    
C8    H17   S    
C52   H31   S    
C21   C22   A    
Cu2   O6    S    
C53   H39   S    
C51   H33   S    
C41   N1    A    
C24   H2    S    
C38   C39   A    
C39   H13   S    
C40   H10   S    
C51   H34   S    
C36   C40   A    
C24   C25   A    
C48   H21   S    
C47   C48   S    
C8    C9    A    
C15   C26   A    
C20   C28   A    
C45   C46   A    
C4    H40   S    
C3    C45   A    
C54   H37   S    
Cu2   O8    S    
C35   C39   A    
C43   C44   A    
Cu1   O1    S    
C37   C38   A    
C15   C27   A    
Cu1   Cu2   S    
C44   H9    S    
C49   H28   S    
C30   H11   S    
C54   H36   S    
C17   C18   A    
C25   H6    S    
C52   H32   S    
C22   C24   A    
C42   C43   A    
C32   H12   S    
Cu2   O2    S    
C3    C4    A    
C17   H5    S    
Cu1   N1    S    
C30   N2    A    
C44   C45   A    
C3    H14   S    
C6    C46   A    
C29   C41   A    
C50   H25   S    
Cu2   O4    S    
C34   C43   S    
Cu1   O5    S    
C23   O6    A    
C4    C5    A    
C50   H27   S    
C48   H22   S    
C11   C12   S    
C6    C7    A    
C1    O1    A    
C53   C54   S    
C32   C33   A    
C14   C22   A    
C5    C10   A    
C11   C13   A    
C30   C31   A    
C13   H16   S    
C2    C42   A    
C26   C49   S    
C51   C52   S    
C33   C35   A    
C14   C47   S    
Cu1   O3    S    
C27   H19   S    
C10   C11   A    
C42   H1    S    
C48   H20   S    
C47   H24   S    
C7    C13   A    
C38   H8    S    
C35   N2    A    
C40   N1    A    
C29   C37   A    
C54   H35   S    
C23   O5    A    
C12   O4    A    
C2    C9    A    
C29   C51   S    
C34   O7    A    
