data_mof_unit_6941.cif
_audit_creation_date              2013-03-05T16:44:39-0500
_audit_creation_method            fapswitch 2.2
_symmetry_space_group_name_H-M    P1
_symmetry_Int_Tables_number       1
_space_group_crystal_system       triclinic
_cell_length_a                    26.794375
_cell_length_b                    10.673449
_cell_length_c                    9.90245
_cell_angle_alpha                 89.078434
_cell_angle_beta                  90.035039
_cell_angle_gamma                 91.102195
_cell_volume                      2831.09541658

loop_
_atom_site_label
_atom_site_type_symbol
_atom_site_description
_atom_site_fract_x
_atom_site_fract_y
_atom_site_fract_z
_atom_type_partial_charge
O1    O     O_R   0.500010 0.316790 0.614690 -0.615046
O2    O     O_R   0.500000 0.316760 0.385350 -0.597113
C1    C     C_R   0.504813 0.261222 0.500862 0.978056
O3    O     O_R   0.428760 0.500040 0.614660 -0.623436
O4    O     O_R   0.428750 0.500000 0.385310 -0.569059
C2    C     C_R   0.405501 0.498203 0.499931 1.044623
Zn1   Zn    Zn3+2 0.500000 0.500020 0.653130 0.982084
Zn2   Zn    Zn3+2 0.500000 0.499980 0.346870 1.053689
O5    O     O_R   0.500000 0.683240 0.614650 -0.641628
O6    O     O_R   0.499990 0.683210 0.385310 -0.574162
O7    O     O_R   0.571250 0.500000 0.614690 -0.613814
O8    O     O_R   0.571240 0.499960 0.385340 -0.594830
C3    C     C_R   0.500194 0.740730 0.498498 0.973956
C4    C     C_R   0.594517 0.497535 0.500304 0.857997
C5    C     C_R   0.180905 0.291460 0.402280 0.596075
O9    O     O_2   0.207300 0.295015 0.286240 -0.438373
N1    N     N_R   0.203786 0.326496 0.519636 -0.349975
C6    C     C_R   0.178987 0.325102 0.639910 0.591289
C7    C     C_R   0.265256 0.497301 0.521931 -0.129907
C8    C     C_R   0.314226 0.544706 0.512563 -0.151228
C9    C     C_R   0.343430 0.328416 0.497171 0.378487
C10   C     C_R   0.293648 0.282502 0.502233 -0.085829
C11   C     C_R   0.254880 0.368481 0.516289 0.164382
C12   C     C_R   0.103198 0.260173 0.524589 -0.126027
C13   C     C_R   0.130069 0.254153 0.402384 -0.095782
C14   C     C_R   0.105716 0.210845 0.284925 0.423288
C15   C     C_R   0.128219 0.292742 0.644695 -0.012191
C16   C     C_R   0.353237 0.458709 0.500381 -0.134228
C17   C     C_R   0.646311 0.460171 0.502860 0.012368
C18   C     C_R   0.973274 0.232216 0.398685 0.116490
C19   C     C_R   0.971176 0.239927 0.646560 -0.042711
C20   C     C_R   0.946166 0.242942 0.520782 0.077847
C21   C     C_R   0.947982 0.251603 0.275218 -0.165601
C22   C     C_R   0.897148 0.274048 0.271860 -0.110079
C23   C     C_R   0.869981 0.281864 0.391832 -0.014206
C24   C     C_R   0.894133 0.264022 0.516948 -0.098698
C25   C     C_R   0.866747 0.272898 0.638150 -0.145924
C26   C     C_R   0.817209 0.314610 0.630580 0.515235
N2    N     N_R   0.794662 0.332556 0.507759 -0.355173
C27   C     C_R   0.819504 0.313168 0.389641 0.521930
C28   C     C_R   0.732705 0.489096 0.438507 -0.067919
C29   C     C_R   0.683672 0.531048 0.437167 -0.207911
C30   C     C_R   0.657768 0.346829 0.567980 -0.142379
C31   C     C_R   0.706335 0.303882 0.567107 -0.079842
C32   C     C_R   0.744180 0.375027 0.503320 0.283377
O10   O     O_2   0.795544 0.325875 0.270383 -0.519118
C33   C     C_R   0.025678 0.214997 0.403474 -0.061663
C34   C     C_R   0.050932 0.239833 0.525868 0.077495
C35   C     C_R   0.023989 0.248834 0.648768 0.093686
C36   C     C_R   0.054070 0.180062 0.289191 -0.202052
H1    H     H_    0.675031 0.619043 0.387420 0.150742
H2    H     H_    0.761814 0.545363 0.390061 0.156981
H3    H     H_    0.879623 0.290052 0.174642 0.228147
H4    H     H_    0.967508 0.256959 0.179841 0.140640
O11   O     O_2   0.203409 0.356569 0.754119 -0.507731
C37   C     C_R   0.101839 0.296550 0.766142 -0.093061
H5    H     H_    0.234328 0.560622 0.530599 0.189437
H6    H     H_    0.120414 0.320868 0.859555 0.192888
C38   C     C_R   0.942387 0.234183 0.765707 -0.210086
C39   C     C_R   0.890788 0.246356 0.762508 0.485711
O12   O     O_2   0.792473 0.343467 0.744224 -0.507395
C40   C     C_R   0.050648 0.274897 0.768506 -0.169406
H7    H     H_    0.958964 0.216449 0.863366 0.175388
H8    H     H_    0.628824 0.290405 0.617259 0.145434
H9    H     H_    0.714677 0.215447 0.616450 0.151827
H10   H     H_    0.032597 0.286711 0.864612 0.154313
C41   C     C_R   0.512231 0.062606 0.622161 0.038733
C42   C     C_R   0.517337 0.131699 0.502552 -0.236010
C43   C     C_R   0.530159 0.070101 0.382287 -0.130091
C44   C     C_R   0.520129 0.941601 0.375868 0.369137
C45   C     C_R   0.506945 0.874142 0.495862 -0.184829
C46   C     C_R   0.508165 0.935347 0.618976 0.041095
C47   C     C_3   0.472672 0.929929 0.735910 0.269882
C48   C     C_3   0.476934 0.072067 0.738467 -0.453262
H11   H     H_    0.488067 0.880881 0.826479 0.142499
H12   H     H_    0.441851 0.120404 0.711089 0.229744
H13   H     H_    0.495864 0.107355 0.830639 0.190441
C49   C     C_R   0.462908 0.439199 0.071670 0.047149
N3    N     N_R   0.499670 0.499140 0.142800 -0.178606
C50   C     C_R   0.539565 0.548326 0.070107 -0.036086
C51   C     C_R   0.538711 0.552122 0.926960 0.428795
N4    N     N_R   0.499670 0.499180 0.857150 -0.147960
C52   C     C_R   0.463540 0.436537 0.929450 0.062713
C53   C     C_3   0.408761 0.456538 0.917718 -0.537120
C54   C     C_3   0.407755 0.464417 0.071543 0.317448
H14   H     H_    0.400016 0.545588 0.863528 0.218610
H15   H     H_    0.388972 0.372699 0.877132 0.218909
O13   O     O_3   0.383688 0.249249 0.491691 -0.757016
H16   H     H_    0.374302 0.167030 0.532707 0.342954
O14   O     O_3   0.865546 0.231573 0.883075 -0.724991
H17   H     H_    0.834186 0.184186 0.864621 0.370615
C55   C     C_2   0.551438 0.137930 0.262256 1.035796
O15   O     O_2   0.584304 0.217595 0.277543 -0.625978
O16   O     O_R   0.534189 0.110877 0.132409 -0.764376
H18   H     H_    0.551387 0.164226 0.059976 0.332388
O17   O     O_3   0.521634 0.885938 0.251856 -0.657471
H19   H     H_    0.487254 0.854504 0.233937 0.363930
O18   O     O_3   0.424972 0.887593 0.697669 -0.732049
H20   H     H_    0.404589 0.886714 0.781277 0.357768
C56   C     C_2   0.281624 0.146622 0.489267 0.950732
O19   O     O_2   0.302910 0.084909 0.404509 -0.556781
O20   O     O_R   0.245379 0.089625 0.572511 -0.776024
H21   H     H_    0.240129 0.997383 0.552902 0.382719
C57   C     C_2   0.584004 0.603045 0.135903 1.051508
O21   O     O_2   0.580108 0.690281 0.212904 -0.572480
O22   O     O_R   0.631176 0.559152 0.102485 -0.741893
H22   H     H_    0.659217 0.607851 0.147601 0.339399
O23   O     O_3   0.576796 0.615796 0.860813 -0.729075
H23   H     H_    0.562355 0.655965 0.780013 0.367763
C58   C     C_2   0.393778 0.592888 0.119442 1.008539
O24   O     O_2   0.356748 0.604992 0.189779 -0.546277
O25   O     O_R   0.422382 0.698264 0.080213 -0.857031
H24   H     H_    0.408728 0.778826 0.116893 0.347772
O26   O     O_3   0.379075 0.367638 0.133955 -0.679959
H25   H     H_    0.391812 0.285749 0.104156 0.355459
O27   O     O_3   0.133310 0.192278 0.169846 -0.645244
H26   H     H_    0.114624 0.229591 0.093364 0.352752
C59   C     C_2   0.032167 0.090367 0.189730 0.944722
O28   O     O_2   0.046007 0.090654 0.072148 -0.632990
O29   O     O_R   0.995389 0.003791 0.232585 -0.772116
H27   H     H_    0.983071 0.948129 0.157040 0.355122
C60   C     C_2   0.323151 0.683162 0.514396 0.992276
O30   O     O_2   0.290349 0.751782 0.553982 -0.601136
O31   O     O_R   0.368306 0.736165 0.468525 -0.793710
H28   H     H_    0.368977 0.831069 0.471996 0.382912

loop_
_geom_bond_atom_site_label_1
_geom_bond_atom_site_label_2
_geom_bond_distance
_ccdc_geom_bond_type
C17   C29   1.397649 A    
C47   C48   1.519821 S    
C44   O17   1.373718 S    
C7    C8    1.399775 A    
C12   C15   1.410037 A    
C57   O22   1.398149 S    
O26   H25   0.993670 S    
C7    H5    1.083688 S    
Zn1   O7    1.946911 S    
N1    C11   1.432537 S    
C48   H12   1.112285 S    
C50   C57   1.472393 S    
C20   C24   1.416890 A    
C54   O26   1.410331 S    
C1    C42   1.428696 S    
C53   H14   1.112767 S    
C22   C23   1.398146 A    
C14   C36   1.416626 A    
C26   N2    1.370014 A    
O7    C4    1.294152 A    
C5    C13   1.411750 A    
O22   H22   1.013091 S    
C5    O9    1.349279 S    
O23   H23   0.984222 S    
Zn1   O5    1.986341 S    
C41   C46   1.361441 A    
C28   C29   1.396138 A    
C19   C38   1.409896 A    
O5    C3    1.294864 A    
C59   O28   1.222138 D    
C56   O19   1.223281 D    
C58   O25   1.398728 S    
C58   O24   1.222678 D    
C49   C52   1.409190 A    
C2    C16   1.454652 S    
C33   C34   1.414043 A    
C37   H6    1.083011 S    
C42   C43   1.415260 A    
C48   H13   1.111466 S    
Zn2   N3    2.020970 S    
C53   H15   1.111971 S    
C44   C45   1.420668 A    
C43   C55   1.489708 S    
C28   H2    1.082727 S    
C8    C60   1.492879 S    
C29   H1    1.082465 S    
N2    C32   1.435244 S    
C26   O12   1.349256 S    
C51   O23   1.375515 S    
C38   C39   1.391433 A    
C36   C59   1.496334 S    
C9    C10   1.412810 A    
C17   C30   1.400899 A    
C47   H11   1.114139 S    
C31   H9    1.082963 S    
O20   H21   1.013715 S    
C19   C35   1.416632 A    
O3    Zn1   1.946248 S    
C55   O16   1.398691 S    
C57   O21   1.218999 D    
C30   H8    1.084135 S    
C51   N4    1.371290 A    
C33   C36   1.422684 A    
C59   O29   1.399273 S    
C10   C11   1.407675 A    
C47   O18   1.401354 S    
C10   C56   1.487171 S    
C40   H10   1.078108 S    
C41   C42   1.390552 A    
C12   C34   1.413066 A    
C18   C33   1.420278 A    
C12   C13   1.411474 A    
O3    C2    1.295711 A    
C54   C58   1.512081 S    
N2    C27   1.366747 A    
C15   C37   1.396880 A    
C50   C51   1.417616 A    
C3    C45   1.431782 S    
C13   C14   1.413184 A    
O1    C1    1.289754 A    
C23   C24   1.409333 A    
C7    C11   1.399517 A    
C30   C31   1.388061 A    
C25   C26   1.409689 A    
C52   C53   1.491465 S    
Zn2   O8    1.946248 S    
O17   H19   0.991204 S    
C56   O20   1.398162 S    
N1    C6    1.363910 A    
O16   H18   1.014021 S    
C41   C48   1.496614 S    
C53   C54   1.527198 S    
C6    O11   1.350143 S    
C49   C54   1.507166 S    
C34   C35   1.420928 A    
C9    C16   1.411173 A    
O8    C4    1.297880 A    
O18   H20   0.991932 S    
C37   C40   1.386721 A    
C27   O10   1.349982 S    
C4    C17   1.451392 S    
C60   O31   1.398700 S    
C31   C32   1.399859 A    
C21   H4    1.080157 S    
C5    N1    1.367659 A    
C24   C25   1.412547 A    
C35   C40   1.412601 A    
C18   C21   1.411776 A    
O1    Zn1   1.998403 S    
C19   C20   1.414185 A    
O2    Zn2   1.986342 S    
C6    C15   1.397656 A    
C46   C47   1.498549 S    
O6    C3    1.286553 A    
O4    Zn2   1.946913 S    
C39   O14   1.377890 S    
C8    C16   1.410768 A    
C38   H7    1.079410 S    
O2    C1    1.287392 A    
C45   C46   1.392427 A    
C18   C20   1.418180 A    
C49   N3    1.365686 A    
O14   H17   0.990826 S    
O4    C2    1.294769 A    
C55   O15   1.223365 D    
C21   C22   1.387785 A    
O27   H26   0.990141 S    
C23   C27   1.399455 A    
O25   H24   1.013638 S    
C43   C44   1.394991 A    
C14   O27   1.377850 S    
C9    O13   1.384593 S    
C25   C39   1.416510 A    
N3    C50   1.379724 A    
Zn1   N4    2.020198 S    
O13   H16   0.989190 S    
C22   H3    1.083384 S    
Zn2   O6    1.998402 S    
N4    C52   1.362852 A    
C28   C32   1.406350 A    
O29   H27   1.013882 S    
C60   O30   1.223501 D    
O31   H28   1.013905 S    
