data_mof_unit_37612.cif
_audit_creation_date              2012-12-10T16:57:08-0500
_audit_creation_method            fapswitch 2.2
_symmetry_space_group_name_H-M    P1
_symmetry_Int_Tables_number       1
_space_group_crystal_system       triclinic
_cell_length_a                    7.819198
_cell_length_b                    8.560898
_cell_length_c                    16.733867
_cell_angle_alpha                 92.658474
_cell_angle_beta                  79.477434
_cell_angle_gamma                 93.671171
_cell_volume                      1098.36966322

loop_
_atom_site_label
_atom_site_type_symbol
_atom_type_description
_atom_site_fract_x
_atom_site_fract_y
_atom_site_fract_z
_atom_type_partial_charge
C1    C     C_R   0.545958 0.794616 0.497994 0.953855
C2    C     C_R   0.435050 0.353518 0.229204 0.432739
C3    C     C_R   0.552196 0.669747 0.854541 -0.301832
C4    C     C_R   0.447804 0.330256 0.145458 -0.301832
C5    C     C_R   0.437368 0.574280 0.907241 -0.090855
C6    C     C_R   0.562631 0.425726 0.092759 -0.090855
C7    C     C_R   0.319756 0.463636 0.877844 0.476874
C8    C     C_R   0.680242 0.536370 0.122156 0.476873
C9    C     C_R   0.334880 0.435582 0.794356 0.347028
C10   C     C_R   0.665118 0.564422 0.205644 0.347028
C11   C     C_2   0.472559 0.566589 0.988828 -0.170266
C12   C     C_R   0.454042 0.205384 0.502006 0.953856
C13   C     C_2   0.527439 0.433416 0.011172 -0.170264
C14   C     C_2   0.570204 0.958104 0.496762 -0.345559
C15   C     C_2   0.429796 0.041896 0.503238 -0.345559
C16   C     C_R   0.475918 0.504356 0.653912 0.921881
C17   C     C_R   0.524082 0.495644 0.346088 0.921882
C18   C     C_R   0.460869 0.525494 0.740946 -0.293660
C19   C     C_R   0.539131 0.474508 0.259053 -0.293660
C20   C     C_R   0.564951 0.646483 0.770796 0.432738
H1    H     H_    0.741244 0.817983 0.748067 0.341308
H2    H     H_    0.640257 0.754858 0.878576 0.180835
H3    H     H_    0.702891 0.008955 0.490511 0.193480
H4    H     H_    0.297109 0.991045 0.509489 0.193480
H5    H     H_    0.950845 0.293765 0.402205 0.344710
H6    H     H_    0.049155 0.706235 0.597795 0.344709
H7    H     H_    0.258759 0.182016 0.251931 0.341309
H8    H     H_    0.724152 0.716765 0.288503 0.324179
H9    H     H_    0.275846 0.283237 0.711499 0.324179
H10   H     H_    0.529536 0.327456 0.972628 0.196321
H11   H     H_    0.470462 0.672550 0.027372 0.196322
H12   H     H_    0.181039 0.421783 0.984593 0.345732
H13   H     H_    0.818957 0.578226 0.015407 0.345732
H14   H     H_    0.359744 0.245144 0.121423 0.180835
N1    N     N_2   0.953500 0.457650 0.478520 0.175135
N2    N     N_2   0.046500 0.542350 0.521480 0.175135
O1    O     O_R   0.388470 0.738640 0.505270 -0.644840
O2    O     O_3   0.321003 0.261181 0.282986 -0.713212
O3    O     O_3   0.772245 0.683239 0.231955 -0.686576
O4    O     O_3   0.227752 0.316765 0.768046 -0.686576
O5    O     O_3   0.196105 0.374287 0.928812 -0.706511
O6    O     O_3   0.803891 0.625721 0.071189 -0.706512
O7    O     O_3   0.040097 0.349720 0.429602 -0.610988
O8    O     O_3   0.959903 0.650280 0.570398 -0.610987
O9    O     O_R   0.611530 0.261360 0.494730 -0.644839
O10   O     O_R   0.679650 0.711510 0.491500 -0.571679
O11   O     O_R   0.320350 0.288490 0.508500 -0.571679
O12   O     O_R   0.337210 0.515200 0.623500 -0.638540
O13   O     O_R   0.662790 0.484800 0.376500 -0.638541
O14   O     O_R   0.628380 0.488060 0.609730 -0.533231
O15   O     O_R   0.371620 0.511940 0.390270 -0.533232
O16   O     O_3   0.679000 0.738818 0.717013 -0.713210
Zn1   Zn    Zn3+2 0.305580 0.518120 0.509190 1.073670
Zn2   Zn    Zn3+2 0.694420 0.481880 0.490810 1.073670

loop_
_geom_bond_atom_site_label_1
_geom_bond_atom_site_label_2
_ccdc_geom_bond_type
C14   H3    S    
C2    C4    A    
H12   O5    S    
N2    Zn1   S    
N1    O7    S    
C2    O2    S    
N1    N2    D    
C12   C15   S    
C1    O1    A    
C10   C19   A    
O11   Zn1   S    
O1    Zn1   S    
H5    O7    S    
C3    C5    A    
H6    O8    S    
C3    C20   A    
C20   O16   S    
N1    Zn2   S    
C11   C13   D    
C17   O15   A    
O14   Zn2   S    
C12   O11   A    
H13   O6    S    
H9    O4    S    
C8    C10   A    
C15   H4    S    
C17   C19   S    
O10   Zn2   S    
C8    O6    S    
O9    Zn2   S    
C5    C11   S    
C18   C20   A    
C7    O5    S    
C16   O12   A    
O12   Zn1   S    
C4    H14   S    
C1    O10   A    
N2    O8    S    
C4    C6    A    
H7    O2    S    
C11   H11   S    
O13   Zn2   S    
C7    C9    A    
C9    C18   A    
H1    O16   S    
C13   H10   S    
C16   C18   S    
C17   O13   A    
C5    C7    A    
C14   C15   D    
C10   O3    S    
C3    H2    S    
C6    C8    A    
C1    C14   S    
H8    O3    S    
O15   Zn1   S    
C2    C19   A    
C9    O4    S    
C16   O14   A    
C12   O9    A    
C6    C13   S    
