data_mof_unit_20380.cif
_audit_creation_date              2012-12-11T17:23:12-0500
_audit_creation_method            fapswitch 2.2
_symmetry_space_group_name_H-M    P1
_symmetry_Int_Tables_number       1
_space_group_crystal_system       triclinic
_cell_length_a                    22.403255
_cell_length_b                    7.092666
_cell_length_c                    19.371352
_cell_angle_alpha                 89.992544
_cell_angle_beta                  99.624344
_cell_angle_gamma                 89.997306
_cell_volume                      3034.76088928

loop_
_atom_site_label
_atom_site_type_symbol
_atom_type_description
_atom_site_fract_x
_atom_site_fract_y
_atom_site_fract_z
_atom_type_partial_charge
O1    O     O_R   0.443980 0.494320 0.557430 -0.526776
O2    O     O_R   0.556020 0.994320 0.442570 -0.526760
O3    O     O_R   0.441210 0.822520 0.414610 -0.536598
O4    O     O_R   0.558790 0.322520 0.585390 -0.536678
C1    C     C_R   0.426808 0.655259 0.388614 0.758236
C2    C     C_R   0.573190 0.155229 0.611386 0.758307
O5    O     O_R   0.436920 0.823940 0.555180 -0.540177
O6    O     O_R   0.563080 0.323940 0.444820 -0.540228
O7    O     O_R   0.551700 0.995760 0.584140 -0.540095
O8    O     O_R   0.448300 0.495760 0.415860 -0.540117
C3    C     C_R   0.421783 0.655456 0.575114 0.713685
C4    C     C_R   0.578218 0.155464 0.424887 0.713756
O9    O     O_3   0.537660 0.661290 0.509340 -0.373930
O10   O     O_3   0.462340 0.161290 0.490660 -0.373880
V1    V     V_3+5 0.493010 0.935560 0.498270 1.448692
V2    V     V_3+5 0.506990 0.435560 0.501730 1.448507
H1    H     H_    0.663089 0.886057 0.235316 0.137154
H2    H     H_    0.336915 0.386022 0.764712 0.137213
C5    C     C_R   0.743337 0.973381 0.196422 -0.266059
C6    C     C_R   0.256667 0.473381 0.803597 -0.266257
H3    H     H_    0.738864 0.863649 0.156997 0.131798
H4    H     H_    0.261138 0.363639 0.843030 0.131892
C7    C     C_R   0.792114 0.100089 0.202880 0.042910
C8    C     C_R   0.207891 0.600113 0.797128 0.042863
C9    C     C_R   0.796474 0.243611 0.253879 0.481495
C10   C     C_R   0.203533 0.743641 0.746116 0.481526
C11   C     C_R   0.753414 0.253469 0.299411 -0.235693
C12   C     C_R   0.246594 0.753486 0.700586 -0.235604
H5    H     H_    0.758063 0.360492 0.339863 0.137268
H6    H     H_    0.241947 0.860530 0.660131 0.137329
C13   C     C_R   0.704963 0.125701 0.293089 0.072795
C14   C     C_R   0.295043 0.625693 0.706919 0.072784
C15   C     C_R   0.700132 0.986089 0.241102 -0.150830
C16   C     C_R   0.299873 0.486074 0.758917 -0.150826
C17   C     C_1   0.837321 0.083452 0.157021 0.004858
C18   C     C_1   0.162681 0.583483 0.842983 0.004717
C19   C     C_1   0.660523 0.137301 0.340017 -0.021976
C20   C     C_1   0.339483 0.637280 0.659990 -0.021990
C21   C     C_1   0.623261 0.146330 0.378976 -0.171238
C22   C     C_1   0.376743 0.646308 0.621028 -0.171260
C23   C     C_1   0.875491 0.072072 0.119318 -0.178520
C24   C     C_1   0.124510 0.572098 0.880684 -0.178529
C25   C     C_R   0.631380 0.144505 0.805645 -0.209549
C26   C     C_R   0.368584 0.645727 0.194354 -0.209544
H7    H     H_    0.612386 0.156221 0.853352 0.175516
H8    H     H_    0.387559 0.658009 0.146652 0.175521
C27   C     C_R   0.614882 0.145442 0.679012 -0.158057
C28   C     C_R   0.385111 0.645596 0.320989 -0.158101
C29   C     C_R   0.909778 0.034450 0.760734 -0.244389
C30   C     C_R   0.090263 0.533610 0.239243 -0.244360
C31   C     C_R   0.872572 0.009801 0.696580 -0.174830
C32   C     C_R   0.127494 0.508602 0.303363 -0.174820
C33   C     C_R   0.809564 0.020294 0.690454 0.464031
C34   C     C_R   0.190495 0.519377 0.309477 0.464025
C35   C     C_R   0.782453 0.075658 0.749107 -0.019447
C36   C     C_R   0.217564 0.575433 0.250870 -0.019470
C37   C     C_R   0.821253 0.089939 0.815747 -0.053681
C38   C     C_R   0.178743 0.590103 0.184255 -0.053698
C39   C     C_R   0.718501 0.108401 0.745087 0.027703
C40   C     C_R   0.281500 0.608491 0.254904 0.027685
C41   C     C_R   0.694359 0.126830 0.808251 -0.028147
C42   C     C_R   0.305617 0.627651 0.191750 -0.028194
C43   C     C_R   0.733092 0.128619 0.873449 0.461657
C44   C     C_R   0.266868 0.629784 0.126564 0.461683
C45   C     C_R   0.795732 0.119477 0.876225 -0.247297
C46   C     C_R   0.204236 0.620299 0.123795 -0.247300
C47   C     C_R   0.677644 0.129923 0.680835 -0.253448
C48   C     C_R   0.322360 0.629654 0.319170 -0.253431
C49   C     C_R   0.591622 0.146669 0.741724 0.434340
C50   C     C_R   0.408353 0.647606 0.258267 0.434404
C51   C     C_R   0.885056 0.068842 0.820974 -0.056213
C52   C     C_R   0.114951 0.568683 0.179026 -0.056249
H9    H     H_    0.693125 0.142486 0.631366 0.183550
H10   H     H_    0.306885 0.641671 0.368657 0.183549
H11   H     H_    0.958261 0.017720 0.763976 0.141036
H12   H     H_    0.041790 0.516600 0.235999 0.141065
H13   H     H_    0.892730 0.972749 0.651352 0.152531
H14   H     H_    0.107365 0.471016 0.348560 0.152534
H15   H     H_    0.824323 0.132972 0.926882 0.119067
H16   H     H_    0.175630 0.634047 0.073155 0.119208
O11   O     O_R   0.051730 0.724670 0.084120 -0.534362
O12   O     O_R   0.948270 0.224670 0.915880 -0.534361
O13   O     O_R   0.063080 0.393540 0.944820 -0.539682
O14   O     O_R   0.936920 0.893540 0.055180 -0.539705
C53   C     C_R   0.078409 0.562178 0.925163 0.712229
C54   C     C_R   0.921591 0.062170 0.074837 0.712195
O15   O     O_R   0.058800 0.395030 0.085390 -0.536895
O16   O     O_R   0.941200 0.895030 0.914610 -0.536899
O17   O     O_R   0.943980 0.223310 0.057440 -0.529511
O18   O     O_R   0.056020 0.723310 0.942560 -0.529527
C55   C     C_R   0.072957 0.563411 0.111334 0.698813
C56   C     C_R   0.927045 0.063441 0.888666 0.698840
O19   O     O_3   0.962360 0.556290 0.990650 -0.369689
O20   O     O_3   0.037640 0.056290 0.009350 -0.369680
V3    V     V_3+5 0.006980 0.281990 0.001730 1.436138
V4    V     V_3+5 0.993020 0.781990 0.998270 1.436075
O21   O     O_3   0.775974 0.965448 0.627331 -0.567416
C57   C     C_3   0.762361 0.771908 0.631298 -0.257338
H17   H     H_    0.735221 0.743143 0.673329 0.143557
H18   H     H_    0.804293 0.684798 0.639418 0.147285
H19   H     H_    0.734730 0.728186 0.580898 0.169528
O22   O     O_3   0.224124 0.464100 0.372530 -0.567397
C58   C     C_3   0.237815 0.270673 0.368340 -0.257195
H20   H     H_    0.264959 0.242471 0.326269 0.143586
H21   H     H_    0.195920 0.183409 0.360131 0.147230
H22   H     H_    0.265473 0.226606 0.418684 0.169519
O23   O     O_3   0.845180 0.366105 0.262213 -0.549438
C59   C     C_3   0.824956 0.544051 0.235447 -0.237682
H23   H     H_    0.793695 0.609740 0.267452 0.143392
H24   H     H_    0.802925 0.534536 0.179569 0.128648
H25   H     H_    0.864711 0.638531 0.237820 0.174063
O24   O     O_3   0.154832 0.866170 0.737764 -0.549422
C60   C     C_3   0.175042 0.043987 0.764649 -0.237734
H26   H     H_    0.206430 0.109689 0.732803 0.143356
H27   H     H_    0.196926 0.034239 0.820574 0.128770
H28   H     H_    0.135299 0.138580 0.762159 0.174090
O25   O     O_3   0.530068 0.166900 0.740507 -0.558746
C61   C     C_3   0.505825 0.989577 0.753684 -0.244355
H29   H     H_    0.523775 0.939797 0.807638 0.136756
H30   H     H_    0.514619 0.882724 0.714454 0.136877
H31   H     H_    0.456010 0.003730 0.749260 0.165337
O26   O     O_3   0.469888 0.668317 0.259478 -0.558725
C62   C     C_3   0.494261 0.491231 0.246246 -0.244552
H32   H     H_    0.476298 0.441434 0.192303 0.136779
H33   H     H_    0.485602 0.384214 0.285491 0.136934
H34   H     H_    0.544058 0.505786 0.250598 0.165322
O27   O     O_3   0.709781 0.158441 0.934434 -0.554841
C63   C     C_3   0.715814 0.991408 0.974563 -0.259318
H35   H     H_    0.764085 0.960513 0.995624 0.134340
H36   H     H_    0.694349 0.869154 0.943871 0.139155
H37   H     H_    0.692184 0.011026 0.020014 0.171851
O28   O     O_3   0.290142 0.660261 0.065595 -0.554850
C64   C     C_3   0.284286 0.493405 0.025382 -0.259428
H38   H     H_    0.236042 0.461917 0.004403 0.134327
H39   H     H_    0.305968 0.371282 0.055983 0.139181
H40   H     H_    0.307808 0.513661 0.979876 0.171934

loop_
_geom_bond_atom_site_label_1
_geom_bond_atom_site_label_2
_ccdc_geom_bond_type
C43   C45   A    
O4    V2    S    
C45   H15   S    
O15   C55   A    
C11   H5    S    
C18   C24   T    
O1    C3    A    
O2    C4    A    
C63   H35   S    
C2    O7    A    
O16   V4    S    
O21   C57   S    
C62   H32   S    
O5    C3    A    
C23   C54   S    
C9    O23   S    
C8    C18   S    
C5    H3    S    
C8    C10   A    
C35   C39   A    
C62   H33   S    
C48   H10   S    
O12   C56   A    
C59   H23   S    
C40   C42   A    
O14   V4    S    
C41   C43   A    
C30   C52   A    
C61   H29   S    
C27   C49   A    
C42   C44   A    
C39   C47   A    
C38   C46   A    
C51   C56   S    
C44   O28   S    
C26   H8    S    
O28   C64   S    
C29   C31   A    
O15   V3    S    
C64   H40   S    
C30   C32   A    
O23   C59   S    
C29   H11   S    
C26   C50   A    
C47   H9    S    
C14   C20   S    
C36   C38   A    
C60   H28   S    
C6    C16   A    
O6    V2    S    
O5    V1    S    
C25   C49   A    
O22   C58   S    
H1    C15   S    
C32   H14   S    
C27   C47   A    
O24   C60   S    
C32   C34   A    
C33   C35   A    
C1    C28   S    
C34   C36   A    
C39   C41   A    
C2    C27   S    
C11   C13   A    
C3    C22   S    
O16   C56   A    
C12   C14   A    
O4    C2    A    
C5    C15   A    
C37   C45   A    
C24   C53   S    
O11   V4    S    
C62   H34   S    
C33   O21   S    
C37   C51   A    
C36   C40   A    
C31   C33   A    
C61   H31   S    
C44   C46   A    
O17   V3    S    
C5    C7    A    
C31   H13   S    
C30   H12   S    
H2    C16   S    
C50   O26   S    
O6    C4    A    
O13   V3    S    
C13   C15   A    
C58   H21   S    
O1    V2    S    
C28   C48   A    
O20   V4    S    
O2    V1    S    
C25   H7    S    
O13   C53   A    
C6    H4    S    
O19   V4    S    
C7    C17   S    
C35   C37   A    
C64   H38   S    
O27   C63   S    
C63   H37   S    
C10   O24   S    
O3    V1    S    
C25   C41   A    
C60   H26   S    
C52   C55   S    
O12   V3    S    
C34   O22   S    
C28   C50   A    
O3    C1    A    
C54   O17   A    
C63   H36   S    
C53   O18   A    
O18   V4    S    
C9    C11   A    
C57   H19   S    
C46   H16   S    
C10   C12   A    
C59   H25   S    
C26   C42   A    
C4    C21   S    
C12   H6    S    
O7    V1    S    
C1    O8    A    
C19   C21   T    
O8    V2    S    
O25   C61   S    
C20   C22   T    
C38   C52   A    
C49   O25   S    
C59   H24   S    
C58   H22   S    
C7    C9    A    
O20   V3    S    
C17   C23   T    
C57   H18   S    
C61   H30   S    
O11   C55   A    
C13   C19   S    
C40   C48   A    
O19   V3    S    
C57   H17   S    
C29   C51   A    
O9    V2    S    
C58   H20   S    
C64   H39   S    
O10   V1    S    
O14   C54   A    
O26   C62   S    
C6    C8    A    
C43   O27   S    
C14   C16   A    
C60   H27   S    
