data_mof_unit_56353.cif
_audit_creation_date              2012-12-11T15:55:54-0500
_audit_creation_method            fapswitch 2.2
_symmetry_space_group_name_H-M    P1
_symmetry_Int_Tables_number       1
_space_group_crystal_system       triclinic
_cell_length_a                    11.023368
_cell_length_b                    11.109636
_cell_length_c                    18.769944
_cell_angle_alpha                 90.520637
_cell_angle_beta                  90.990291
_cell_angle_gamma                 59.193521
_cell_volume                      1974.03947629

loop_
_atom_site_label
_atom_site_type_symbol
_atom_type_description
_atom_site_fract_x
_atom_site_fract_y
_atom_site_fract_z
_atom_type_partial_charge
C1    C     C_R   0.384576 0.713386 0.389553 0.526120
C2    C     C_R   0.257280 0.440391 0.195714 -0.168870
C3    C     C_R   0.241367 0.443390 0.269512 -0.032892
C4    C     C_R   0.383270 0.354215 0.387551 0.566929
C5    C     C_R   0.817154 0.688509 0.349350 -0.078131
C6    C     C_R   0.841965 0.618826 0.284561 -0.104106
C7    C     C_R   0.979186 0.541924 0.258798 -0.071531
C8    C     C_R   0.092927 0.538802 0.295973 0.061185
C9    C     C_R   0.358700 0.340728 0.310732 0.048893
C10   C     C_R   0.862525 0.333534 0.182400 0.007825
C11   C     C_R   0.964048 0.261490 0.234819 0.005260
C12   C     C_R   0.637270 0.114803 0.173576 -0.010622
C13   C     C_R   0.934540 0.273457 0.304380 0.054445
C14   C     C_R   0.690296 0.425966 0.277259 -0.116153
C15   C     C_R   0.719562 0.414681 0.203609 0.184139
C16   C     C_R   0.771716 0.381307 0.402257 0.535074
C17   C     C_3   0.118834 0.178001 0.248197 -0.182695
C18   C     C_3   0.083719 0.189952 0.328057 0.089021
C19   C     C_R   0.800973 0.359867 0.328299 -0.018289
C20   C     C_R   0.374516 0.808025 0.168361 0.050148
C21   C     C_R   0.462793 0.826448 0.216545 0.006809
C22   C     C_R   0.460920 0.801391 0.288969 0.006518
C23   C     C_R   0.370050 0.326989 0.160852 0.034754
C24   C     C_R   0.315200 0.704421 0.264805 -0.102271
C25   C     C_R   0.315167 0.730336 0.192303 -0.031437
C26   C     C_3   0.473476 0.951617 0.232810 -0.294063
C27   C     C_3   0.455390 0.933491 0.310415 -0.263289
C28   C     C_R   0.342489 0.772105 0.603266 0.608587
C29   C     C_R   0.380509 0.747916 0.314510 0.007690
C30   C     C_R   0.295992 0.305108 0.807542 -0.044602
C31   C     C_R   0.412685 0.200516 0.772114 0.016412
C32   C     C_R   0.426037 0.203751 0.700445 0.041181
C33   C     C_R   0.191134 0.405622 0.691623 0.400265
C34   C     C_R   0.477420 0.233530 0.275101 -0.156121
C35   C     C_R   0.177936 0.400847 0.766135 -0.101133
C36   C     C_3   0.566263 0.138897 0.787649 -0.258573
C37   C     C_3   0.582654 0.143745 0.708260 -0.227022
C38   C     C_R   0.322998 0.315364 0.659930 0.063533
C39   C     C_R   0.839490 0.320141 0.830576 -0.000030
C40   C     C_R   0.368495 0.348341 0.594348 0.613498
C41   C     C_R   0.820790 0.438021 0.795581 -0.028464
C42   C     C_R   0.816063 0.447200 0.723453 0.102296
C43   C     C_R   0.858153 0.212263 0.714308 -0.182252
C44   C     C_R   0.867796 0.202008 0.789141 -0.164486
C45   C     C_R   0.490789 0.225291 0.201170 -0.005492
C46   C     C_3   0.714312 0.588480 0.807111 -0.236467
C47   C     C_3   0.706954 0.600386 0.726867 0.314149
C48   C     C_R   0.822619 0.339881 0.681409 -0.007354
C49   C     C_R   0.284906 0.878168 0.819739 -0.036407
C50   C     C_R   0.187161 0.857402 0.783148 -0.056208
C51   C     C_R   0.199498 0.835077 0.710803 -0.032274
C52   C     C_R   0.765050 0.376312 0.609727 0.539992
C53   C     C_R   0.384408 0.889804 0.706407 0.322501
C54   C     C_R   0.376729 0.905660 0.780340 -0.124943
C55   C     C_3   0.151550 0.747196 0.796210 -0.208678
C56   C     C_R   0.057173 0.634745 0.352412 -0.053927
C57   C     C_3   0.171923 0.717088 0.717386 0.270910
C58   C     C_R   0.304223 0.841163 0.672063 0.036830
C59   C     C_R   0.909559 0.316352 0.110555 0.526523
C60   C     C_R   0.332526 0.294292 0.091042 0.545732
C61   C     C_R   0.311219 0.894790 0.104298 0.532493
C62   C     C_R   0.884205 0.308308 0.904371 0.547679
C63   C     C_R   0.291549 0.284790 0.883493 0.551372
C64   C     C_R   0.917062 0.893790 0.143992 -0.043813
C65   C     C_R   0.270171 0.903850 0.895593 0.551463
C66   C     C_R   0.894033 0.993045 0.195780 0.397821
C67   C     C_R   0.922946 0.702845 0.381496 -0.092394
C68   C     C_R   0.756936 0.103029 0.209304 -0.068692
C69   C     C_R   0.665715 0.002963 0.125894 -0.110703
C70   C     C_R   0.802947 0.898568 0.109201 -0.202181
Cr1   Cr    Cr6+3 0.601740 0.606840 0.505840 1.095091
Cr2   Cr    Cr6+3 0.291500 0.601560 0.495070 1.057441
Cr3   Cr    Cr6+3 0.606780 0.291630 0.499130 1.022390
Cr4   Cr    Cr6+3 0.062440 0.063060 0.008240 1.027375
Cr5   Cr    Cr6+3 0.062950 0.375000 0.998920 1.000988
Cr6   Cr    Cr6+3 0.374550 0.061770 0.992470 0.995559
F1    F     F_    0.081658 0.505698 0.652549 -0.593023
F2    F     F_    0.758919 0.682164 0.702234 -0.552803
F3    F     F_    0.479796 0.907239 0.670210 -0.605355
F4    F     F_    0.293378 0.589974 0.704463 -0.651040
F5    F     F_    0.003833 0.977296 0.236341 -0.681966
H1    H     H_    0.565408 0.152958 0.305675 0.142602
H2    H     H_    0.820306 0.814805 0.073065 0.113831
H3    H     H_    0.256304 0.702342 0.156132 0.122725
H4    H     H_    0.389483 0.049018 0.207678 0.143944
H5    H     H_    0.583048 0.925714 0.225441 0.147845
H6    H     H_    0.543282 0.923284 0.343858 0.134694
H7    H     H_    0.351972 0.012523 0.331439 0.179463
H8    H     H_    0.079177 0.474325 0.791145 0.159323
H9    H     H_    0.616567 0.030379 0.808855 0.162892
H10   H     H_    0.589554 0.211156 0.818219 0.141980
H11   H     H_    0.614162 0.220164 0.693405 0.160005
H12   H     H_    0.716838 0.731637 0.374713 0.144318
H13   H     H_    0.900734 0.768120 0.428311 0.118016
H14   H     H_    0.645096 0.038216 0.683662 0.214353
H15   H     H_    0.870320 0.124487 0.682994 0.131927
H16   H     H_    0.896269 0.103359 0.814172 0.145497
H17   H     H_    0.760741 0.646005 0.833491 0.171526
H18   H     H_    0.615345 0.604485 0.830859 0.089423
H19   H     H_    0.603580 0.625515 0.703480 0.148313
H20   H     H_    0.446466 0.934264 0.806645 0.169159
H21   H     H_    0.040067 0.792682 0.812716 0.101782
H22   H     H_    0.022237 0.808149 0.133626 0.118124
H23   H     H_    0.755920 0.621060 0.255423 0.134930
H24   H     H_    0.231098 0.660188 0.830381 0.165760
H25   H     H_    0.076050 0.734738 0.687777 0.196771
H26   H     H_    0.743799 0.173177 0.252228 0.131195
H27   H     H_    0.127928 0.663829 0.372910 0.176740
H28   H     H_    0.587611 0.978604 0.108569 0.185465
H29   H     H_    0.170221 0.520142 0.164123 0.118708
H30   H     H_    0.643872 0.462340 0.106756 0.325924
H31   H     H_    0.097195 0.274558 0.415520 0.338095
H32   H     H_    0.996512 0.483640 0.210046 0.127956
H33   H     H_    0.582495 0.484936 0.294616 0.126803
H34   H     H_    0.171527 0.235729 0.232294 0.141071
H35   H     H_    0.165625 0.070251 0.226889 0.173618
H36   H     H_    0.111002 0.089569 0.354433 0.156528
H37   H     H_    0.259068 0.656275 0.282422 0.118411
O1    O     O_R   0.748670 0.497520 0.427970 -0.515298
O2    O     O_R   0.417470 0.174910 0.067830 -0.536492
O3    O     O_R   0.375160 0.946380 0.070880 -0.519563
O4    O     O_R   0.476470 0.723930 0.429450 -0.505141
O5    O     O_R   0.160500 0.919670 0.926690 -0.514994
O6    O     O_R   0.933140 0.190380 0.936050 -0.507922
O7    O     O_R   0.909010 0.403210 0.925030 -0.520282
O8    O     O_R   0.179590 0.361290 0.918480 -0.506191
O9    O     O_R   0.391360 0.170840 0.907510 -0.520381
O10   O     O_R   0.350950 0.942600 0.922260 -0.518878
O11   O     O_3   0.166650 0.166610 0.999880 -0.253754
O12   O     O_R   0.300170 0.471020 0.567120 -0.408425
O13   O     O_R   0.264730 0.744140 0.416740 -0.543776
O14   O     O_R   0.309440 0.472410 0.418220 -0.541871
O15   O     O_R   0.501630 0.260530 0.414310 -0.526815
O16   O     O_R   0.727920 0.305730 0.428950 -0.511111
O17   O     O_R   0.738670 0.496020 0.588600 -0.453580
O18   O     O_R   0.467190 0.722540 0.578350 -0.440673
O19   O     O_R   0.254720 0.742640 0.577370 -0.498485
O20   O     O_3   0.607957 0.481644 0.155990 -0.716164
O21   O     O_3   0.127034 0.271250 0.365628 -0.708584
O22   O     O_R   0.491630 0.259030 0.574940 -0.530523
O23   O     O_R   0.718640 0.304340 0.577850 -0.516168
O24   O     O_3   0.500010 0.500010 0.500020 -0.297988
O25   O     O_R   0.186620 0.923750 0.087000 -0.506527
O26   O     O_R   0.957350 0.194160 0.084660 -0.481218
O27   O     O_R   0.935120 0.407280 0.085350 -0.534837
O28   O     O_R   0.203800 0.365060 0.067090 -0.510214

loop_
_geom_bond_atom_site_label_1
_geom_bond_atom_site_label_2
_ccdc_geom_bond_type
C64   H22   S    
C66   C68   A    
C12   C69   A    
C23   C45   A    
C22   C29   A    
C41   C42   A    
Cr1   O4    S    
Cr4   O6    S    
C57   F4    S    
C5    C67   A    
C16   O16   A    
C8    C56   A    
C62   O6    A    
C7    C8    A    
C39   C41   A    
Cr3   O23   S    
C53   C54   A    
Cr5   O27   S    
Cr2   O24   S    
C12   C68   A    
C55   H21   S    
C26   C27   S    
Cr6   O2    S    
C49   C65   S    
C13   C18   S    
C55   H24   S    
Cr6   O3    S    
C61   O3    A    
C36   C37   S    
C53   F3    S    
C10   C15   A    
C26   H4    S    
Cr1   O17   S    
C30   C31   A    
C20   C25   A    
C49   C54   A    
C37   H14   S    
C17   C18   S    
C44   H16   S    
C20   C61   S    
C1    O4    A    
C56   H27   S    
Cr4   O26   S    
C54   H20   S    
C24   C29   A    
C69   H28   S    
C61   O25   A    
C2    H29   S    
C25   H3    S    
C41   C46   S    
C60   O2    A    
C51   C57   S    
C68   H26   S    
C6    H23   S    
C43   C48   A    
C15   O20   S    
Cr4   O5    S    
C46   H17   S    
C21   C22   A    
H31   O21   S    
C18   O21   S    
C60   O28   A    
C32   C38   A    
C21   C26   S    
Cr2   O14   S    
Cr3   O24   S    
Cr5   O28   S    
C23   C60   S    
C13   C19   A    
C65   O10   A    
C24   C25   A    
C4    O14   A    
C3    C8    S    
C16   O1    A    
Cr1   O18   S    
C51   C58   A    
C50   C51   A    
C14   H33   S    
C47   H19   S    
Cr5   O7    S    
C64   C66   A    
C43   C44   A    
C3    C9    A    
C67   H13   S    
Cr6   O11   S    
C31   C32   A    
C14   C15   A    
C26   H5    S    
C50   C55   S    
C1    C29   S    
C43   H15   S    
C34   C45   A    
C42   C48   A    
C32   C37   S    
Cr3   O16   S    
C27   H6    S    
C70   H2    S    
C18   H36   S    
C39   C44   A    
Cr1   O24   S    
C59   O27   A    
C36   H10   S    
Cr2   O19   S    
Cr3   O15   S    
C59   O26   A    
C64   C70   A    
C22   C27   S    
C55   C57   S    
C9    C34   A    
Cr6   O10   S    
Cr4   O25   S    
C35   H8    S    
C17   H34   S    
Cr2   O13   S    
C36   H9    S    
C52   O17   A    
C39   C62   S    
C40   O12   A    
C46   C47   S    
C11   C17   S    
C37   H11   S    
C28   O18   A    
C14   C19   A    
C28   O19   A    
C33   C38   A    
C12   C45   S    
C1    O13   A    
C62   O7    A    
C5    H12   S    
C53   C58   A    
Cr2   O12   S    
C6    C7    A    
Cr3   O22   S    
C28   C58   S    
C56   C67   A    
C30   C35   A    
C24   H37   S    
C52   O23   A    
Cr1   O1    S    
Cr5   O8    S    
C7    H32   S    
C46   H18   S    
C2    C3    A    
C66   F5    S    
C38   C40   S    
C11   C13   A    
C33   F1    S    
C5    C6    A    
C16   C19   S    
C40   O22   A    
C33   C35   A    
C57   H25   S    
C42   C47   S    
C65   O5    A    
C27   H7    S    
C69   C70   A    
C63   O8    A    
C10   C11   A    
C48   C52   S    
C20   C21   A    
H30   O20   S    
C49   C50   A    
Cr4   O11   S    
C2    C23   A    
Cr6   O9    S    
C31   C36   S    
C34   H1    S    
C47   F2    S    
C4    C9    S    
C30   C63   S    
C10   C59   S    
C63   O9    A    
Cr5   O11   S    
C17   H35   S    
C4    O15   A    
