data_mof_unit_21555.cif
_audit_creation_date              2012-12-10T18:57:11-0500
_audit_creation_method            fapswitch 2.2
_symmetry_space_group_name_H-M    P1
_symmetry_Int_Tables_number       1
_space_group_crystal_system       triclinic
_cell_length_a                    8.75354
_cell_length_b                    10.856669
_cell_length_c                    9.54632
_cell_angle_alpha                 90.035679
_cell_angle_beta                  97.704207
_cell_angle_gamma                 90.236456
_cell_volume                      899.030200651

loop_
_atom_site_label
_atom_site_type_symbol
_atom_type_description
_atom_site_fract_x
_atom_site_fract_y
_atom_site_fract_z
_atom_type_partial_charge
C1    C     C_R   0.498566 0.262711 0.499651 0.797828
C2    C     C_R   0.473834 0.935198 0.368767 -0.142236
C3    C     C_R   0.490537 0.869904 0.497807 -0.102675
C4    C     C_R   0.500219 0.938274 0.621690 0.102561
C5    C     C_3   0.530734 0.930742 0.779058 0.111246
C6    C     C_3   0.532820 0.072695 0.778073 -0.478254
C7    C     C_R   0.580488 0.587921 0.083644 0.266000
C8    C     C_R   0.409361 0.420810 0.063215 -0.057136
C9    C     C_R   0.409261 0.420876 0.914322 -0.017540
C10   C     C_R   0.580770 0.587465 0.936174 0.264328
C11   C     C_3   0.750180 0.608546 0.950688 -0.484732
C12   C     C_R   0.204070 0.502260 0.464699 0.914708
C13   C     C_3   0.750485 0.609160 0.109391 -0.071301
C14   C     C_R   0.497854 0.737312 0.499724 0.842217
C15   C     C_R   0.795633 0.505679 0.535977 0.829237
C16   C     C_2   0.038861 0.496430 0.448779 -0.393258
C17   C     C_2   0.959492 0.525129 0.555426 0.103196
C18   C     C_R   0.502080 0.062344 0.621297 0.067802
C19   C     C_R   0.492157 0.130126 0.497432 -0.083880
C20   C     C_R   0.474779 0.064425 0.368565 -0.188916
Cu1   Cu    Cu3+1 0.499990 0.499980 0.640670 1.005293
Cu2   Cu    Cu3+1 0.500010 0.500020 0.359330 0.977285
H1    H     H_    0.981737 0.458879 0.349997 0.137732
H2    H     H_    0.338050 0.355239 0.849669 0.142524
H3    H     H_    0.812894 0.528284 0.914584 0.224985
H4    H     H_    0.779635 0.698636 0.906039 0.238434
H5    H     H_    0.813828 0.529719 0.161392 0.159391
H6    H     H_    0.463866 0.112076 0.268089 0.172658
H7    H     H_    0.462284 0.887208 0.268377 0.204539
H8    H     H_    0.644371 0.889198 0.817585 0.138330
H9    H     H_    0.435678 0.116440 0.823199 0.219185
H10   H     H_    0.648510 0.112615 0.814373 0.187542
H11   H     H_    0.338375 0.355003 0.110278 0.141970
N1    N     N_R   0.500980 0.500930 0.148050 -0.210508
N2    N     N_R   0.500990 0.500890 0.852140 -0.185553
O1    O     O_R   0.500000 0.319640 0.618810 -0.592711
O2    O     O_R   0.500020 0.319680 0.381230 -0.599293
O3    O     O_R   0.274830 0.499980 0.591380 -0.530941
O4    O     O_R   0.274850 0.500020 0.353800 -0.583646
O5    O     O_R   0.499980 0.680320 0.618770 -0.553279
O6    O     O_R   0.500000 0.680360 0.381190 -0.571030
O7    O     O_R   0.725150 0.499980 0.646200 -0.574700
O8    O     O_R   0.725170 0.500020 0.408620 -0.597797
I1    I     I_    0.809501 0.784661 0.204365 -0.327256
Br1   Br    Br    0.044857 0.607438 0.728751 -0.454192
Br2   Br    Br    0.356730 0.862913 0.860146 -0.448161

loop_
_geom_bond_atom_site_label_1
_geom_bond_atom_site_label_2
_ccdc_geom_bond_type
C7    C10   A    
C6    H10   S    
C9    H2    S    
C10   N2    A    
Cu1   N2    S    
Cu2   O8    S    
C5    Br2   S    
C19   C20   A    
C1    O2    A    
C4    C18   A    
C12   O4    A    
C2    C3    A    
C15   O8    A    
Cu1   O1    S    
C8    N1    A    
Cu1   Cu2   S    
C4    C5    S    
C11   C13   S    
C3    C14   S    
C14   O6    A    
C6    C18   S    
Cu2   O4    S    
C17   Br1   S    
C6    H9    S    
C16   H1    S    
C8    H11   S    
C2    H7    S    
C12   O3    A    
C5    C6    S    
Cu2   N1    S    
C7    N1    A    
C1    C19   S    
Cu2   O6    S    
C10   C11   S    
C11   H3    S    
C2    C20   A    
C3    C4    A    
C12   C16   S    
C7    C13   S    
C15   O7    A    
C15   C17   S    
C18   C19   A    
C5    H8    S    
C9    N2    A    
C16   C17   D    
C20   H6    S    
C11   H4    S    
Cu2   O2    S    
C14   O5    A    
C13   I1    S    
C13   H5    S    
Cu1   O3    S    
Cu1   O7    S    
C1    O1    A    
C8    C9    A    
Cu1   O5    S    
