data_mof_unit_58418.cif
_audit_creation_date              2012-12-11T16:58:17-0500
_audit_creation_method            fapswitch 2.2
_symmetry_space_group_name_H-M    P1
_symmetry_Int_Tables_number       1
_space_group_crystal_system       triclinic
_cell_length_a                    16.912881
_cell_length_b                    7.25706
_cell_length_c                    16.769924
_cell_angle_alpha                 90.143525
_cell_angle_beta                  100.3172
_cell_angle_gamma                 89.946195
_cell_volume                      2025.01678754

loop_
_atom_site_label
_atom_site_type_symbol
_atom_type_description
_atom_site_fract_x
_atom_site_fract_y
_atom_site_fract_z
_atom_type_partial_charge
O1    O     O_R   0.413450 0.494370 0.415710 -0.536248
O2    O     O_R   0.586550 0.994370 0.584290 -0.534813
O3    O     O_R   0.578420 0.819350 0.429360 -0.517535
O4    O     O_R   0.421580 0.319350 0.570640 -0.519730
C1    C     C_R   0.605641 0.656809 0.414740 0.759610
C2    C     C_R   0.394489 0.157320 0.585510 0.731685
O5    O     O_R   0.413570 0.823780 0.406240 -0.536514
O6    O     O_R   0.586430 0.323780 0.593760 -0.514297
O7    O     O_R   0.420530 0.998740 0.561000 -0.552902
O8    O     O_R   0.579470 0.498740 0.439000 -0.552297
C3    C     C_R   0.386267 0.655426 0.383540 0.741107
C4    C     C_R   0.613598 0.155559 0.616633 0.720251
O9    O     O_3   0.502480 0.662320 0.550800 -0.379158
O10   O     O_3   0.497520 0.162320 0.449200 -0.388422
V1    V     V_3+5 0.499540 0.935370 0.490580 1.421328
V2    V     V_3+5 0.500460 0.435370 0.509420 1.437696
C5    C     C_R   0.739566 0.004073 0.689338 0.045742
C6    C     C_R   0.246523 0.552393 0.322497 0.048326
C7    C     C_R   0.683585 0.148214 0.684232 -0.205428
C8    C     C_R   0.316761 0.649031 0.315448 -0.191031
C9    C     C_R   0.698602 0.288833 0.743944 0.440462
C10   C     C_R   0.315754 0.753145 0.243713 0.428700
C11   C     C_R   0.766379 0.278259 0.806790 -0.231973
C12   C     C_R   0.248944 0.739882 0.178928 -0.240946
H1    H     H_    0.775695 0.387126 0.851800 0.168046
H2    H     H_    0.250999 0.811198 0.122664 0.186529
C13   C     C_R   0.817791 0.123546 0.814978 -0.159868
C14   C     C_R   0.182978 0.624239 0.184076 -0.156582
C15   C     C_R   0.804250 0.990929 0.753337 0.073749
C16   C     C_R   0.182284 0.538500 0.258377 0.085251
C17   C     C_3   0.796403 0.786659 0.758101 -0.382026
C18   C     C_3   0.164127 0.345330 0.278969 -0.420026
C19   C     C_3   0.726048 0.801018 0.687925 -0.305680
C20   C     C_3   0.233476 0.361442 0.350421 -0.369436
H3    H     H_    0.778477 0.740920 0.815553 0.186291
H4    H     H_    0.175726 0.244420 0.232366 0.180333
H5    H     H_    0.849021 0.713391 0.741770 0.166476
H6    H     H_    0.104526 0.333060 0.297631 0.169446
H7    H     H_    0.667286 0.765258 0.704562 0.212708
H8    H     H_    0.284347 0.267858 0.346479 0.164986
H9    H     H_    0.738078 0.736322 0.631129 0.181877
H10   H     H_    0.212911 0.360402 0.409640 0.214555
C21   C     C_R   0.330384 0.162512 0.635976 -0.146328
C22   C     C_R   0.670354 0.660041 0.365109 -0.149603
C23   C     C_R   0.168734 0.109100 0.864230 -0.172696
C24   C     C_R   0.831499 0.610859 0.136060 -0.169545
C25   C     C_R   0.280759 0.944835 0.821893 -0.238414
C26   C     C_R   0.717079 0.451761 0.175547 -0.232986
C27   C     C_R   0.226909 0.967133 0.875553 0.615831
C28   C     C_R   0.771314 0.473844 0.122312 0.611189
C29   C     C_R   0.167195 0.231068 0.799145 -0.285663
C30   C     C_R   0.834978 0.727950 0.203437 -0.288649
C31   C     C_R   0.221161 0.208177 0.744693 0.095398
C32   C     C_R   0.780671 0.705095 0.257583 0.095405
C33   C     C_R   0.277980 0.063112 0.755646 0.066663
C34   C     C_R   0.721600 0.565109 0.243906 0.066458
C35   C     C_R   0.331454 0.039603 0.700762 -0.304154
C36   C     C_R   0.667624 0.541703 0.298228 -0.281957
C37   C     C_R   0.273844 0.309144 0.625879 0.442360
C38   C     C_R   0.729433 0.800761 0.378451 0.443198
C39   C     C_R   0.218445 0.326991 0.678843 -0.233570
C40   C     C_R   0.785249 0.818521 0.325826 -0.233284
H11   H     H_    0.375972 0.930549 0.710326 0.132611
H12   H     H_    0.621448 0.436577 0.286670 0.136372
H13   H     H_    0.324223 0.833680 0.831855 0.146871
H14   H     H_    0.671922 0.344535 0.163584 0.149296
H15   H     H_    0.173407 0.434722 0.668653 0.125868
H16   H     H_    0.832107 0.921715 0.338177 0.125004
H17   H     H_    0.122266 0.339251 0.789234 0.147934
H18   H     H_    0.881597 0.832002 0.215266 0.144944
O11   O     O_R   0.920630 0.775410 0.061150 -0.538219
O12   O     O_R   0.079370 0.275410 0.938850 -0.537613
O13   O     O_R   0.086500 0.441450 0.093690 -0.543729
O14   O     O_R   0.913500 0.941450 0.906310 -0.544872
C41   C     C_R   0.114219 0.610243 0.115802 0.731142
C42   C     C_R   0.885827 0.110073 0.884074 0.733727
O15   O     O_R   0.921670 0.445960 0.070740 -0.513027
O16   O     O_R   0.078330 0.945960 0.929260 -0.511952
O17   O     O_R   0.913380 0.271130 0.915780 -0.533829
O18   O     O_R   0.086620 0.771130 0.084220 -0.532700
C43   C     C_R   0.895407 0.613103 0.085588 0.737449
C44   C     C_R   0.104800 0.112643 0.914649 0.737846
O19   O     O_3   0.997500 0.603030 0.949220 -0.380870
O20   O     O_3   0.002500 0.103030 0.050780 -0.381072
V3    V     V_3+5 0.000470 0.329940 0.009420 1.480981
V4    V     V_3+5 0.999530 0.829940 0.990580 1.481314
O21   O     O_3   0.646415 0.435585 0.742725 -0.557695
C45   C     C_3   0.589814 0.392453 0.792146 -0.231233
H19   H     H_    0.546887 0.508832 0.789760 0.155806
H20   H     H_    0.619319 0.374513 0.856522 0.162006
H21   H     H_    0.554512 0.267290 0.769869 0.116566
O22   O     O_3   0.385168 0.840622 0.231239 -0.549844
C46   C     C_3   0.373330 0.032801 0.231321 -0.187047
H22   H     H_    0.427440 0.100637 0.216082 0.160859
H23   H     H_    0.366922 0.080823 0.292629 0.134096
H24   H     H_    0.320940 0.077308 0.185422 0.122441
F1    F     F_    0.231409 0.848272 0.938635 -0.695161
F2    F     F_    0.765250 0.359633 0.057215 -0.697433
O23   O     O_3   0.269552 0.426581 0.560162 -0.570852
C47   C     C_3   0.287384 0.608596 0.587535 -0.191324
H25   H     H_    0.298082 0.692808 0.535382 0.151060
H26   H     H_    0.342980 0.615473 0.634509 0.130090
H27   H     H_    0.235994 0.671524 0.610668 0.126525
O24   O     O_3   0.735602 0.911424 0.446874 -0.562532
C48   C     C_3   0.721814 0.097352 0.423686 -0.178053
H28   H     H_    0.666955 0.114032 0.376345 0.130552
H29   H     H_    0.774893 0.157448 0.402763 0.121881
H30   H     H_    0.712078 0.177570 0.477494 0.145924

loop_
_geom_bond_atom_site_label_1
_geom_bond_atom_site_label_2
_ccdc_geom_bond_type
O21   C45   S    
C9    O21   S    
C46   H22   S    
C13   C15   A    
C5    C15   A    
C23   C44   S    
O1    C3    A    
C42   O17   A    
O2    C4    A    
C2    O7    A    
O12   V3    S    
C25   C27   A    
O5    C3    A    
C48   H29   S    
C19   H7    S    
O14   C42   A    
C20   H8    S    
C18   H4    S    
C7    C9    A    
C12   H2    S    
C23   C29   A    
C24   C43   S    
C24   C30   A    
C37   O23   S    
C38   C40   A    
C39   H15   S    
C47   H25   S    
O18   V4    S    
C31   C39   A    
C22   C36   A    
C20   H10   S    
C17   C19   S    
C6    C16   A    
C18   H6    S    
C41   O18   A    
C6    C8    A    
C21   C37   A    
O16   V4    S    
C26   C28   A    
O15   V3    S    
O6    V2    S    
O13   C41   A    
C5    C19   S    
O24   C48   S    
C30   C32   A    
C35   H11   S    
C31   C33   A    
C36   H12   S    
C48   H30   S    
C32   C34   A    
C3    C8    S    
C28   F2    S    
C37   C39   A    
O20   V3    S    
O4    C2    A    
O5    V1    S    
C32   C40   A    
C47   H27   S    
C17   H5    S    
C29   C31   A    
C18   C20   S    
O4    V2    S    
O11   V4    S    
O16   C44   A    
O23   C47   S    
C45   H21   S    
C23   C27   A    
O6    C4    A    
C47   H26   S    
O1    V2    S    
O14   V4    S    
O2    V1    S    
C6    C20   S    
O13   V3    S    
C1    C22   S    
C8    C10   A    
C46   H24   S    
C11   C13   A    
C2    C21   S    
C33   C35   A    
C10   C12   A    
C13   C42   S    
O17   V3    S    
O3    V1    S    
C25   C33   A    
C26   C34   A    
C12   C14   A    
C45   H20   S    
O3    C1    A    
C48   H28   S    
C24   C28   A    
C40   H16   S    
C19   H9    S    
C9    C11   A    
O7    V1    S    
C1    O8    A    
C15   C17   S    
O8    V2    S    
C16   C18   S    
C22   C38   A    
C4    C7    S    
C14   C16   A    
O22   C46   S    
C5    C7    A    
C34   C36   A    
C17   H3    S    
C11   H1    S    
C30   H18   S    
C21   C35   A    
C27   F1    S    
O19   V4    S    
C45   H19   S    
C46   H23   S    
O15   C43   A    
O9    V2    S    
C10   O22   S    
O10   V1    S    
C29   H17   S    
C26   H14   S    
C38   O24   S    
C14   C41   S    
C25   H13   S    
O12   C44   A    
O11   C43   A    
