data_mof_unit_62831.cif
_audit_creation_date              2013-03-05T16:15:01-0500
_audit_creation_method            fapswitch 2.2
_symmetry_space_group_name_H-M    P1
_symmetry_Int_Tables_number       1
_space_group_crystal_system       triclinic
_cell_length_a                    13.364392
_cell_length_b                    14.260833
_cell_length_c                    16.616855
_cell_angle_alpha                 90.000198
_cell_angle_beta                  84.101376
_cell_angle_gamma                 89.999939
_cell_volume                      3150.19440406

loop_
_atom_site_label
_atom_site_type_symbol
_atom_site_description
_atom_site_fract_x
_atom_site_fract_y
_atom_site_fract_z
_atom_type_partial_charge
O1    O     O_R   0.423530 0.626280 0.499990 -0.595029
O2    O     O_R   0.576470 0.373720 0.500010 -0.590469
O3    O     O_R   0.576470 0.626280 0.500010 -0.595013
O4    O     O_R   0.423530 0.373720 0.499990 -0.590429
C1    C     C_R   0.500000 0.673476 0.500000 0.919288
C2    C     C_R   0.500000 0.326537 0.500001 0.927652
O5    O     O_R   0.414510 0.500000 0.615790 -0.606386
O6    O     O_R   0.585490 0.500000 0.384210 -0.606474
O7    O     O_R   0.567420 0.500000 0.615810 -0.591234
O8    O     O_R   0.432580 0.500000 0.384190 -0.591308
C3    C     C_R   0.485526 0.502935 0.656340 0.902735
C4    C     C_R   0.514474 0.502911 0.343658 0.902833
Zn1   Zn    Zn3+2 0.397910 0.500000 0.499990 0.982961
Zn2   Zn    Zn3+2 0.602090 0.500000 0.500010 0.982975
C5    C     C_R   0.473637 0.474653 0.740496 -0.090544
C6    C     C_R   0.526378 0.474701 0.259478 -0.090840
C7    C     C_R   0.513781 0.527916 0.800380 0.174507
C8    C     C_R   0.485707 0.527711 0.199691 0.174552
C9    C     C_R   0.504521 0.493897 0.879369 -0.137004
C10   C     C_R   0.495050 0.493752 0.120680 -0.137078
C11   C     C_R   0.459310 0.406432 0.898324 0.093925
C12   C     C_R   0.540867 0.406574 0.101608 0.093953
C13   C     C_R   0.418437 0.353533 0.838256 0.240652
C14   C     C_R   0.582235 0.353920 0.161579 0.240614
C15   C     C_R   0.425176 0.389010 0.759626 -0.213651
C16   C     C_R   0.575412 0.389354 0.240227 -0.213890
C17   C     C_2   0.456695 0.372984 0.982266 0.130035
C18   C     C_2   0.543673 0.373205 0.017629 0.130074
H1    H     H_    0.605305 0.348867 0.287582 0.150833
H2    H     H_    0.395677 0.348350 0.712193 0.150589
H3    H     H_    0.464862 0.534488 0.073683 0.139072
H4    H     H_    0.534330 0.534806 0.926439 0.139041
C19   C     C_1   0.499999 0.774119 0.500002 -0.218213
C20   C     C_1   0.500000 0.225905 0.500003 -0.218485
C21   C     C_1   0.499999 0.858680 0.500003 0.004774
C22   C     C_1   0.499999 0.141348 0.500004 0.008109
C23   C     C_1   0.499999 0.957737 0.500004 0.021843
C24   C     C_1   0.499999 0.042294 0.500005 0.022997
N1    N     N_1   0.738130 0.500000 0.500020 -0.059250
N2    N     N_1   0.261870 0.500000 0.499980 -0.059257
C25   C     C_1   0.830588 0.499998 0.500017 0.094123
C26   C     C_1   0.169412 0.499998 0.499983 0.094075
C27   C     C_1   0.950474 0.499997 0.500006 -0.027032
C28   C     C_1   0.049526 0.499997 0.499994 -0.027037
C29   C     C_3   0.565235 0.620401 0.781008 -0.872860
H5    H     H_    0.589826 0.654108 0.835939 0.250739
H6    H     H_    0.632715 0.609431 0.737210 0.256016
H7    H     H_    0.512727 0.668906 0.754222 0.225678
C30   C     C_3   0.433628 0.619883 0.219178 -0.872427
H8    H     H_    0.408739 0.653462 0.164298 0.250622
H9    H     H_    0.366264 0.608495 0.263012 0.256154
H10   H     H_    0.485835 0.668700 0.245961 0.225612
N3    N     N_R   0.639862 0.365586 0.969907 0.201018
O9    O     O_R   0.718740 0.406953 0.993261 -0.369913
O10   O     O_R   0.650241 0.312612 0.905801 -0.373569
N4    N     N_R   0.360550 0.364793 0.029968 0.201016
O11   O     O_R   0.281396 0.405677 0.006612 -0.369871
O12   O     O_R   0.350515 0.311748 0.094040 -0.373589
C31   C     C_3   0.372283 0.258408 0.856081 -0.802251
H11   H     H_    0.427423 0.212047 0.882136 0.249692
H12   H     H_    0.304015 0.265047 0.899639 0.279171
H13   H     H_    0.349971 0.224366 0.800509 0.224212
C32   C     C_3   0.629027 0.259074 0.143641 -0.802148
H14   H     H_    0.651667 0.225157 0.199158 0.224223
H15   H     H_    0.574158 0.212386 0.117616 0.249639
H16   H     H_    0.697189 0.266127 0.100024 0.279246

loop_
_geom_bond_atom_site_label_1
_geom_bond_atom_site_label_2
_geom_bond_distance
_ccdc_geom_bond_type
C13   C31   1.506957 S    
O7    Zn2   1.932384 S    
C32   H15   1.110509 S    
C23   C24   1.205853 T    
O7    C3    1.225427 A    
C8    C30   1.506898 S    
C8    C10   1.392892 A    
O6    C4    1.219826 A    
C18   N3    1.443489 S    
C30   H10   1.110553 S    
C17   C18   1.355324 D    
C22   C24   1.412591 S    
C11   C17   1.471182 S    
C32   H16   1.108845 S    
C31   H11   1.110494 S    
N1    C25   1.235644 T    
C6    C8    1.401755 A    
C12   C18   1.471201 S    
C29   H5    1.110817 S    
O5    C3    1.219838 A    
C25   C27   1.602186 S    
O2    C2    1.223612 A    
O3    Zn2   1.833118 S    
C26   C28   1.602187 S    
O1    C1    1.223714 A    
C9    H4    1.083906 S    
O8    C4    1.225433 A    
N2    C26   1.235643 T    
C9    C11   1.407472 A    
C14   C16   1.395373 A    
C14   C32   1.507005 S    
C20   C22   1.205858 T    
N3    O10   1.301653 A    
C27   C28   1.323737 T    
C6    C16   1.403588 A    
O2    Zn2   1.833120 S    
C7    C29   1.506820 S    
C12   C14   1.405640 A    
C31   H12   1.108833 S    
O1    Zn1   1.833119 S    
C10   C12   1.407507 A    
C32   H14   1.110826 S    
C31   H13   1.110824 S    
C4    C6    1.448475 S    
O5    Zn1   1.959497 S    
C13   C15   1.395372 A    
N4    O11   1.301535 A    
C21   C23   1.412635 S    
C16   H1    1.084800 S    
O4    C2    1.223613 A    
C30   H8    1.110819 S    
C29   H6    1.110199 S    
C15   H2    1.084783 S    
C5    C7    1.401684 A    
C30   H9    1.110248 S    
C17   N4    1.443481 S    
C7    C9    1.392872 A    
Zn1   N2    1.818110 S    
O6    Zn2   1.959497 S    
C5    C15   1.403517 A    
C29   H7    1.110512 S    
C19   C21   1.205915 T    
Zn2   N1    1.818110 S    
N3    O9    1.301506 A    
C3    C5    1.448364 S    
C11   C13   1.405618 A    
C10   H3    1.083918 S    
C2    C20   1.435090 S    
O4    Zn1   1.833120 S    
N4    O12   1.301682 A    
O3    C1    1.223713 A    
O8    Zn1   1.932384 S    
C1    C19   1.435243 S    
