data_mof_unit_28995.cif
_audit_creation_date              2012-12-10T18:55:58-0500
_audit_creation_method            fapswitch 2.2
_symmetry_space_group_name_H-M    P1
_symmetry_Int_Tables_number       1
_space_group_crystal_system       triclinic
_cell_length_a                    10.693129
_cell_length_b                    9.94315
_cell_length_c                    15.038064
_cell_angle_alpha                 90.840833
_cell_angle_beta                  93.452036
_cell_angle_gamma                 89.928575
_cell_volume                      1595.82480107

loop_
_atom_site_label
_atom_site_type_symbol
_atom_type_description
_atom_site_fract_x
_atom_site_fract_y
_atom_site_fract_z
_atom_type_partial_charge
C1    C     C_R   0.260222 0.500062 0.499842 0.850858
C2    C     C_R   0.933595 0.616031 0.474794 -0.123269
C3    C     C_R   0.938325 0.383838 0.525228 -0.178883
C4    C     C_R   0.061720 0.616216 0.474893 -0.173442
C5    C     C_R   0.539298 0.604642 0.093114 0.418666
C6    C     C_R   0.486502 0.387897 0.909004 0.415987
C7    C     C_R   0.420285 0.622555 0.901918 0.438359
C8    C     C_R   0.387634 0.421027 0.093580 0.448431
C9    C     C_R   0.550666 0.603637 0.186366 0.325954
C10   C     C_R   0.488098 0.382800 0.816759 0.320387
C11   C     C_R   0.444894 0.624599 0.811676 0.320894
C12   C     C_R   0.739786 0.499945 0.500185 0.858302
C13   C     C_R   0.419116 0.402347 0.183626 0.304038
C14   C     C_R   0.492982 0.499340 0.231207 -0.407224
C15   C     C_R   0.477621 0.503280 0.768149 -0.427704
C16   C     C_R   0.455075 0.515100 0.047590 -0.137772
C17   C     C_R   0.450723 0.507677 0.951108 -0.142377
C18   C     C_R   0.872378 0.499888 0.500045 -0.036557
C19   C     C_R   0.127655 0.500155 0.500059 -0.030807
C20   C     C_2   0.662804 0.146249 0.624912 0.521731
C21   C     C_2   0.336308 0.853022 0.375740 0.422882
C22   C     C_2   0.303822 0.144265 0.407155 0.540942
C23   C     C_R   0.500640 0.499210 0.327850 1.028652
C24   C     C_2   0.692055 0.854377 0.597335 0.503772
C25   C     C_3   0.724409 0.642584 0.030871 -0.323223
C26   C     C_3   0.639871 0.261889 0.978219 -0.284870
C27   C     C_3   0.246606 0.745986 0.925790 -0.264588
C28   C     C_3   0.180702 0.373348 0.068416 -0.261575
C29   C     C_3   0.587615 0.826304 0.222913 -0.154476
C30   C     C_3   0.390544 0.194532 0.761945 -0.147416
C31   C     C_3   0.527211 0.831883 0.790331 -0.148796
C32   C     C_3   0.455518 0.181505 0.206318 -0.219841
C33   C     C_R   0.495351 0.500996 0.672306 0.989694
C34   C     C_R   0.584172 0.072671 0.554987 -0.012722
C35   C     C_R   0.415615 0.927091 0.445224 0.025593
C36   C     C_R   0.411241 0.071172 0.449653 -0.025055
C37   C     C_R   0.587733 0.928458 0.551327 0.007417
C38   C     C_R   0.066452 0.384057 0.525386 -0.147616
H1    H     H_    0.117301 0.294325 0.545989 0.183047
H2    H     H_    0.715576 0.560981 0.979681 0.136487
H3    H     H_    0.774555 0.605729 0.092866 0.180679
H4    H     H_    0.695536 0.269719 0.918240 0.187450
H5    H     H_    0.659533 0.161858 0.007629 0.191440
H6    H     H_    0.670519 0.338907 0.029154 0.123246
H7    H     H_    0.210749 0.831708 0.964865 0.196122
H8    H     H_    0.197429 0.653721 0.945996 0.132949
H9    H     H_    0.223553 0.766220 0.854108 0.195725
H10   H     H_    0.163331 0.351021 0.138839 0.203801
H11   H     H_    0.112889 0.313554 0.025455 0.179483
H12   H     H_    0.882759 0.705816 0.454278 0.195510
H13   H     H_    0.162047 0.481482 0.054754 0.124522
H14   H     H_    0.484287 0.834564 0.209317 0.167347
H15   H     H_    0.636560 0.875054 0.168932 0.191348
H16   H     H_    0.611776 0.883644 0.285431 0.156462
H17   H     H_    0.401823 0.106193 0.717377 0.166839
H18   H     H_    0.318036 0.260246 0.728455 0.128960
H19   H     H_    0.357669 0.157788 0.826001 0.190404
H20   H     H_    0.528216 0.912513 0.740550 0.181372
H21   H     H_    0.620545 0.781607 0.791900 0.124466
H22   H     H_    0.512653 0.880863 0.855702 0.222650
H23   H     H_    0.891396 0.293796 0.545446 0.163678
H24   H     H_    0.426316 0.092712 0.243217 0.193704
H25   H     H_    0.554584 0.203563 0.228970 0.138308
H26   H     H_    0.448976 0.153732 0.134260 0.219253
H27   H     H_    0.108666 0.706239 0.454643 0.170187
H28   H     H_    0.686325 0.249921 0.618825 0.118152
H29   H     H_    0.316602 0.748313 0.380632 0.126701
H30   H     H_    0.317590 0.237431 0.373827 0.154929
H31   H     H_    0.674907 0.764268 0.633652 0.090592
H32   H     H_    0.782729 0.722885 0.004046 0.191809
N1    N     N_R   0.500000 0.857200 0.500000 -0.183215
N2    N     N_R   0.500000 0.142800 0.500000 -0.194294
O1    O     O_R   0.316770 0.614620 0.499990 -0.650582
O2    O     O_2   0.294855 0.907821 0.308108 -0.603598
O3    O     O_2   0.197010 0.102837 0.412035 -0.563307
O4    O     O_2   0.800091 0.892295 0.593071 -0.574881
O5    O     O_3   0.606014 0.697106 0.046920 -0.562798
O6    O     O_3   0.510089 0.271742 0.956900 -0.547334
O7    O     O_3   0.377099 0.736522 0.944283 -0.560646
O8    O     O_3   0.302991 0.335883 0.047855 -0.547543
O9    O     O_3   0.630327 0.692599 0.233873 -0.583078
O10   O     O_3   0.507375 0.260118 0.775424 -0.551937
O11   O     O_3   0.428243 0.742815 0.764899 -0.586774
O12   O     O_R   0.683230 0.385380 0.500010 -0.663624
O13   O     O_3   0.375409 0.290188 0.224789 -0.598881
O14   O     O_R   0.683230 0.614620 0.500010 -0.638119
O15   O     O_R   0.316770 0.385380 0.499990 -0.659833
O16   O     O_R   0.499990 0.614660 0.369060 -0.619354
O17   O     O_R   0.500010 0.385340 0.630940 -0.609238
O18   O     O_R   0.500010 0.614660 0.630940 -0.596362
O19   O     O_R   0.499990 0.385340 0.369060 -0.617783
O20   O     O_2   0.698615 0.092415 0.694336 -0.581103
Zn1   Zn    Zn3+2 0.500000 0.653120 0.500000 0.947522
Zn2   Zn    Zn3+2 0.500000 0.346880 0.500000 0.924795

loop_
_geom_bond_atom_site_label_1
_geom_bond_atom_site_label_2
_ccdc_geom_bond_type
C1    O15   A    
O15   Zn2   S    
C8    C13   A    
C2    C18   A    
C34   C37   A    
C35   C36   A    
O1    Zn1   S    
C26   H6    S    
C7    C11   A    
C20   O20   D    
C26   O6    S    
C25   O5    S    
C31   H20   S    
C20   H28   S    
C19   C38   A    
C27   O7    S    
C10   C15   A    
C25   H2    S    
C4    H27   S    
C28   H13   S    
C6    O6    S    
C29   H16   S    
C30   H19   S    
C31   O11   S    
C12   O12   A    
C3    C18   A    
C31   H21   S    
O17   Zn2   S    
C5    C16   A    
C2    H12   S    
C4    C19   A    
C11   C15   A    
C3    C38   A    
C16   C17   S    
C7    C17   A    
C26   H5    S    
N2    Zn2   S    
C27   H7    S    
C35   N1    A    
C8    C16   A    
C13   C14   A    
C21   H29   S    
C22   O3    D    
C24   H31   S    
C3    H23   S    
C1    C19   S    
C32   H26   S    
C25   H3    S    
C24   O4    D    
C11   O11   S    
C30   H18   S    
C21   O2    D    
C10   O10   S    
C14   C23   S    
C30   O10   S    
C2    C4    A    
C9    C14   A    
C5    C9    A    
O14   Zn1   S    
C33   O17   A    
C28   H11   S    
C12   C18   S    
C24   C37   S    
O12   Zn2   S    
C22   H30   S    
N1    Zn1   S    
C27   H8    S    
C29   O9    S    
C23   O16   A    
C37   N1    A    
C23   O19   A    
C5    O5    S    
C34   N2    A    
C26   H4    S    
O18   Zn1   S    
C7    O7    S    
C27   H9    S    
C6    C17   A    
O16   Zn1   S    
C28   H10   S    
C32   H25   S    
C6    C10   A    
C21   C35   S    
C22   C36   S    
C30   H17   S    
C12   O14   A    
C1    O1    A    
C20   C34   S    
C33   O18   A    
O19   Zn2   S    
C38   H1    S    
C29   H15   S    
C32   O13   S    
C28   O8    S    
C32   H24   S    
C13   O13   S    
C8    O8    S    
C25   H32   S    
C31   H22   S    
C15   C33   S    
C36   N2    A    
C9    O9    S    
C29   H14   S    
