data_mof_unit_31965.cif
_audit_creation_date              2012-12-11T15:37:34-0500
_audit_creation_method            fapswitch 2.2
_symmetry_space_group_name_H-M    P1
_symmetry_Int_Tables_number       1
_space_group_crystal_system       triclinic
_cell_length_a                    17.343241
_cell_length_b                    24.365059
_cell_length_c                    14.73112
_cell_angle_alpha                 90.337638
_cell_angle_beta                  125.761508
_cell_angle_gamma                 90.064953
_cell_volume                      5051.08118539

loop_
_atom_site_label
_atom_site_type_symbol
_atom_type_description
_atom_site_fract_x
_atom_site_fract_y
_atom_site_fract_z
_atom_type_partial_charge
C1    C     C_R   0.853444 0.652618 0.908056 -0.128471
C2    C     C_3   0.592884 0.500836 0.542103 0.184489
C3    C     C_3   0.068663 0.019672 0.416827 -0.147225
C4    C     C_3   0.034386 0.363448 0.583543 -0.997249
C5    C     C_3   0.085527 0.649145 0.497239 -0.983672
C6    C     C_3   0.274162 0.424056 0.547011 -0.963828
C7    C     C_3   0.243129 0.579848 0.845831 -0.919080
C8    C     C_3   0.578706 0.855528 0.616579 -1.012096
C9    C     C_3   0.512875 0.132743 0.452147 -0.990943
C10   C     C_3   0.774779 0.934108 0.545148 -0.973580
C11   C     C_3   0.737598 0.090450 0.838320 -0.920968
C12   C     C_3   0.925623 0.002146 0.361422 0.187120
C13   C     C_3   0.101232 0.999266 0.532110 0.186716
C14   C     C_R   0.658738 0.313127 0.901169 -0.170144
C15   C     C_R   0.212490 0.767134 0.102235 -0.171232
C16   C     C_R   0.211964 0.233628 0.101535 -0.171307
C17   C     C_R   0.786590 0.762489 0.900040 -0.154861
C18   C     C_R   0.158491 0.813130 0.900511 -0.167517
C19   C     C_R   0.713211 0.266863 0.102863 -0.172169
C20   C     C_R   0.825269 0.799623 0.101680 -0.170131
C21   C     C_R   0.149367 0.347716 0.092227 -0.140493
C22   C     C_R   0.158837 0.186346 0.900111 -0.170358
C23   C     C_R   0.110817 0.767301 0.899672 -0.172626
C24   C     C_R   0.761619 0.312202 0.103619 -0.171823
C25   C     C_R   0.887683 0.764249 0.102644 -0.171726
C26   C     C_R   0.110793 0.231998 0.898943 -0.173134
C27   C     C_R   0.610865 0.267411 0.900284 -0.174515
C28   C     C_R   0.260670 0.812621 0.102963 -0.170483
C29   C     C_R   0.260784 0.188486 0.102589 -0.174606
C30   C     C_R   0.722193 0.795656 0.899072 -0.193957
C31   C     C_R   0.143935 0.740962 0.000414 0.140486
C32   C     C_R   0.150208 0.652439 0.092839 -0.142749
C33   C     C_R   0.741146 0.331610 0.002544 0.144221
C34   C     C_R   0.861583 0.740427 0.001869 0.138798
C35   C     C_R   0.143239 0.258923 0.999577 0.142550
C36   C     C_R   0.644143 0.240947 0.000953 0.141654
C37   C     C_R   0.240499 0.831931 0.001953 0.143221
C38   C     C_R   0.240847 0.168438 0.001755 0.144357
C39   C     C_R   0.737593 0.810745 0.999932 0.148106
C40   C     C_R   0.120087 0.449610 0.631583 0.073361
C41   C     C_R   0.133278 0.553359 0.558516 0.084262
C42   C     C_R   0.145493 0.454648 0.556991 0.123205
C43   C     C_R   0.809582 0.373950 0.907429 -0.124593
C44   C     C_R   0.132232 0.548560 0.653257 0.107629
C45   C     C_R   0.628174 0.952483 0.640508 0.082029
C46   C     C_R   0.616932 0.055712 0.549576 0.075055
C47   C     C_R   0.645311 0.957968 0.558492 0.120935
C48   C     C_R   0.628350 0.051594 0.651753 0.115441
C49   C     C_R   0.125014 0.504663 0.499905 -0.061778
C50   C     C_R   0.102091 0.498153 0.670261 -0.039507
C51   C     C_R   0.615022 0.006641 0.495670 -0.039059
C52   C     C_R   0.606712 0.000571 0.676682 -0.059616
C53   C     C_R   0.904690 0.375766 0.095013 -0.126279
C54   C     C_R   0.309597 0.125579 0.907274 -0.125016
C55   C     C_R   0.055859 0.651146 0.906765 -0.122008
C56   C     C_R   0.054674 0.348246 0.906401 -0.143217
C57   C     C_R   0.947518 0.651605 0.094529 -0.119180
C58   C     C_R   0.404387 0.875862 0.094776 -0.124830
C59   C     C_R   0.555556 0.151323 0.907021 -0.126051
C60   C     C_R   0.580299 0.860020 0.906075 -0.148003
C61   C     C_R   0.404361 0.124337 0.094880 -0.133607
C62   C     C_R   0.054038 0.547318 0.306927 -0.137665
C63   C     C_R   0.018190 0.453134 0.749620 -0.147188
C64   C     C_R   0.015804 0.545267 0.745261 -0.127842
C65   C     C_R   0.673947 0.858789 0.092678 -0.133737
C66   C     C_R   0.055939 0.456086 0.309958 -0.136516
C67   C     C_R   0.554979 0.047614 0.306571 -0.146890
C68   C     C_R   0.513105 0.954456 0.742281 -0.154884
C69   C     C_R   0.517312 0.046118 0.748098 -0.115459
C70   C     C_R   0.552500 0.956354 0.308989 -0.146712
C71   C     C_R   0.736629 0.454738 0.701640 -0.152827
C72   C     C_R   0.268224 0.545636 0.245914 -0.140609
C73   C     C_R   0.268032 0.454409 0.246636 -0.124442
C74   C     C_R   0.736179 0.546106 0.705812 -0.130679
C75   C     C_R   0.241571 0.954079 0.696979 -0.137969
C76   C     C_R   0.650172 0.152419 0.093000 -0.140507
C77   C     C_R   0.768603 0.046581 0.251606 -0.130060
C78   C     C_R   0.770265 0.955367 0.255809 -0.134720
C79   C     C_R   0.242116 0.044994 0.696326 -0.155993
C80   C     C_R   0.888385 0.684272 0.002116 0.045878
C81   C     C_R   0.117618 0.316160 0.998793 0.050714
C82   C     C_R   0.118882 0.683583 0.999598 0.045079
C83   C     C_R   0.813877 0.361612 0.002046 0.040523
C84   C     C_R   0.313683 0.138259 0.001774 0.041682
C85   C     C_R   0.664452 0.839574 0.999011 0.046694
C86   C     C_R   0.618777 0.183642 0.999910 0.045904
C87   C     C_R   0.309098 0.874594 0.907195 -0.126136
C88   C     C_R   0.313336 0.862052 0.001704 0.039798
C89   C     C_R   0.078311 0.503022 0.376830 0.105037
C90   C     C_R   0.048481 0.498506 0.720821 0.111329
C91   C     C_R   0.572982 0.003680 0.374418 0.116250
C92   C     C_R   0.549418 0.000037 0.722229 0.102613
C93   C     C_R   0.683914 0.500544 0.648208 0.037206
C94   C     C_R   0.323526 0.499989 0.269914 0.027823
C95   C     C_R   0.193506 0.999256 0.636002 0.039594
C96   C     C_R   0.824817 0.001427 0.280101 0.030274
C97   C     C_3   0.515960 0.459603 0.516120 -0.155145
C98   C     C_3   0.423157 0.500121 0.358767 0.185269
C99   C     C_3   0.499804 0.541518 0.384294 -0.160664
C100  C     C_3   0.491753 0.451846 0.398030 -0.168146
C101  C     C_3   0.524254 0.549029 0.502674 -0.169154
C102  C     C_3   0.036898 0.948623 0.481865 -0.168609
C103  C     C_3   0.989888 0.052871 0.411264 -0.167877
C104  C     C_3   0.001627 0.968826 0.364286 -0.151269
C105  C     C_3   0.024496 0.032478 0.527971 -0.145741
C106  C     C_3   0.446601 0.507718 0.475983 -0.129119
C107  C     C_3   0.570933 0.493182 0.425930 -0.141195
C108  C     C_3   0.959761 0.981919 0.477509 -0.150757
H1    H     H_    0.814431 0.665620 0.822106 0.081381
H2    H     H_    0.008344 0.664709 0.821287 0.079572
H3    H     H_    0.006740 0.334029 0.820926 0.088673
H4    H     H_    0.994356 0.664757 0.180871 0.080527
H5    H     H_    0.433043 0.870803 0.181776 0.090638
H6    H     H_    0.507834 0.165066 0.821701 0.081625
H7    H     H_    0.543904 0.845954 0.821000 0.085832
H8    H     H_    0.432595 0.129481 0.181896 0.103706
H9    H     H_    0.070409 0.589680 0.329369 0.114611
H10   H     H_    0.030004 0.410551 0.744670 0.152863
H11   H     H_    0.023081 0.587614 0.730716 0.123073
H12   H     H_    0.187917 0.334282 0.177869 0.085204
H13   H     H_    0.072666 0.414180 0.337667 0.125474
H14   H     H_    0.579372 0.089226 0.331259 0.135605
H15   H     H_    0.511519 0.913307 0.717077 0.123114
H16   H     H_    0.525152 0.088690 0.736246 0.125717
H17   H     H_    0.568184 0.914571 0.338064 0.123342
H18   H     H_    0.720995 0.413121 0.669520 0.093165
H19   H     H_    0.291372 0.587991 0.263188 0.102828
H20   H     H_    0.290689 0.412148 0.264382 0.099111
H21   H     H_    0.720588 0.588445 0.679574 0.090020
H22   H     H_    0.227941 0.911886 0.668314 0.086781
H23   H     H_    0.188909 0.666368 0.178617 0.083016
H24   H     H_    0.790141 0.089186 0.267323 0.096168
H25   H     H_    0.796138 0.914275 0.282353 0.095608
H26   H     H_    0.228252 0.086904 0.667192 0.094012
H27   H     H_    0.393739 0.513712 0.494746 0.115924
H28   H     H_    0.625285 0.487275 0.409603 0.113967
H29   H     H_    0.913707 0.966620 0.501431 0.126162
H30   H     H_    0.116803 0.034835 0.395820 0.114364
H31   H     H_    0.524492 0.426404 0.572619 0.111164
H32   H     H_    0.490288 0.574642 0.327204 0.114353
H33   H     H_    0.476048 0.412365 0.352201 0.111219
H34   H     H_    0.751403 0.367141 0.821201 0.089020
H35   H     H_    0.538946 0.588636 0.547821 0.110018
H36   H     H_    0.057288 0.905863 0.512225 0.105661
H37   H     H_    0.968660 0.095462 0.380119 0.108218
H38   H     H_    0.988776 0.943129 0.294144 0.116738
H39   H     H_    0.035557 0.058308 0.597109 0.111485
H40   H     H_    0.636393 0.329890 0.821560 0.105515
H41   H     H_    0.236094 0.750026 0.181997 0.106391
H42   H     H_    0.235238 0.251177 0.181288 0.107076
H43   H     H_    0.768940 0.748406 0.820289 0.104890
H44   H     H_    0.136389 0.829714 0.820869 0.106450
H45   H     H_    0.251520 0.131521 0.820853 0.089222
H46   H     H_    0.737046 0.249642 0.182618 0.106761
H47   H     H_    0.843427 0.814627 0.181153 0.105700
H48   H     H_    0.136872 0.169145 0.820538 0.104791
H49   H     H_    0.054353 0.750101 0.819661 0.106399
H50   H     H_    0.820834 0.327925 0.183545 0.109904
H51   H     H_    0.949421 0.750912 0.182531 0.106924
H52   H     H_    0.054488 0.248609 0.818888 0.106534
H53   H     H_    0.554065 0.250398 0.820254 0.106965
H54   H     H_    0.319521 0.828579 0.182889 0.108511
H55   H     H_    0.319779 0.173335 0.182601 0.113510
H56   H     H_    0.722415 0.845132 0.177637 0.084599
H57   H     H_    0.657810 0.805765 0.819450 0.131657
H58   H     H_    0.177805 0.376043 0.713712 0.169486
H59   H     H_    0.031242 0.325480 0.622626 0.249785
H60   H     H_    0.041264 0.351727 0.515672 0.251091
H61   H     H_    0.966802 0.386124 0.546726 0.265188
H62   H     H_    0.194606 0.605577 0.502160 0.162562
H63   H     H_    0.055387 0.661661 0.410302 0.243850
H64   H     H_    0.122074 0.685505 0.552082 0.249178
H65   H     H_    0.026117 0.636853 0.501819 0.259136
H66   H     H_    0.193994 0.373446 0.574289 0.177030
H67   H     H_    0.688877 0.166294 0.178806 0.083795
H68   H     H_    0.299857 0.387303 0.527329 0.245893
H69   H     H_    0.330402 0.437919 0.633715 0.255593
H70   H     H_    0.260768 0.456727 0.487260 0.261661
H71   H     H_    0.172436 0.630365 0.708529 0.203598
H72   H     H_    0.259528 0.615864 0.901083 0.250418
H73   H     H_    0.306927 0.569922 0.848482 0.250577
H74   H     H_    0.225877 0.544743 0.878807 0.263875
H75   H     H_    0.661396 0.899514 0.771851 0.176423
H76   H     H_    0.530299 0.841542 0.637869 0.242575
H77   H     H_    0.623818 0.820287 0.627498 0.251740
H78   H     H_    0.250507 0.868623 0.820789 0.090447
H79   H     H_    0.534584 0.867621 0.527074 0.263360
H80   H     H_    0.661444 0.134744 0.548866 0.161374
H81   H     H_    0.507728 0.170954 0.408256 0.247187
H82   H     H_    0.502281 0.143069 0.517652 0.251350
H83   H     H_    0.455551 0.104252 0.390078 0.266693
H84   H     H_    0.706910 0.880219 0.583935 0.207969
H85   H     H_    0.804741 0.898852 0.527414 0.244022
H86   H     H_    0.830234 0.950632 0.629872 0.258316
H87   H     H_    0.755189 0.966057 0.481798 0.264950
H88   H     H_    0.654675 0.135915 0.693578 0.173274
H89   H     H_    0.933401 0.370999 0.182112 0.091257
H90   H     H_    0.749139 0.127708 0.888757 0.252208
H91   H     H_    0.801598 0.083586 0.839675 0.249857
H92   H     H_    0.727325 0.055064 0.877462 0.264214
N1    N     N_R   0.892620 0.603790 0.941800 -0.038256
N2    N     N_R   0.047790 0.602400 0.942090 -0.035216
N3    N     N_R   0.047790 0.397600 0.942090 -0.038332
N4    N     N_R   0.952210 0.602400 0.057910 -0.038054
N5    N     N_R   0.452210 0.897600 0.057910 -0.040035
N6    N     N_R   0.547790 0.102400 0.942090 -0.037664
N7    N     N_R   0.547790 0.897600 0.942090 -0.035454
N8    N     N_R   0.452210 0.102400 0.057910 -0.039296
N9    N     N_R   0.026300 0.529110 0.206760 -0.043670
N10   N     N_R   0.973700 0.470890 0.793240 -0.047534
N11   N     N_R   0.973700 0.529110 0.793240 -0.046913
N12   N     N_R   0.107380 0.396210 0.058200 -0.035948
N13   N     N_R   0.026300 0.470890 0.206760 -0.045109
N14   N     N_R   0.526300 0.029110 0.206760 -0.045891
N15   N     N_R   0.473700 0.970890 0.793240 -0.041818
N16   N     N_R   0.473700 0.029110 0.793240 -0.047334
N17   N     N_R   0.526300 0.970890 0.206760 -0.042831
N18   N     N_R   0.818530 0.472270 0.792960 -0.035044
N19   N     N_R   0.181470 0.527730 0.207040 -0.042038
N20   N     N_R   0.181470 0.472270 0.207040 -0.039517
N21   N     N_R   0.818530 0.527730 0.792960 -0.036623
N22   N     N_R   0.318530 0.972270 0.792960 -0.035484
N23   N     N_R   0.107380 0.603790 0.058200 -0.035370
N24   N     N_R   0.681470 0.027730 0.207040 -0.040912
N25   N     N_R   0.681470 0.972270 0.207040 -0.036810
N26   N     N_R   0.318530 0.027730 0.792960 -0.034764
N27   N     N_2   0.114309 0.396881 0.668000 -0.113746
N28   N     N_2   0.153678 0.605116 0.532033 -0.108170
N29   N     N_2   0.188204 0.410303 0.537162 -0.116323
N30   N     N_2   0.163974 0.592639 0.732464 -0.116230
N31   N     N_2   0.638990 0.900359 0.689891 -0.107891
N32   N     N_2   0.605089 0.108064 0.501150 -0.116870
N33   N     N_2   0.692747 0.915990 0.540190 -0.111249
N34   N     N_R   0.892620 0.396210 0.941800 -0.039280
N35   N     N_2   0.655041 0.098085 0.724418 -0.120593
N36   N     N_R   0.392620 0.103790 0.941800 -0.039468
N37   N     N_R   0.607380 0.896210 0.058200 -0.035772
N38   N     N_R   0.607380 0.103790 0.058200 -0.037237
N39   N     N_R   0.392620 0.896210 0.941800 -0.041005
N40   N     N_R   0.952210 0.397600 0.057910 -0.038930
Ni1   Ni    Ni4+2 0.934150 0.565840 0.869060 0.207118
Ni2   Ni    Ni4+2 0.065850 0.434160 0.130940 0.210846
Ni3   Ni    Ni4+2 0.065850 0.565840 0.130940 0.202491
Ni4   Ni    Ni4+2 0.934150 0.434160 0.869060 0.209746
Ni5   Ni    Ni4+2 0.434150 0.065840 0.869060 0.208684
Ni6   Ni    Ni4+2 0.565850 0.934160 0.130940 0.215241
Ni7   Ni    Ni4+2 0.565850 0.065840 0.130940 0.206189
Ni8   Ni    Ni4+2 0.434150 0.934160 0.869060 0.213567

loop_
_geom_bond_atom_site_label_1
_geom_bond_atom_site_label_2
_ccdc_geom_bond_type
C3    C104  S    
C87   C88   A    
C20   H47   S    
H62   N28   S    
C43   C83   A    
N11   Ni1   S    
C37   C88   S    
C70   C91   A    
C57   C80   A    
C76   H67   S    
C54   N36   A    
C1    N1    A    
N7    Ni8   S    
N9    Ni3   S    
C54   H45   S    
C54   C84   A    
C35   C81   S    
C28   H54   S    
H84   N33   S    
C56   N3    A    
C22   H48   S    
C74   N21   A    
C59   N6    A    
C71   N18   A    
N18   N21   A    
C9    N32   S    
N13   Ni2   S    
C18   C37   A    
C12   C104  S    
C21   H12   S    
C19   C36   A    
C10   H86   S    
C16   C35   A    
C108  H29   S    
C8    N31   S    
C24   H50   S    
C57   H4    S    
C20   C25   A    
N22   N26   A    
C3    C103  S    
C105  H39   S    
C62   C89   A    
C14   H40   S    
C2    C107  S    
C101  C106  S    
C67   N14   A    
N1    Ni1   S    
C6    N29   S    
C65   H56   S    
C76   N38   A    
C74   H21   S    
C4    N27   S    
N5    N39   A    
C68   N15   A    
C29   H55   S    
C11   H92   S    
C62   H9    S    
N12   Ni2   S    
N24   Ni7   S    
C34   C80   S    
N22   Ni8   S    
C50   C90   S    
C2    C97   S    
C78   C96   A    
H58   N27   S    
C100  C107  S    
C29   C38   A    
C25   H51   S    
C58   H5    S    
C64   N11   A    
C26   H52   S    
N14   Ni7   S    
C64   C90   A    
C14   C27   A    
C66   C89   A    
C69   C92   A    
N8    N36   A    
C79   N26   A    
C21   N12   A    
C3    C13   S    
C75   H22   S    
C25   C34   A    
C67   C91   A    
C51   C91   S    
C8    H76   S    
C78   N25   A    
C40   C42   A    
C42   C49   A    
C41   N28   S    
N15   Ni8   S    
N24   N25   A    
C5    H65   S    
C17   C30   A    
C74   C93   A    
C65   N37   A    
C1    H1    S    
C17   H43   S    
C69   N16   A    
C102  H36   S    
C73   C94   A    
C14   C33   A    
C18   H44   S    
N2    N23   A    
C68   H15   S    
C41   C49   A    
C32   N23   A    
C78   H25   S    
C45   C52   A    
C87   H78   S    
C46   C48   A    
C45   C47   A    
C8    H79   S    
C11   N35   S    
N37   Ni6   S    
C105  C108  S    
C44   N30   S    
C70   N17   A    
C87   N39   A    
C4    H61   S    
C7    H73   S    
C72   H19   S    
C75   C95   A    
C18   C23   A    
C104  H38   S    
C56   C81   A    
N6    Ni5   S    
N17   Ni6   S    
C75   N22   A    
C12   C103  S    
N6    N38   A    
N5    Ni6   S    
C2    C101  S    
C10   H85   S    
N23   Ni3   S    
N19   N20   A    
C12   C108  S    
C20   C39   A    
N7    N37   A    
N21   Ni1   S    
N3    Ni4   S    
C72   N19   A    
C58   N5    A    
C36   C86   S    
N16   Ni5   S    
N2    Ni1   S    
N20   Ni2   S    
C46   C51   A    
C43   N34   A    
N9    N13   A    
C4    H60   S    
C73   N20   A    
N39   Ni8   S    
C55   C82   A    
C77   H24   S    
C23   C31   A    
N38   Ni7   S    
C102  C104  S    
N15   N16   A    
C79   C95   A    
C107  H28   S    
C62   N9    A    
C77   N24   A    
N1    N4    A    
C55   N2    A    
C61   H8    S    
N40   Ni2   S    
C5    H63   S    
C66   H13   S    
C103  C105  S    
C3    H30   S    
N34   N40   A    
H71   N30   S    
C102  C108  S    
C33   C83   S    
C97   C106  S    
C70   H17   S    
C13   C105  S    
C106  H27   S    
C99   C101  S    
C21   C81   A    
N10   N11   A    
C98   C100  S    
C55   H2    S    
C8    H77   S    
C41   C44   A    
N3    N12   A    
C52   C92   S    
C17   C34   A    
C39   C85   S    
C63   N10   A    
C64   H11   S    
C9    H82   S    
C67   H14   S    
H75   N31   S    
C15   H41   S    
N4    Ni3   S    
C32   C82   A    
C103  H37   S    
N26   Ni5   S    
C44   C50   A    
N25   Ni6   S    
C63   H10   S    
C79   H26   S    
C10   N33   S    
C97   C100  S    
C56   H3    S    
C7    H74   S    
C38   C84   S    
C46   N32   S    
N36   Ni5   S    
C2    C93   S    
C12   C96   S    
C30   H57   S    
C49   C89   S    
C71   H18   S    
C43   H34   S    
C61   C84   A    
C58   C88   A    
C47   C51   A    
C60   C85   A    
C4    H59   S    
C60   N7    A    
C65   C85   A    
C71   C93   A    
H88   N35   S    
C27   C36   A    
N8    Ni7   S    
C73   H20   S    
C99   C107  S    
C77   C96   A    
C24   C33   A    
C98   C106  S    
C5    N28   S    
C53   C83   A    
C9    H81   S    
C53   H89   S    
C66   N13   A    
C57   N4    A    
C100  H33   S    
C16   C29   A    
C59   C86   A    
C72   C94   A    
C6    H69   S    
C53   N40   A    
C31   C82   S    
C10   H87   S    
C27   H53   S    
C101  H35   S    
C15   C28   A    
C6    H68   S    
C28   C37   A    
C40   N27   S    
C59   H6    S    
C40   C50   A    
C23   H49   S    
C63   C90   A    
C68   C92   A    
C5    H64   S    
N19   Ni3   S    
C7    H72   S    
C19   C24   A    
N14   N17   A    
C99   H32   S    
H66   N29   S    
C11   H91   S    
C11   H90   S    
C48   N35   S    
C69   H16   S    
C61   N8    A    
N10   Ni4   S    
C15   C31   A    
C42   N29   S    
C26   C35   A    
C48   C52   A    
C13   C95   S    
C98   C99   S    
C22   C26   A    
C76   C86   A    
N34   Ni4   S    
N18   Ni4   S    
C19   H46   S    
C94   C98   S    
C1    C80   A    
C60   H7    S    
C16   H42   S    
C45   N31   S    
C13   C102  S    
C9    H83   S    
H80   N32   S    
C97   H31   S    
C32   H23   S    
C6    H70   S    
C30   C39   A    
C47   N33   S    
C7    N30   S    
C22   C38   A    
