data_mof_unit_28378.cif
_audit_creation_date              2012-12-11T16:26:35-0500
_audit_creation_method            fapswitch 2.2
_symmetry_space_group_name_H-M    P1
_symmetry_Int_Tables_number       1
_space_group_crystal_system       triclinic
_cell_length_a                    6.950688
_cell_length_b                    17.158377
_cell_length_c                    19.839217
_cell_angle_alpha                 108.68137
_cell_angle_beta                  89.388028
_cell_angle_gamma                 90.284752
_cell_volume                      2241.28636234

loop_
_atom_site_label
_atom_site_type_symbol
_atom_type_description
_atom_site_fract_x
_atom_site_fract_y
_atom_site_fract_z
_atom_type_partial_charge
O1    O     O_R   0.494330 0.415720 0.413720 -0.545543
O2    O     O_R   0.819330 0.430070 0.560210 -0.526256
O3    O     O_R   0.994320 0.584280 0.586280 -0.525400
C1    C     C_R   0.649901 0.414865 0.581477 0.924600
O4    O     O_R   0.823730 0.406300 0.412670 -0.514541
O5    O     O_R   0.998760 0.560340 0.437690 -0.505853
C2    C     C_R   0.656066 0.383232 0.385014 0.877062
O6    O     O_R   0.489890 0.439660 0.562310 -0.514968
O7    O     O_3   0.662340 0.550560 0.508380 -0.351923
V1    V     V_3+5 0.935370 0.490620 0.498450 1.779664
O8    O     O_R   0.328750 0.569930 0.439790 -0.520810
C3    C     C_R   0.161956 0.585705 0.419125 0.854847
O9    O     O_R   0.324340 0.593700 0.587330 -0.520417
C4    C     C_R   0.153453 0.621398 0.611515 0.846735
V2    V     V_3+5 0.435940 0.509380 0.501550 1.768026
O10   O     O_3   0.159100 0.449440 0.491620 -0.375763
C5    C     C_R   0.205033 0.588932 0.745419 0.485239
C6    C     C_R   0.193899 0.569115 0.808220 0.273292
C7    C     C_R   0.119280 0.625635 0.869538 0.679819
C8    C     C_R   0.064803 0.703763 0.869559 0.204026
C9    C     C_R   0.113066 0.730528 0.810951 -0.209439
C10   C     C_R   0.157529 0.669594 0.744901 -0.136651
C11   C     C_R   0.112293 0.814926 0.815698 0.007290
C12   C     C_R   0.101210 0.835952 0.752099 -0.124447
C13   C     C_R   0.087015 0.772075 0.684948 -0.134442
C14   C     C_R   0.137448 0.689247 0.680782 0.008191
C15   C     C_R   0.090023 0.919481 0.754232 0.527343
C16   C     C_R   0.051332 0.939767 0.693337 0.325323
C17   C     C_R   0.010388 0.878170 0.629837 0.398853
C18   C     C_R   0.020451 0.794886 0.625759 0.226236
C19   C     C_R   0.121464 0.597165 0.297897 0.441186
C20   C     C_R   0.160492 0.635504 0.370316 -0.216548
C21   C     C_R   0.213804 0.719225 0.394915 0.417759
C22   C     C_R   0.195361 0.768705 0.349928 -0.126842
C23   C     C_R   0.146278 0.731212 0.277686 -0.140694
C24   C     C_R   0.113872 0.644547 0.251009 -0.135561
C25   C     C_R   0.223215 0.854673 0.375254 0.705811
C26   C     C_R   0.202170 0.903524 0.331140 0.407362
C27   C     C_R   0.162218 0.867086 0.257306 -0.064000
C28   C     C_R   0.136076 0.779782 0.231231 -0.150643
C29   C     C_R   0.102976 0.740071 0.157998 -0.232364
C30   C     C_R   0.071535 0.654797 0.132603 0.698171
C31   C     C_R   0.074985 0.607981 0.178022 0.666392
C32   C     C_R   0.146973 0.912686 0.207978 0.361775
C33   C     C_R   0.114531 0.871134 0.135137 -0.291748
C34   C     C_R   0.103017 0.785673 0.110773 0.679779
C35   C     C_R   0.675024 0.212547 0.889546 0.671704
C36   C     C_R   0.625801 0.129378 0.865482 -0.268386
C37   C     C_R   0.588192 0.089643 0.792725 0.395554
C38   C     C_R   0.586532 0.135771 0.743727 -0.077264
C39   C     C_R   0.630578 0.221782 0.770219 -0.119443
C40   C     C_R   0.676246 0.259396 0.842959 -0.188200
C41   C     C_R   0.543233 0.101050 0.669742 0.386911
C42   C     C_R   0.539340 0.150526 0.625642 0.730220
C43   C     C_R   0.583106 0.234675 0.651632 -0.202925
C44   C     C_R   0.631540 0.270645 0.724006 -0.163317
C45   C     C_R   0.678681 0.355859 0.750292 -0.138690
C46   C     C_R   0.714272 0.392215 0.823739 0.404023
C47   C     C_R   0.717932 0.344047 0.868601 0.707395
C48   C     C_R   0.580610 0.283410 0.606160 0.664271
C49   C     C_R   0.638983 0.365816 0.630724 -0.319176
C50   C     C_R   0.688181 0.401860 0.702272 0.640261
C51   C     C_R   0.608852 0.424916 0.251190 0.259900
C52   C     C_R   0.566994 0.443412 0.189046 0.374713
C53   C     C_R   0.509381 0.381801 0.128238 0.418818
C54   C     C_R   0.505676 0.299546 0.126490 0.239514
C55   C     C_R   0.576326 0.276123 0.185007 -0.109161
C56   C     C_R   0.612434 0.340641 0.251040 -0.102916
C57   C     C_R   0.610274 0.191678 0.180307 0.022712
C58   C     C_R   0.650239 0.171799 0.242866 -0.036414
C59   C     C_R   0.672790 0.234803 0.309409 -0.165918
C60   C     C_R   0.650678 0.318937 0.313875 -0.031697
C61   C     C_R   0.661203 0.088300 0.240435 -0.249507
C62   C     C_R   0.696175 0.067011 0.301111 0.327447
C63   C     C_R   0.726586 0.128104 0.365529 0.734603
C64   C     C_R   0.716687 0.210805 0.370146 0.454309
H1    H     H_    0.637979 0.038052 0.191795 0.178335
O11   O     O_R   0.775200 0.060470 0.937800 -0.521106
O12   O     O_R   0.441110 0.093720 0.087350 -0.516924
O13   O     O_R   0.266330 0.939630 0.062280 -0.545593
C65   C     C_R   0.608927 0.122399 0.111054 0.730509
O14   O     O_R   0.445750 0.069950 0.939820 -0.500997
O15   O     O_R   0.271000 0.915700 0.913700 -0.529106
C66   C     C_R   0.615091 0.083737 0.917506 0.898031
O16   O     O_R   0.770530 0.084400 0.086380 -0.549102
O17   O     O_3   0.602830 0.949510 0.991680 -0.381362
V3    V     V_3+5 0.329710 0.009370 0.001550 1.733154
O18   O     O_R   0.940990 0.906170 0.912570 -0.518231
C67   C     C_R   0.109545 0.880734 0.886547 0.853703
O19   O     O_R   0.936350 0.929940 0.060100 -0.532539
C68   C     C_R   0.104564 0.916401 0.082662 0.842620
V4    V     V_3+5 0.829160 0.990450 0.998310 1.700312
O20   O     O_3   0.105910 0.050480 0.008320 -0.347730
Cl1   Cl    Cl    0.937516 0.906381 0.555693 -0.238084
Cl2   Cl    Cl    0.321514 0.757608 0.479942 -0.432972
F1    F     F_    0.264815 0.893869 0.444584 -0.490662
Cl3   Cl    Cl    0.227101 0.010299 0.375512 -0.280472
Cl4   Cl    Cl    0.171049 0.021027 0.231686 -0.614525
F2    F     F_    0.105034 0.746512 0.039911 -0.572669
F3    F     F_    0.029854 0.615696 0.063295 -0.444027
F4    F     F_    0.038027 0.526461 0.148756 -0.517850
F5    F     F_    0.721492 0.247432 0.959167 -0.584877
Cl5   Cl    Cl    0.557456 0.981529 0.767485 -0.571062
Cl6   Cl    Cl    0.490985 0.996276 0.625423 -0.294800
F6    F     F_    0.260302 0.527928 0.685996 -0.645635
F7    F     F_    0.494911 0.114850 0.555861 -0.467871
F8    F     F_    0.523615 0.250990 0.537538 -0.551682
F9    F     F_    0.746236 0.481686 0.723642 -0.637244
Cl7   Cl    Cl    0.738134 0.499384 0.864752 -0.279971
F10   F     F_    0.759816 0.381406 0.938304 -0.482872
F11   F     F_    0.765557 0.107493 0.424551 -0.479560
Cl8   Cl    Cl    0.659488 0.512657 0.325564 -0.549741
Cl9   Cl    Cl    0.574787 0.546446 0.187926 -0.442846
Cl10  Cl    Cl    0.431885 0.409453 0.054051 -0.213244
Cl11  Cl    Cl    0.376218 0.233540 0.054623 -0.498584
Cl12  Cl    Cl    0.246412 0.468614 0.807353 -0.434281
Cl13  Cl    Cl    0.700754 0.962817 0.295805 -0.510230
F12   F     F_    0.754001 0.266075 0.434712 -0.635011
F13   F     F_    0.084903 0.602085 0.927532 -0.436752
Cl14  Cl    Cl    0.875798 0.750378 0.928406 -0.454454
F14   F     F_    0.115410 0.983127 0.815228 -0.638136
Cl15  Cl    Cl    0.038762 0.044600 0.699667 -0.474833
Cl16  Cl    Cl    0.905087 0.725538 0.551864 -0.530289
Cl17  Cl    Cl    0.106513 0.487991 0.266947 -0.548007

loop_
_geom_bond_atom_site_label_1
_geom_bond_atom_site_label_2
_ccdc_geom_bond_type
O15   V3    S    
C43   C44   A    
C29   C30   A    
C46   Cl7   S    
C61   C62   A    
C7    C8    A    
C12   C15   A    
C1    O6    A    
O12   V3    S    
C15   F14   S    
C45   C50   A    
C41   C42   A    
C17   C18   A    
C16   C17   A    
C19   Cl17  S    
C22   C23   A    
O13   V3    S    
C5    F6    S    
O5    C3    A    
C59   C64   A    
C16   Cl15  S    
C50   F9    S    
C41   Cl6   S    
O14   V3    S    
C22   C25   A    
C47   F10   S    
C44   C45   A    
C6    C7    A    
C53   Cl10  S    
C51   Cl8   S    
C42   C43   A    
C32   Cl4   S    
O18   V4    S    
C29   C34   A    
C11   C67   S    
C58   C59   A    
O1    V2    S    
O9    C4    A    
O7    V1    S    
O18   C67   A    
C54   C55   A    
C7    F13   S    
C35   F5    S    
C43   C48   A    
C3    C20   S    
C49   C50   A    
O8    V2    S    
C26   Cl3   S    
C21   Cl2   S    
O16   V4    S    
C38   C39   A    
C26   C27   A    
O15   C67   A    
C38   C41   A    
C54   Cl11  S    
C42   F7    S    
C55   C56   A    
C12   C13   A    
C62   C63   A    
C6    Cl12  S    
C2    C60   S    
O12   C65   A    
O17   V3    S    
O11   V4    S    
C13   C14   A    
C33   C34   A    
C1    C49   S    
C64   F12   S    
C36   C66   S    
C25   F1    S    
C48   C49   A    
C55   C57   A    
C23   C24   A    
O2    C1    A    
C63   C64   A    
C31   F4    S    
O5    V1    S    
C25   C26   A    
C40   C47   A    
C30   F3    S    
O19   V4    S    
C35   C36   A    
C56   C60   A    
C58   C61   A    
C5    C6    A    
C4    C14   S    
C18   Cl16  S    
O3    C4    A    
C27   C32   A    
C48   F8    S    
C28   C29   A    
C53   C54   A    
O6    V2    S    
O14   C66   A    
C9    C11   A    
C30   C31   A    
O19   C68   A    
O2    V1    S    
C8    Cl14  S    
C32   C33   A    
O4    C2    A    
C13   C18   A    
C62   Cl13  S    
C51   C56   A    
C36   C37   A    
C52   Cl9   S    
O1    C2    A    
C19   C20   A    
C39   C44   A    
C37   Cl5   S    
O8    C3    A    
C35   C40   A    
C63   F11   S    
C5    C10   A    
C52   C53   A    
C34   F2    S    
O9    V2    S    
C23   C28   A    
C46   C47   A    
C39   C40   A    
O3    V1    S    
V1    O10   S    
C20   C21   A    
C45   C46   A    
C17   Cl1   S    
O13   C68   A    
V3    O20   S    
V4    O20   S    
C21   C22   A    
O7    V2    S    
C57   C58   A    
C33   C68   S    
C57   C65   S    
C11   C12   A    
C51   C52   A    
C27   C28   A    
O11   C66   A    
O4    V1    S    
C59   C60   A    
C8    C9    A    
C37   C38   A    
C10   C14   A    
C15   C16   A    
C61   H1    S    
C19   C24   A    
C24   C31   A    
O17   V4    S    
C9    C10   A    
C65   O16   A    
V2    O10   S    
