data_mof_unit_6949.cif
_audit_creation_date              2012-12-10T20:01:06-0500
_audit_creation_method            fapswitch 2.2
_symmetry_space_group_name_H-M    P1
_symmetry_Int_Tables_number       1
_space_group_crystal_system       triclinic
_cell_length_a                    15.058633
_cell_length_b                    14.159687
_cell_length_c                    17.510137
_cell_angle_alpha                 90.002531
_cell_angle_beta                  90.015693
_cell_angle_gamma                 90.000915
_cell_volume                      3733.60809677

loop_
_atom_site_label
_atom_site_type_symbol
_atom_type_description
_atom_site_fract_x
_atom_site_fract_y
_atom_site_fract_z
_atom_type_partial_charge
C1    C     C_R   0.327937 0.499992 0.499976 0.920037
C2    C     C_R   0.456599 0.894730 0.442230 -0.273737
C3    C     C_R   0.429521 0.204488 0.470356 0.019738
C4    C     C_R   0.542834 0.795455 0.556534 0.022879
C5    C     C_R   0.570479 0.204493 0.529643 0.019784
C6    C     C_R   0.457166 0.795446 0.443466 0.022868
C7    C     C_R   0.500000 0.053342 0.499999 0.136337
C8    C     C_R   0.499999 0.946599 0.499999 0.138199
C9    C     C_R   0.500010 0.499999 0.353975 0.844778
C10   C     C_R   0.499993 0.500002 0.646024 0.844778
C11   C     C_R   0.421204 0.518116 0.847120 -0.167652
C12   C     C_R   0.672063 0.499993 0.499997 0.920025
C13   C     C_R   0.421196 0.481367 0.152876 -0.168020
C14   C     C_R   0.578773 0.518318 0.152878 -0.167661
C15   C     C_R   0.578873 0.481592 0.847109 -0.168020
C16   C     C_R   0.419748 0.519107 0.767358 0.059330
C17   C     C_R   0.419769 0.480529 0.232645 0.058559
C18   C     C_R   0.580223 0.519311 0.232642 0.059318
C19   C     C_R   0.580290 0.480754 0.767341 0.058541
C20   C     C_R   0.500015 0.499991 0.728288 -0.101727
C21   C     C_R   0.499997 0.499979 0.271707 -0.101797
C22   C     C_R   0.500043 0.499815 0.885671 0.082542
C23   C     C_R   0.232594 0.499948 0.499831 -0.172699
C24   C     C_R   0.499983 0.499804 0.114321 0.082536
C25   C     C_1   0.500034 0.499759 0.966117 -0.054423
C26   C     C_1   0.499997 0.499755 0.033875 -0.054435
C27   C     C_R   0.095422 0.577694 0.468660 0.501571
C28   C     C_R   0.904506 0.422085 0.468756 0.502249
C29   C     C_R   0.904692 0.577766 0.530583 0.501562
C30   C     C_R   0.095378 0.422009 0.530467 0.502213
C31   C     C_R   0.187108 0.578778 0.472884 -0.319071
C32   C     C_R   0.812827 0.421072 0.472976 -0.326107
C33   C     C_R   0.812987 0.578814 0.526677 -0.318949
C34   C     C_R   0.767405 0.499957 0.499897 -0.172718
C35   C     C_R   0.187076 0.421032 0.526564 -0.326016
C36   C     C_3   0.335027 0.539464 0.722213 -0.397022
C37   C     C_3   0.250733 0.556229 0.769704 -0.354661
C38   C     C_3   0.171823 0.579226 0.718379 -0.908948
C39   C     C_3   0.335132 0.459948 0.277808 -0.401012
C40   C     C_3   0.250896 0.442723 0.230318 -0.352171
C41   C     C_3   0.172080 0.419515 0.281648 -0.913873
C42   C     C_3   0.664905 0.539887 0.277783 -0.396879
C43   C     C_3   0.749151 0.556847 0.230274 -0.354965
C44   C     C_3   0.828047 0.580015 0.281566 -0.908389
C45   C     C_R   0.048491 0.499854 0.499531 -0.115135
C46   C     C_3   0.664957 0.460378 0.722160 -0.401149
C47   C     C_3   0.749243 0.443315 0.769620 -0.351911
C48   C     C_3   0.828058 0.420245 0.718246 -0.914345
C49   C     C_3   0.036743 0.646848 0.361187 0.087044
C50   C     C_3   0.112045 0.690661 0.314185 -0.367672
C51   C     C_3   0.091230 0.686856 0.228950 -0.964579
C52   C     C_3   0.963467 0.353007 0.361391 0.083347
C53   C     C_3   0.888370 0.309260 0.314082 -0.362331
C54   C     C_3   0.909397 0.313479 0.228908 -0.964148
C55   C     C_3   0.963758 0.646912 0.637912 0.087110
C56   C     C_R   0.951508 0.499921 0.499582 -0.115141
C57   C     C_3   0.888857 0.691205 0.685087 -0.367212
C58   C     C_3   0.909914 0.687274 0.770275 -0.964727
C59   C     C_3   0.036080 0.352884 0.637677 0.083411
C60   C     C_3   0.110796 0.308602 0.685096 -0.361950
C61   C     C_3   0.089547 0.312810 0.770230 -0.964225
C62   C     C_R   0.428019 0.105205 0.470054 -0.273369
C63   C     C_R   0.543400 0.894738 0.557769 -0.273744
C64   C     C_R   0.571981 0.105210 0.529945 -0.273368
H1    H     H_    0.361918 0.531449 0.880271 0.130116
H2    H     H_    0.576630 0.930270 0.604415 0.134552
H3    H     H_    0.629889 0.069683 0.552579 0.137290
H4    H     H_    0.423369 0.930255 0.395584 0.134561
H5    H     H_    0.373890 0.243210 0.446974 0.127741
H6    H     H_    0.576541 0.756606 0.601146 0.123965
H7    H     H_    0.626110 0.243219 0.553025 0.127743
H8    H     H_    0.423458 0.756591 0.398854 0.123973
H9    H     H_    0.183873 0.646317 0.687194 0.268144
H10   H     H_    0.160845 0.521903 0.676319 0.264191
H11   H     H_    0.111111 0.587063 0.753782 0.245070
H12   H     H_    0.361933 0.467803 0.119726 0.130159
H13   H     H_    0.234953 0.491802 0.803365 0.226938
H14   H     H_    0.260945 0.616738 0.809186 0.223624
H15   H     H_    0.346716 0.603108 0.686412 0.221232
H16   H     H_    0.322362 0.478794 0.683329 0.193029
H17   H     H_    0.184373 0.352556 0.312957 0.264680
H18   H     H_    0.160877 0.476900 0.323602 0.264547
H19   H     H_    0.111409 0.411335 0.246217 0.246055
H20   H     H_    0.234878 0.507005 0.196554 0.226542
H21   H     H_    0.261326 0.382166 0.190932 0.223116
H22   H     H_    0.347038 0.396431 0.313716 0.215640
H23   H     H_    0.638026 0.531812 0.119726 0.130117
H24   H     H_    0.322274 0.520666 0.316592 0.189257
H25   H     H_    0.815909 0.647087 0.312757 0.268330
H26   H     H_    0.839165 0.522723 0.323620 0.264114
H27   H     H_    0.888714 0.587966 0.246123 0.244792
H28   H     H_    0.765040 0.492460 0.196598 0.227026
H29   H     H_    0.738805 0.617337 0.190804 0.223631
H30   H     H_    0.653089 0.603511 0.313579 0.221343
H31   H     H_    0.677704 0.479255 0.316668 0.192907
H32   H     H_    0.815832 0.353264 0.686944 0.264521
H33   H     H_    0.839132 0.477649 0.676286 0.264632
H34   H     H_    0.638174 0.468186 0.880250 0.130160
H35   H     H_    0.888778 0.412169 0.753630 0.246291
H36   H     H_    0.765180 0.507631 0.803376 0.226455
H37   H     H_    0.738932 0.382743 0.809010 0.223118
H38   H     H_    0.653158 0.396849 0.686233 0.215564
H39   H     H_    0.677688 0.521137 0.683392 0.189344
H40   H     H_    0.974603 0.685770 0.348147 0.182390
H41   H     H_    0.025539 0.572604 0.343341 0.101539
H42   H     H_    0.121701 0.765410 0.331678 0.236658
H43   H     H_    0.174897 0.651755 0.324320 0.210940
H44   H     H_    0.082146 0.612487 0.210263 0.265755
H45   H     H_    0.222792 0.640498 0.453015 0.179438
H46   H     H_    0.147125 0.718132 0.196245 0.266723
H47   H     H_    0.029868 0.727484 0.216272 0.266345
H48   H     H_    0.025666 0.314108 0.348541 0.181381
H49   H     H_    0.974736 0.427280 0.343666 0.102419
H50   H     H_    0.878812 0.234413 0.331332 0.238108
H51   H     H_    0.825422 0.347985 0.324212 0.213650
H52   H     H_    0.918363 0.387947 0.210452 0.265306
H53   H     H_    0.853659 0.282199 0.195980 0.268381
H54   H     H_    0.970883 0.273060 0.216262 0.265562
H55   H     H_    0.026143 0.685500 0.650740 0.182277
H56   H     H_    0.777103 0.359372 0.453095 0.180510
H57   H     H_    0.974659 0.572632 0.655797 0.101468
H58   H     H_    0.879575 0.766014 0.667618 0.236683
H59   H     H_    0.825755 0.652702 0.675090 0.210855
H60   H     H_    0.918538 0.612844 0.788956 0.265822
H61   H     H_    0.854341 0.719001 0.803103 0.266751
H62   H     H_    0.971596 0.727426 0.782803 0.266380
H63   H     H_    0.973635 0.314329 0.650319 0.181272
H64   H     H_    0.025145 0.427183 0.655494 0.102318
H65   H     H_    0.119991 0.233725 0.667781 0.238123
H66   H     H_    0.173982 0.346956 0.675140 0.213559
H67   H     H_    0.777373 0.640523 0.546660 0.179357
H68   H     H_    0.081028 0.387308 0.788769 0.265369
H69   H     H_    0.144977 0.281044 0.803234 0.268409
H70   H     H_    0.027755 0.272831 0.782688 0.265582
H71   H     H_    0.222730 0.359336 0.546538 0.180394
H72   H     H_    0.370111 0.069673 0.447419 0.137303
N1    N     N_R   0.500000 0.252470 0.500000 -0.093175
N2    N     N_R   0.500000 0.747530 0.500000 -0.093302
O1    O     O_R   0.369060 0.579480 0.500010 -0.623157
O2    O     O_3   0.947238 0.342868 0.440462 -0.590379
O3    O     O_3   0.947624 0.656915 0.558802 -0.589544
O4    O     O_3   0.052533 0.342793 0.558634 -0.590408
O5    O     O_R   0.630940 0.420520 0.499990 -0.634054
O6    O     O_R   0.630940 0.579480 0.499990 -0.623156
O7    O     O_R   0.369060 0.420520 0.500010 -0.634046
O8    O     O_R   0.500000 0.579510 0.389120 -0.627623
O9    O     O_R   0.500000 0.420490 0.610880 -0.615804
O10   O     O_R   0.500000 0.579510 0.610880 -0.627583
O11   O     O_R   0.500000 0.420490 0.389120 -0.615823
O12   O     O_3   0.052599 0.656850 0.440339 -0.589527
Zn1   Zn    Zn3+2 0.500000 0.606140 0.500000 0.931268
Zn2   Zn    Zn3+2 0.500000 0.393860 0.500000 0.931980

loop_
_geom_bond_atom_site_label_1
_geom_bond_atom_site_label_2
_ccdc_geom_bond_type
C55   H57   S    
C55   O3    S    
C18   C21   A    
C14   C18   A    
C30   C45   A    
C1    O7    A    
C19   C20   A    
C28   O2    S    
O10   Zn1   S    
C9    C21   S    
C49   H40   S    
C4    H6    S    
C28   C56   A    
C19   C46   S    
C61   H69   S    
C7    C8    S    
C55   H55   S    
C53   C54   S    
C52   C53   S    
C6    H8    S    
C48   H33   S    
C46   H38   S    
C4    C63   A    
C9    O11   A    
C49   O12   S    
C47   H37   S    
C36   C37   S    
C3    H5    S    
C24   C26   S    
C14   H23   S    
O6    Zn1   S    
C2    H4    S    
C18   C42   S    
C52   H48   S    
C14   C24   A    
C41   H19   S    
C29   C33   A    
C9    O8    A    
C17   C39   S    
C62   H72   S    
C40   H20   S    
C61   H68   S    
C52   O2    S    
C57   H58   S    
C15   C22   A    
C45   C56   S    
C10   C20   S    
C51   H44   S    
C22   C25   S    
C54   H52   S    
N1    Zn2   S    
C3    N1    A    
C59   H63   S    
C1    O1    A    
C10   O9    A    
C33   H67   S    
C63   H2    S    
C41   H17   S    
C59   C60   S    
C2    C6    A    
C39   H24   S    
C32   H56   S    
C58   H62   S    
C61   H70   S    
C50   C51   S    
C38   H11   S    
C27   C31   A    
C42   H31   S    
C64   H3    S    
C28   C32   A    
C59   O4    S    
C36   H16   S    
O11   Zn2   S    
C60   H66   S    
C39   C40   S    
C49   H41   S    
C25   C26   T    
C52   H49   S    
C37   H13   S    
C17   C21   A    
C47   H36   S    
C12   O6    A    
C5    C64   A    
C60   C61   S    
C32   C34   A    
C40   H21   S    
C6    N2    A    
C15   C19   A    
C43   C44   S    
C7    C62   A    
C37   C38   S    
C57   H59   S    
C11   C16   A    
C47   C48   S    
C13   H12   S    
C16   C20   A    
C29   O3    S    
C33   C34   A    
C31   H45   S    
C44   H27   S    
C30   C35   A    
C40   C41   S    
C1    C23   S    
C51   H46   S    
C23   C35   A    
C54   H54   S    
C50   H43   S    
C42   C43   S    
C15   H34   S    
C35   H71   S    
C44   H26   S    
C53   H50   S    
C38   H10   S    
C3    C62   A    
C48   H35   S    
C46   C47   S    
O5    Zn2   S    
C51   H47   S    
C48   H32   S    
C42   H30   S    
C2    C8    A    
C36   H15   S    
C60   H65   S    
C5    N1    A    
C29   C56   A    
N2    Zn1   S    
C27   O12   S    
C46   H39   S    
C11   C22   A    
C58   H60   S    
C43   H28   S    
C30   O4    S    
C12   O5    A    
C13   C17   A    
C55   C57   S    
O9    Zn2   S    
C59   H64   S    
C5    H7    S    
C16   C36   S    
C27   C45   A    
C57   C58   S    
C41   H18   S    
O1    Zn1   S    
C43   H29   S    
C7    C64   A    
O7    Zn2   S    
C8    C63   A    
C4    N2    A    
O8    Zn1   S    
C53   H51   S    
C13   C24   A    
C58   H61   S    
C49   C50   S    
C54   H53   S    
C10   O10   A    
C50   H42   S    
C39   H22   S    
C37   H14   S    
C12   C34   S    
C44   H25   S    
C11   H1    S    
C23   C31   A    
C38   H9    S    
