data_mof_unit_62132.cif
_audit_creation_date              2012-12-10T20:58:27-0500
_audit_creation_method            fapswitch 2.2
_symmetry_space_group_name_H-M    P1
_symmetry_Int_Tables_number       1
_space_group_crystal_system       triclinic
_cell_length_a                    15.848643
_cell_length_b                    15.118717
_cell_length_c                    11.568056
_cell_angle_alpha                 89.99978
_cell_angle_beta                  89.956144
_cell_angle_gamma                 89.998427
_cell_volume                      2771.8343693

loop_
_atom_site_label
_atom_site_type_symbol
_atom_type_description
_atom_site_fract_x
_atom_site_fract_y
_atom_site_fract_z
_atom_type_partial_charge
C1    C     C_R   0.338922 0.500000 0.500041 0.898985
C2    C     C_R   0.553015 0.047289 0.577041 -0.089280
C3    C     C_R   0.552698 0.952707 0.577441 -0.089878
C4    C     C_R   0.447004 0.047297 0.422861 -0.089357
C5    C     C_1   0.499990 0.806854 0.499995 0.280047
C6    C     C_1   0.500004 0.193147 0.499980 0.280493
C7    C     C_1   0.500002 0.500004 0.161171 -0.154049
C8    C     C_1   0.499998 0.500004 0.838829 -0.154060
C9    C     C_1   0.500000 0.500008 0.059206 0.022762
C10   C     C_1   0.500000 0.500007 0.940794 0.022758
C11   C     C_R   0.956247 0.580501 0.499954 -0.173201
C12   C     C_R   0.661078 0.499998 0.499959 0.898965
C13   C     C_R   0.043753 0.419470 0.500042 -0.169704
C14   C     C_R   0.043745 0.580503 0.499947 -0.173167
C15   C     C_R   0.956254 0.419468 0.500050 -0.169684
C16   C     C_R   0.913135 0.499984 0.500004 0.161845
C17   C     C_R   0.086865 0.499988 0.499992 0.161844
C18   C     C_1   0.824338 0.499985 0.499993 -0.057305
C19   C     C_1   0.175662 0.499993 0.500005 -0.057292
C20   C     C_2   0.392883 0.095613 0.338201 0.358982
C21   C     C_2   0.610767 0.904384 0.657019 0.360958
C22   C     C_2   0.607231 0.095597 0.661585 0.358947
C23   C     C_1   0.250510 0.499998 0.500023 -0.149513
C24   C     C_2   0.389120 0.904401 0.343032 0.361130
C25   C     C_1   0.749490 0.499991 0.499976 -0.149534
C26   C     C_R   0.499979 0.904946 0.499988 0.002142
C27   C     C_R   0.500008 0.095056 0.499956 0.002475
C28   C     C_R   0.500006 0.500001 0.281397 0.897384
C29   C     C_R   0.499994 0.500001 0.718603 0.897370
C30   C     C_R   0.447266 0.952711 0.422522 -0.089933
H1    H     H_    0.077655 0.642758 0.499908 0.149886
H2    H     H_    0.922344 0.357214 0.500089 0.156121
H3    H     H_    0.922331 0.642754 0.499918 0.149864
H4    H     H_    0.077670 0.357218 0.500077 0.156103
H5    H     H_    0.380748 0.067465 0.253574 0.073691
H6    H     H_    0.671667 0.932438 0.679029 0.070245
H7    H     H_    0.619402 0.067487 0.746223 0.073712
H8    H     H_    0.328285 0.932566 0.320913 0.070255
N1    N     N_1   0.500000 0.270550 0.500000 -0.065801
N2    N     N_1   0.500000 0.729450 0.500000 -0.065611
O1    O     O_R   0.378020 0.573650 0.500040 -0.608904
O2    O     O_2   0.590767 0.833968 0.700847 -0.553671
O3    O     O_2   0.640367 0.166067 0.637141 -0.559284
O4    O     O_2   0.408965 0.833859 0.299418 -0.553746
O5    O     O_R   0.621980 0.426350 0.499960 -0.597852
O6    O     O_R   0.621980 0.573650 0.499960 -0.609000
O7    O     O_R   0.378020 0.426350 0.500040 -0.597882
O8    O     O_R   0.500010 0.573670 0.334460 -0.594626
O9    O     O_R   0.499990 0.426330 0.665540 -0.607409
O10   O     O_R   0.499990 0.573670 0.665540 -0.594618
O11   O     O_R   0.500010 0.426330 0.334460 -0.607348
O12   O     O_2   0.359800 0.166136 0.362521 -0.559281
Zn1   Zn    Zn3+2 0.500000 0.598370 0.500000 1.037843
Zn2   Zn    Zn3+2 0.500000 0.401630 0.500000 1.036182

loop_
_geom_bond_atom_site_label_1
_geom_bond_atom_site_label_2
_ccdc_geom_bond_type
C2    C22   S    
C19   C23   T    
C1    C23   S    
C2    C27   A    
C11   H3    S    
C22   O3    D    
C3    C26   A    
C9    C10   S    
C14   H1    S    
C24   H8    S    
C6    C27   S    
C13   C17   A    
C12   C25   S    
O11   Zn2   S    
C2    C3    A    
C4    C30   A    
C13   H4    S    
C20   O12   D    
C21   H6    S    
C29   O9    A    
C20   H5    S    
C14   C17   A    
O1    Zn1   S    
C18   C25   T    
O7    Zn2   S    
C8    C29   S    
O6    Zn1   S    
C1    O1    A    
C17   C19   S    
O5    Zn2   S    
C26   C30   A    
C29   O10   A    
C13   C15   A    
O8    Zn1   S    
C24   O4    D    
C11   C14   A    
C24   C30   S    
C3    C21   S    
N1    Zn2   S    
C5    C26   S    
O10   Zn1   S    
C15   H2    S    
C4    C27   A    
C16   C18   S    
N2    Zn1   S    
C11   C16   A    
C5    N2    T    
C7    C9    T    
C6    N1    T    
C28   O8    A    
C21   O2    D    
O9    Zn2   S    
C28   O11   A    
C22   H7    S    
C8    C10   T    
C1    O7    A    
C7    C28   S    
C15   C16   A    
C12   O5    A    
C12   O6    A    
C4    C20   S    
