data_mof_unit_60524.cif
_audit_creation_date              2013-03-05T16:21:00-0500
_audit_creation_method            fapswitch 2.2
_symmetry_space_group_name_H-M    P1
_symmetry_Int_Tables_number       1
_space_group_crystal_system       triclinic
_cell_length_a                    21.745982
_cell_length_b                    21.741878
_cell_length_c                    22.139518
_cell_angle_alpha                 119.268976
_cell_angle_beta                  119.362441
_cell_angle_gamma                 89.689236
_cell_volume                      7570.79599558

loop_
_atom_site_label
_atom_site_type_symbol
_atom_site_description
_atom_site_fract_x
_atom_site_fract_y
_atom_site_fract_z
_atom_type_partial_charge
O1    O     O_R   0.447800 0.090170 0.500010 -0.577403
O2    O     O_R   0.552190 0.090170 0.499980 -0.574806
C1    C     C_R   0.500089 0.118644 0.500478 0.798793
O3    O     O_R   0.508090 0.060280 0.620580 -0.580335
O4    O     O_R   0.612480 0.060280 0.620550 -0.577965
C2    C     C_R   0.579835 0.079988 0.659893 0.804083
Cu1   Cu    Cu3+1 0.438190 0.000000 0.500020 0.958871
Cu2   Cu    Cu3+1 0.561810 0.000000 0.499980 0.976416
O5    O     O_R   0.447810 0.909830 0.500020 -0.587499
O6    O     O_R   0.552200 0.909830 0.499990 -0.585156
O7    O     O_R   0.387520 0.939720 0.379450 -0.581258
O8    O     O_R   0.491910 0.939720 0.379420 -0.577954
C3    C     C_R   0.500497 0.881488 0.500494 0.789098
C4    C     C_R   0.420160 0.920098 0.340090 0.821785
C5    C     C_3   0.684245 0.278779 0.951187 -0.358717
C6    C     C_3   0.791399 0.235941 0.949970 -0.410968
C7    C     C_3   0.840847 0.283236 0.047352 0.223123
H1    H     H_    0.756241 0.384348 0.072779 0.216032
H2    H     H_    0.690426 0.312921 0.928855 0.196148
H3    H     H_    0.810319 0.187104 0.925721 0.143270
H4    H     H_    0.797065 0.267999 0.925310 0.214898
H5    H     H_    0.878064 0.251934 0.066895 0.092962
C8    C     C_1   0.875301 0.375732 0.250329 -0.134134
C9    C     C_3   0.708902 0.209412 0.917282 0.250516
C10   C     C_3   0.731304 0.326217 0.048116 -0.347741
C11   C     C_3   0.791868 0.292371 0.082626 0.197032
C12   C     C_3   0.751122 0.213559 0.049552 -0.453793
C13   C     C_3   0.702565 0.164891 0.952501 -0.384486
C14   C     C_1   0.837678 0.338268 0.174920 -0.052162
C15   C     C_1   0.662359 0.163067 0.825071 -0.073735
C16   C     C_1   0.624533 0.125131 0.749662 -0.153067
H6    H     H_    0.643714 0.145186 0.929810 0.177273
H7    H     H_    0.720566 0.115017 0.929577 0.169579
H8    H     H_    0.715427 0.217085 0.073149 0.187057
H9    H     H_    0.624572 0.261572 0.927026 0.164809
H10   H     H_    0.694241 0.328338 0.069794 0.156600
H11   H     H_    0.792080 0.186758 0.072995 0.170850
C17   C     C_R   0.447867 0.186763 0.436801 0.007885
C18   C     C_R   0.502003 0.186708 0.504768 -0.175620
C19   C     C_R   0.558685 0.254950 0.575935 0.388158
C20   C     C_R   0.557422 0.318815 0.573900 -0.119128
H12   H     H_    0.600498 0.370590 0.628231 0.212294
C21   C     C_R   0.501555 0.315698 0.502365 -0.206026
C22   C     C_R   0.448153 0.247883 0.435143 0.141365
C23   C     C_3   0.379911 0.208785 0.348927 0.228617
C24   C     C_3   0.379853 0.138668 0.350682 -0.511661
H13   H     H_    0.389369 0.206878 0.303043 0.103993
H14   H     H_    0.332751 0.118200 0.350184 0.226347
H15   H     H_    0.391583 0.095470 0.306935 0.160419
C25   C     C_3   0.226143 0.729381 0.049401 -0.370727
C26   C     C_3   0.338338 0.753813 0.048303 -0.369076
C27   C     C_3   0.289799 0.705157 0.951300 -0.373961
H16   H     H_    0.175869 0.622001 0.929715 0.170426
H17   H     H_    0.247600 0.693908 0.073077 0.166095
H18   H     H_    0.385760 0.796903 0.070847 0.165752
H19   H     H_    0.361911 0.718801 0.071957 0.165438
H20   H     H_    0.290172 0.646891 0.928590 0.167033
H21   H     H_    0.314022 0.724990 0.927479 0.163284
C28   C     C_1   0.125146 0.624373 0.749745 -0.160785
C29   C     C_3   0.291748 0.791122 0.082614 0.314496
C30   C     C_3   0.177607 0.680728 0.952403 -0.363719
C31   C     C_3   0.209092 0.708269 0.917431 0.310661
C32   C     C_3   0.211057 0.790228 0.950871 -0.370599
C33   C     C_3   0.259593 0.838882 0.047870 -0.375309
C34   C     C_1   0.162921 0.662034 0.825183 -0.106650
C35   C     C_1   0.337872 0.837375 0.174852 -0.109974
C36   C     C_1   0.375500 0.875163 0.250284 -0.167955
H22   H     H_    0.225511 0.866152 0.071200 0.164809
H23   H     H_    0.305536 0.883576 0.070414 0.162288
H24   H     H_    0.153774 0.794246 0.927838 0.166081
H25   H     H_    0.191424 0.754583 0.072753 0.168978
H26   H     H_    0.119692 0.682677 0.929395 0.170616
H27   H     H_    0.233802 0.811667 0.927049 0.163916
C37   C     C_R   0.439277 0.751441 0.437913 0.097653
C38   C     C_R   0.501441 0.814284 0.499198 -0.074490
C39   C     C_R   0.567468 0.809003 0.554154 -0.205867
H28   H     H_    0.617800 0.855652 0.599268 0.151825
C40   C     C_R   0.567410 0.744766 0.554552 -0.216371
H29   H     H_    0.617711 0.742588 0.599796 0.155955
C41   C     C_R   0.501939 0.684653 0.497969 -0.082985
C42   C     C_R   0.439830 0.687262 0.436585 0.133931
C43   C     C_3   0.361323 0.671206 0.411406 -0.474490
C44   C     C_3   0.360875 0.741944 0.413125 -0.451331
H30   H     H_    0.324041 0.620260 0.347640 0.209827
H31   H     H_    0.356233 0.674015 0.460204 0.186622
H32   H     H_    0.323294 0.731750 0.350349 0.198668
H33   H     H_    0.355653 0.785852 0.463071 0.212701
O9    O     O_R   0.910020 0.552220 0.500020 -0.587261
O10   O     O_R   0.909990 0.447840 0.500030 -0.584383
C45   C     C_R   0.881834 0.500440 0.500687 0.820581
O11   O     O_R   0.939920 0.491910 0.379430 -0.570399
O12   O     O_R   0.939890 0.387530 0.379440 -0.584098
C46   C     C_R   0.920200 0.420228 0.340098 0.820207
Cu3   Cu    Cu3+1 0.000200 0.561800 0.500000 0.964468
Cu4   Cu    Cu3+1 0.000170 0.438200 0.500000 0.971921
O13   O     O_R   0.090380 0.552160 0.499970 -0.582544
O14   O     O_R   0.090350 0.447780 0.499980 -0.585250
O15   O     O_R   0.060480 0.612470 0.620560 -0.584519
O16   O     O_R   0.060450 0.508090 0.620570 -0.576774
C47   C     C_R   0.118640 0.499433 0.499395 0.798769
C48   C     C_R   0.080169 0.579792 0.659926 0.820653
O17   O     O_R   0.625130 0.534920 0.569820 -0.566438
O18   O     O_R   0.555400 0.465140 0.430260 -0.590324
C49   C     C_R   0.618832 0.499193 0.499935 0.884410
O19   O     O_R   0.534920 0.444720 0.569790 -0.578536
O20   O     O_R   0.465190 0.374940 0.430230 -0.581909
C50   C     C_R   0.499980 0.381197 0.500409 0.912068
Cu5   Cu    Cu3+1 0.541330 0.541310 0.582630 0.992536
Cu6   Cu    Cu3+1 0.458770 0.458690 0.417370 0.974531
O21   O     O_R   0.444700 0.534860 0.569740 -0.588805
O22   O     O_R   0.374970 0.465080 0.430180 -0.582396
O23   O     O_R   0.534910 0.625060 0.569770 -0.593150
O24   O     O_R   0.465180 0.555280 0.430210 -0.588646
C51   C     C_R   0.381058 0.500082 0.500205 0.801819
C52   C     C_R   0.499906 0.618911 0.499650 0.784564
C53   C     C_R   0.762871 0.527645 0.465084 0.130800
C54   C     C_R   0.816643 0.500980 0.503023 -0.156603
C55   C     C_R   0.804244 0.471542 0.541906 -0.265929
H34   H     H_    0.844905 0.449846 0.572023 0.201688
C56   C     C_R   0.738883 0.469127 0.541269 0.317486
C57   C     C_R   0.685013 0.496282 0.500015 -0.203132
C58   C     C_R   0.699679 0.524155 0.462423 0.058033
C59   C     C_3   0.670176 0.559019 0.414703 -0.465709
C60   C     C_3   0.742016 0.562104 0.416733 -0.434860
H35   H     H_    0.619393 0.520293 0.351188 0.207125
H36   H     H_    0.666296 0.614483 0.451950 0.194782
H37   H     H_    0.732763 0.524699 0.354468 0.192634
H38   H     H_    0.779303 0.619390 0.454532 0.204033
C61   C     C_R   0.248937 0.560149 0.562481 0.097013
C62   C     C_R   0.185714 0.498436 0.500537 -0.075939
C63   C     C_R   0.190445 0.432730 0.444681 -0.189508
H39   H     H_    0.143431 0.382698 0.398978 0.159115
C64   C     C_R   0.254652 0.432817 0.444256 -0.182078
H40   H     H_    0.256460 0.382812 0.398400 0.182630
C65   C     C_R   0.315237 0.497962 0.501678 -0.092068
C66   C     C_R   0.313054 0.559599 0.563738 0.137912
C67   C     C_3   0.329783 0.638477 0.590289 -0.482340
C68   C     C_3   0.259098 0.638923 0.588651 -0.453636
H41   H     H_    0.380884 0.675015 0.654151 0.203736
H42   H     H_    0.327153 0.644506 0.542093 0.188337
H43   H     H_    0.269474 0.675755 0.651568 0.193714
H44   H     H_    0.215395 0.645085 0.539353 0.217346
O25   O     O_3   0.614980 0.262564 0.648228 -0.703135
H45   H     H_    0.606551 0.215910 0.644636 0.319918
O26   O     O_3   0.320831 0.234722 0.348940 -0.708992
H46   H     H_    0.277540 0.204208 0.290042 0.323813
N1    N     N_R   0.727549 0.437113 0.579908 0.131723
O27   O     O_R   0.661870 0.396836 0.546034 -0.392411
O28   O     O_R   0.784153 0.439749 0.642636 -0.343295
N2    N     N_R   0.887910 0.354782 0.081033 0.132999
O29   O     O_R   0.959537 0.373103 0.130707 -0.352881
O30   O     O_R   0.859671 0.398713 0.058625 -0.360840

loop_
_geom_bond_atom_site_label_1
_geom_bond_atom_site_label_2
_geom_bond_distance
_ccdc_geom_bond_type
C44   H33   1.112107 S    
C6    H4    1.112697 S    
C20   H12   1.083491 S    
N1    O27   1.300086 A    
C37   C44   1.491987 S    
C38   C39   1.405984 A    
O26   H46   0.991844 S    
C59   C60   1.541561 S    
C23   C24   1.543882 S    
C53   C54   1.383693 A    
Cu1   O7    1.941044 S    
O19   C50   1.279322 A    
C24   H15   1.111498 S    
C11   C12   1.552669 S    
C25   H17   1.113027 S    
C53   C58   1.347202 A    
C23   O26   1.400321 S    
C7    C11   1.563793 S    
C33   H22   1.113024 S    
N1    O28   1.301392 A    
C39   C40   1.400990 A    
O2    C1    1.290354 A    
Cu6   O22   1.971321 S    
O4    C2    1.297844 A    
O7    C4    1.298045 A    
C47   C62   1.446597 S    
C59   H35   1.111456 S    
O20   C50   1.283223 A    
Cu3   O15   1.940489 S    
C4    C36   1.438094 S    
O25   H45   0.988759 S    
Cu5   Cu6   2.646382 S    
C26   H19   1.113010 S    
O5    C3    1.295901 A    
C55   H34   1.083415 S    
Cu3   O13   1.971381 S    
H16   C30   1.113006 S    
C61   C68   1.491994 S    
C3    C38   1.447553 S    
C6    C7    1.559680 S    
C51   C65   1.449105 S    
C32   H24   1.113012 S    
O17   Cu5   1.971322 S    
Cu2   O8    1.942876 S    
O21   C51   1.280940 A    
C26   H18   1.113006 S    
Cu6   O24   1.972567 S    
C60   H38   1.111485 S    
C2    C16   1.437548 S    
C1    C18   1.435267 S    
C6    C9    1.550705 S    
C20   C21   1.413462 A    
Cu3   Cu4   2.687300 S    
H1    C10   1.109894 S    
O3    Cu1   1.942878 S    
C5    H9    1.113033 S    
O19   Cu5   1.972566 S    
C42   C43   1.493360 S    
C55   C56   1.415482 A    
C23   H13   1.113352 S    
C12   H8    1.113209 S    
C17   C18   1.383738 A    
C67   H42   1.111686 S    
O9    Cu3   1.973444 S    
C37   C38   1.394208 A    
C26   C27   1.553398 S    
C28   C48   1.438290 S    
C45   C54   1.443485 S    
C65   C66   1.395988 A    
C39   H28   1.083351 S    
O3    C2    1.298527 A    
C68   H44   1.112115 S    
C18   C19   1.425712 A    
C40   H29   1.083247 S    
C41   C42   1.396014 A    
C59   H36   1.111785 S    
C49   C57   1.439385 S    
C32   H27   1.113016 S    
C10   C11   1.553142 S    
O6    C3    1.292491 A    
O12   Cu4   1.940491 S    
Cu5   O23   1.970116 S    
O1    C1    1.290789 A    
O10   Cu4   1.971380 S    
C5    H2    1.112974 S    
C25   H25   1.113016 S    
C17   C22   1.347324 A    
C31   C32   1.550832 S    
O11   C46   1.298125 A    
C61   C66   1.380976 A    
C67   H41   1.111530 S    
C41   C52   1.449387 S    
C13   H6    1.112987 S    
C6    H3    1.113293 S    
C40   C41   1.405218 A    
C21   C50   1.445459 S    
C33   H23   1.113029 S    
O17   C49   1.278347 A    
C57   C58   1.384647 A    
C27   H21   1.113020 S    
C56   N1    1.438014 S    
C60   H37   1.111628 S    
C30   H26   1.113014 S    
C19   C20   1.410804 A    
O16   C48   1.298460 A    
O9    C45   1.294584 A    
C13   H7    1.112979 S    
C43   H30   1.111530 S    
C21   C22   1.384002 A    
C64   H40   1.083349 S    
N2    O30   1.301434 A    
C37   C42   1.381342 A    
C63   H39   1.083368 S    
O15   C48   1.297663 A    
C8    C14   1.207535 T    
O18   C49   1.279868 A    
O14   C47   1.292047 A    
C56   C57   1.423248 A    
C61   C62   1.393913 A    
Cu1   O5    1.970466 S    
C5    C9    1.550645 S    
C5    C10   1.552341 S    
C53   C60   1.489053 S    
C31   C34   1.477227 S    
O1    Cu1   1.972816 S    
O2    Cu2   1.970466 S    
C22   C23   1.489142 S    
C9    C13   1.552007 S    
O8    C4    1.298582 A    
C66   C67   1.493407 S    
C63   C64   1.400891 A    
C68   H43   1.111536 S    
O4    Cu2   1.941045 S    
Cu4   O14   1.973446 S    
C43   H31   1.111684 S    
C67   C68   1.519750 S    
C7    H5    1.115313 S    
C29   C33   1.550655 S    
O18   Cu6   1.972973 S    
C25   C29   1.550758 S    
C62   C63   1.405830 A    
O10   C45   1.291453 A    
C27   C31   1.550724 S    
C54   C55   1.411247 A    
C28   C34   1.208033 T    
O11   Cu3   1.943379 S    
C15   C16   1.207619 T    
C12   H11   1.113088 S    
O13   C47   1.295290 A    
O12   C46   1.297623 A    
Cu5   O21   1.972971 S    
C35   C36   1.207932 T    
O22   C51   1.283082 A    
Cu4   O16   1.943377 S    
C30   C31   1.550660 S    
C9    C15   1.476748 S    
C17   C24   1.489319 S    
Cu1   Cu2   2.688673 S    
C27   H20   1.113005 S    
C10   H10   1.113263 S    
C29   C35   1.477085 S    
C32   C33   1.553318 S    
C24   H14   1.111912 S    
C8    C46   1.437485 S    
C44   H32   1.111536 S    
C11   C14   1.477914 S    
Cu2   O6    1.972819 S    
C43   C44   1.519825 S    
C19   O25   1.381818 S    
C12   C13   1.554158 S    
C64   C65   1.405390 A    
C25   C30   1.553308 S    
N2    O29   1.301050 A    
C26   C29   1.550721 S    
C58   C59   1.488442 S    
O20   Cu6   1.970117 S    
O23   C52   1.283207 A    
O24   C52   1.280943 A    
C7    N2    1.468955 S    
