data_mof_unit_53074.cif
_audit_creation_date              2012-12-11T17:09:31-0500
_audit_creation_method            fapswitch 2.2
_symmetry_space_group_name_H-M    P1
_symmetry_Int_Tables_number       1
_space_group_crystal_system       monoclinic
_cell_length_a                    14.813862
_cell_length_b                    6.932154
_cell_length_c                    13.507855
_cell_angle_alpha                 90.0
_cell_angle_beta                  99.847238
_cell_angle_gamma                 90.0
_cell_volume                      1366.71174465

loop_
_atom_site_label
_atom_site_type_symbol
_atom_type_description
_atom_site_fract_x
_atom_site_fract_y
_atom_site_fract_z
_atom_type_partial_charge
O1    O     O_R   0.586930 0.505770 0.416350 -0.541293
O2    O     O_R   0.413070 0.005770 0.583650 -0.541294
O3    O     O_R   0.397900 0.173100 0.389630 -0.535723
O4    O     O_R   0.602100 0.673100 0.610370 -0.535722
C1    C     C_R   0.364318 0.345417 0.362791 0.719858
C2    C     C_R   0.635682 0.845418 0.637209 0.719859
O5    O     O_R   0.585280 0.175870 0.404330 -0.544478
O6    O     O_R   0.414720 0.675870 0.595670 -0.544477
O7    O     O_R   0.601790 0.008380 0.598460 -0.535104
O8    O     O_R   0.398210 0.508380 0.401540 -0.535104
C3    C     C_R   0.614773 0.344795 0.382921 0.702693
C4    C     C_R   0.385227 0.844795 0.617079 0.702694
O9    O     O_3   0.505200 0.340120 0.563670 -0.372588
O10   O     O_3   0.494800 0.840120 0.436330 -0.372587
V1    V     V_3+5 0.499040 0.064180 0.488190 1.395645
V2    V     V_3+5 0.500960 0.564180 0.511810 1.395646
C5    C     C_R   0.251248 0.005102 0.675545 0.088386
C6    C     C_R   0.748752 0.505101 0.324456 0.088387
C7    C     C_R   0.314120 0.852743 0.682070 -0.145376
C8    C     C_R   0.685879 0.352743 0.317930 -0.145377
C9    C     C_R   0.304238 0.702294 0.749475 -0.140119
C10   C     C_R   0.695761 0.202294 0.250524 -0.140120
H1    H     H_    0.350750 0.581091 0.756840 0.122668
H2    H     H_    0.649249 0.081092 0.243159 0.122667
C11   C     C_R   0.238369 0.713137 0.813222 -0.171788
C12   C     C_R   0.761631 0.213137 0.186778 -0.171787
H3    H     H_    0.235975 0.599339 0.867464 0.119746
H4    H     H_    0.764025 0.099339 0.132536 0.119746
C13   C     C_R   0.180803 0.875466 0.812067 -0.105209
C14   C     C_R   0.819197 0.375466 0.187933 -0.105209
C15   C     C_R   0.186609 0.017017 0.739470 0.032882
C16   C     C_R   0.813391 0.517016 0.260530 0.032879
C17   C     C_3   0.197736 0.229941 0.752011 -0.389900
C18   C     C_3   0.802265 0.729940 0.247990 -0.389900
C19   C     C_3   0.268522 0.217737 0.682640 0.141811
C20   C     C_3   0.731479 0.717737 0.317360 0.141812
H5    H     H_    0.228167 0.268849 0.830408 0.129765
H6    H     H_    0.771835 0.768850 0.169593 0.129765
H7    H     H_    0.134346 0.310485 0.721053 0.185917
H8    H     H_    0.865655 0.810484 0.278949 0.185918
H9    H     H_    0.339200 0.252737 0.720966 0.079284
H10   H     H_    0.660800 0.752738 0.279034 0.079284
C21   C     C_1   0.783575 0.877087 0.782718 -0.197697
C22   C     C_1   0.216425 0.377086 0.217281 -0.197697
C23   C     C_1   0.716254 0.860091 0.716713 -0.184484
C24   C     C_1   0.283746 0.360091 0.283287 -0.184483
O11   O     O_R   0.101720 0.231700 0.098560 -0.535301
O12   O     O_R   0.898280 0.731700 0.901440 -0.535301
O13   O     O_R   0.914700 0.558980 0.095690 -0.540967
O14   O     O_R   0.085300 0.058980 0.904310 -0.540967
C25   C     C_R   0.885304 0.389660 0.117223 0.699969
C26   C     C_R   0.114696 0.889660 0.882777 0.699970
O15   O     O_R   0.102080 0.561590 0.110390 -0.537449
O16   O     O_R   0.897920 0.061590 0.889610 -0.537450
O17   O     O_R   0.086950 0.728940 0.916330 -0.540875
O18   O     O_R   0.913050 0.228940 0.083670 -0.540875
C27   C     C_R   0.136002 0.391899 0.137567 0.730827
C28   C     C_R   0.863998 0.891899 0.862433 0.730828
O19   O     O_3   0.994770 0.394510 0.936380 -0.368343
O20   O     O_3   0.005230 0.894510 0.063620 -0.368343
V3    V     V_3+5 0.000970 0.670520 0.011800 1.410173
V4    V     V_3+5 0.999030 0.170520 0.988200 1.410173
N1    N     N_2   0.242556 0.322221 0.588219 -0.489575
H11   H     H_    0.298134 0.360194 0.555850 0.267993
C29   C     C_3   0.165739 0.254619 0.515098 -0.522251
H12   H     H_    0.148793 0.364252 0.454863 0.186521
H13   H     H_    0.104161 0.232144 0.550280 0.199401
H14   H     H_    0.183914 0.117834 0.480404 0.184977
N2    N     N_2   0.757445 0.822221 0.411781 -0.489576
H15   H     H_    0.701867 0.860200 0.444149 0.267992
C30   C     C_3   0.834260 0.754614 0.484904 -0.522247
H16   H     H_    0.851208 0.864250 0.545138 0.186521
H17   H     H_    0.895838 0.732127 0.449723 0.199400
H18   H     H_    0.816081 0.617834 0.519600 0.184976

loop_
_geom_bond_atom_site_label_1
_geom_bond_atom_site_label_2
_ccdc_geom_bond_type
C14   C25   S    
N1    C29   S    
C2    C23   S    
C20   H10   S    
O1    C3    A    
O2    C4    A    
O11   V4    S    
O5    C3    A    
C17   H7    S    
C18   H8    S    
C7    C9    A    
C6    C8    A    
O20   V4    S    
C25   O18   A    
N2    C30   S    
C21   C28   S    
C5    C7    A    
O15   V3    S    
C29   H13   S    
O14   C26   A    
C15   C17   S    
O10   V2    S    
C18   C20   S    
C26   O17   A    
O5    V1    S    
O6    V2    S    
C2    O7    A    
C22   C24   T    
C11   C13   A    
C3    C8    S    
O19   V3    S    
O13   V3    S    
O4    C2    A    
C30   H17   S    
O15   C27   A    
O16   V4    S    
O13   C25   A    
C17   H5    S    
O20   V3    S    
C16   C18   S    
O4    V2    S    
O11   C27   A    
C22   C27   S    
O6    C4    A    
C29   H14   S    
O1    V2    S    
O2    V1    S    
C21   C23   T    
C8    C10   A    
C12   C14   A    
O9    V1    S    
O14   V4    S    
O18   V4    S    
C6    C16   A    
O3    V1    S    
C20   N2    S    
O16   C28   A    
C9    C11   A    
O19   V4    S    
C18   H6    S    
O3    C1    A    
C30   H18   S    
O12   C28   A    
C11   H3    S    
C1    C24   S    
C12   H4    S    
C9    H1    S    
O7    V1    S    
C1    O8    A    
C13   C15   A    
O8    V2    S    
C14   C16   A    
O12   V3    S    
C5    C15   A    
O17   V3    S    
C4    C7    S    
C17   C19   S    
C10   H2    S    
N2    H15   S    
C19   H9    S    
N1    H11   S    
C30   H16   S    
C29   H12   S    
C10   C12   A    
O9    V2    S    
O10   V1    S    
C19   N1    S    
C5    C19   S    
C6    C20   S    
C13   C26   S    
