data_mof_unit_32336.cif
_audit_creation_date              2012-12-11T15:23:31-0500
_audit_creation_method            fapswitch 2.2
_symmetry_space_group_name_H-M    P1
_symmetry_Int_Tables_number       1
_space_group_crystal_system       triclinic
_cell_length_a                    6.935368
_cell_length_b                    17.514532
_cell_length_c                    19.306089
_cell_angle_alpha                 109.381661
_cell_angle_beta                  90.374078
_cell_angle_gamma                 90.502586
_cell_volume                      2212.00980342

loop_
_atom_site_label
_atom_site_type_symbol
_atom_type_description
_atom_site_fract_x
_atom_site_fract_y
_atom_site_fract_z
_atom_type_partial_charge
O1    O     O_R   0.505810 0.439670 0.562310 -0.538840
O2    O     O_R   0.169070 0.404920 0.411210 -0.538808
O3    O     O_R   0.005550 0.560330 0.437690 -0.518149
C1    C     C_R   0.339054 0.379848 0.384674 0.709209
O4    O     O_R   0.175650 0.430000 0.560110 -0.526419
O5    O     O_R   0.012170 0.585580 0.587650 -0.541769
C2    C     C_R   0.344478 0.415739 0.582472 0.726716
O6    O     O_R   0.499180 0.414420 0.412350 -0.535990
O7    O     O_3   0.341430 0.551020 0.508860 -0.361764
V1    V     V_3+5 0.063930 0.490540 0.498360 1.486081
O8    O     O_R   0.682850 0.595080 0.588790 -0.532954
C3    C     C_R   0.853118 0.618351 0.616894 0.719934
O9    O     O_R   0.676280 0.570000 0.439890 -0.541180
C4    C     C_R   0.845023 0.585719 0.418931 0.741441
V2    V     V_3+5 0.564760 0.509460 0.501640 1.483050
O10   O     O_3   0.837130 0.448980 0.491140 -0.375192
C5    C     C_R   0.058665 0.880308 0.190328 0.406481
C6    C     C_R   0.920284 0.867517 0.133104 -0.161441
C7    C     C_R   0.775358 0.808637 0.124234 -0.334278
C8    C     C_R   0.761671 0.764231 0.172631 0.116046
C9    C     C_R   0.896225 0.778029 0.230924 0.018242
C10   C     C_R   0.043673 0.836678 0.240311 -0.044773
C11   C     C_R   0.613400 0.706821 0.164066 -0.188561
C12   C     C_R   0.599054 0.662634 0.212182 -0.152873
C13   C     C_R   0.732990 0.674806 0.269721 0.142696
C14   C     C_R   0.882308 0.733145 0.279862 -0.053321
C15   C     C_R   0.017310 0.746212 0.338387 -0.098492
C16   C     C_R   0.162934 0.806443 0.348413 0.486451
C17   C     C_R   0.172935 0.850929 0.299646 -0.279049
C18   C     C_R   0.720702 0.628501 0.316376 -0.259872
C19   C     C_R   0.855701 0.638784 0.373124 -0.191422
C20   C     C_R   0.000279 0.699607 0.386108 0.447016
H1    H     H_    0.285068 0.896314 0.308118 0.164930
C21   C     C_3   0.709448 0.782112 0.769943 -0.176541
C22   C     C_3   0.812298 0.776650 0.697313 -0.216387
H2    H     H_    0.752563 0.798117 0.653656 0.112939
C23   C     C_3   0.869338 0.688792 0.687331 -0.073512
C24   C     C_3   0.769841 0.694604 0.759361 0.520768
C25   C     C_3   0.959432 0.723498 0.802683 -0.240110
C26   C     C_3   0.060417 0.718567 0.729816 -0.183331
C27   C     C_3   0.003300 0.807206 0.740533 -0.113884
C28   C     C_3   0.901515 0.811467 0.812453 -0.046759
H3    H     H_    0.019343 0.701726 0.846137 0.096699
H4    H     H_    0.205024 0.692582 0.712890 0.142515
H5    H     H_    0.101040 0.854429 0.733231 0.101169
C29   C     C_3   0.555847 0.269439 0.286313 0.498650
C30   C     C_3   0.471423 0.182922 0.267896 -0.365345
H6    H     H_    0.538469 0.130806 0.278988 0.137151
C31   C     C_3   0.415068 0.184874 0.190568 -0.215397
C32   C     C_3   0.498816 0.270913 0.209736 0.429340
C33   C     C_3   0.300701 0.308343 0.238413 -0.322890
C34   C     C_3   0.219267 0.221701 0.221899 0.549434
C35   C     C_3   0.273990 0.221468 0.299570 -0.245959
C36   C     C_3   0.359209 0.307707 0.315950 -0.202562
C37   C     C_R   0.566952 0.136279 0.822101 -0.231272
C38   C     C_R   0.416061 0.136054 0.870343 -0.084281
C39   C     C_R   0.252419 0.183282 0.871420 -0.187850
C40   C     C_R   0.239895 0.231207 0.825912 0.031644
C41   C     C_R   0.389911 0.230409 0.776990 0.074028
C42   C     C_R   0.553348 0.181902 0.774557 0.110752
C43   C     C_R   0.078067 0.278986 0.828183 -0.309804
C44   C     C_R   0.063910 0.328448 0.783579 0.493906
C45   C     C_R   0.213419 0.326982 0.733051 -0.109403
C46   C     C_R   0.375883 0.277208 0.729868 -0.085688
C47   C     C_R   0.524999 0.273672 0.679381 0.153392
C48   C     C_R   0.684696 0.224033 0.676489 -0.097706
C49   C     C_R   0.699363 0.179025 0.723960 -0.201392
C50   C     C_R   0.206433 0.374789 0.686087 0.439345
C51   C     C_R   0.353538 0.368725 0.633944 -0.195242
C52   C     C_R   0.512490 0.319128 0.632041 -0.241245
H7    H     H_    0.960525 0.276479 0.864017 0.143404
H8    H     H_    0.799926 0.220781 0.637995 0.109476
O11   O     O_R   0.271890 0.085690 0.087580 -0.526223
O12   O     O_R   0.595690 0.070020 0.939870 -0.537328
O13   O     O_R   0.758900 0.914390 0.912370 -0.544247
C53   C     C_R   0.426660 0.085493 0.918511 0.719008
O14   O     O_R   0.602020 0.095100 0.088770 -0.532583
O15   O     O_R   0.765280 0.939660 0.062330 -0.559643
C54   C     C_R   0.432912 0.117042 0.117953 0.762635
O16   O     O_R   0.265520 0.060430 0.937620 -0.541536
O17   O     O_3   0.429560 0.949050 0.991100 -0.383546
V3    V     V_3+5 0.707160 0.009450 0.001650 1.421338
O18   O     O_R   0.094540 0.929890 0.060190 -0.531522
C55   C     C_R   0.926588 0.915463 0.082402 0.710646
O19   O     O_R   0.088200 0.904800 0.911290 -0.544582
C56   C     C_R   0.917901 0.881619 0.883101 0.685877
V4    V     V_3+5 0.206300 0.990390 0.998440 1.417829
O20   O     O_3   0.934030 0.050940 0.008900 -0.358204
O21   O     O_3   0.195227 0.941528 0.201696 -0.579433
C57   C     C_3   0.370601 0.907906 0.169516 -0.217857
H9    H     H_    0.446536 0.878198 0.204150 0.141532
H10   H     H_    0.465261 0.957655 0.165603 0.152694
H11   H     H_    0.351076 0.863816 0.113068 0.136273
H12   H     H_    0.564766 0.808170 0.786534 0.111628
O22   O     O_3   0.647787 0.631858 0.764531 -0.560210
C58   C     C_3   0.567102 0.654507 0.835115 -0.309827
H13   H     H_    0.470145 0.707182 0.844650 0.140479
H14   H     H_    0.680552 0.667640 0.878645 0.131333
H15   H     H_    0.478355 0.603184 0.839184 0.156603
O23   O     O_3   0.738526 0.295516 0.318959 -0.538092
C59   C     C_3   0.765103 0.269036 0.379989 -0.147204
H16   H     H_    0.780578 0.202468 0.362966 0.078006
H17   H     H_    0.645959 0.287745 0.420089 0.110460
H18   H     H_    0.900683 0.295946 0.408694 0.159878
O24   O     O_3   0.623142 0.292975 0.161796 -0.528807
C60   C     C_3   0.656963 0.377217 0.188732 -0.178508
H19   H     H_    0.716488 0.397590 0.245667 0.152915
H20   H     H_    0.523437 0.410795 0.186017 0.100753
H21   H     H_    0.765469 0.392653 0.153397 0.153462
H22   H     H_    0.226245 0.357989 0.225633 0.138383
O25   O     O_3   0.039115 0.196089 0.187191 -0.520553
C61   C     C_3   0.978128 0.124868 0.200232 -0.086947
H23   H     H_    0.887881 0.140348 0.249636 0.110863
H24   H     H_    0.098089 0.085589 0.206029 0.127737
H25   H     H_    0.890523 0.087810 0.153338 0.168762
H26   H     H_    0.672342 0.797506 0.079383 0.133564
H27   H     H_    0.179703 0.201584 0.336728 0.124891
H28   H     H_    0.692774 0.099355 0.820249 0.122234
H29   H     H_    0.135538 0.183612 0.908558 0.136546
O26   O     O_3   0.896791 0.371498 0.782562 -0.516402
C62   C     C_3   0.835438 0.415892 0.854079 -0.212320
H30   H     H_    0.744820 0.466481 0.850762 0.164443
H31   H     H_    0.958123 0.443091 0.892082 0.103290
H32   H     H_    0.743738 0.377362 0.876342 0.136293
O27   O     O_3   0.055420 0.427273 0.690556 -0.521625
C63   C     C_3   0.110214 0.504549 0.738733 -0.136522
H33   H     H_    0.227293 0.531714 0.715072 0.112620
H34   H     H_    0.154959 0.502737 0.793664 0.105219
H35   H     H_    0.983841 0.544646 0.746993 0.176069
H36   H     H_    0.626461 0.315248 0.592846 0.142316
H37   H     H_    0.825173 0.141860 0.721028 0.120264
H38   H     H_    0.508035 0.696133 0.120071 0.113435
H39   H     H_    0.483385 0.618429 0.204100 0.112461
H40   H     H_    0.608329 0.582654 0.307381 0.132190
O28   O     O_3   0.127026 0.712033 0.444671 -0.518278
C64   C     C_3   0.038886 0.763009 0.508938 -0.145122
H41   H     H_    0.912130 0.732984 0.524230 0.080792
H42   H     H_    0.995137 0.821534 0.502995 0.112306
H43   H     H_    0.144636 0.776752 0.554932 0.146412
O29   O     O_3   0.305602 0.815852 0.401569 -0.516694
C65   C     C_3   0.322869 0.897500 0.447237 -0.233562
H44   H     H_    0.388635 0.899059 0.500227 0.157311
H45   H     H_    0.180836 0.928100 0.459883 0.106027
H46   H     H_    0.421244 0.931422 0.422479 0.128402

loop_
_geom_bond_atom_site_label_1
_geom_bond_atom_site_label_2
_ccdc_geom_bond_type
C12   H39   S    
O18   V4    S    
C9    C14   A    
C59   H16   S    
C38   C53   S    
C10   C17   A    
C27   C28   S    
C7    C8    A    
C21   C28   S    
C4    C19   S    
C1    O6    A    
C61   H24   S    
O17   V3    S    
C39   C40   A    
O28   C64   S    
C30   C31   S    
C35   C36   S    
O26   C62   S    
C41   C46   A    
C63   H33   S    
O12   C53   A    
C7    H26   S    
C16   C17   A    
C22   C23   S    
C6    C7    A    
C23   C26   S    
C65   H45   S    
O5    C3    A    
C18   C19   A    
C35   H27   S    
C60   H19   S    
V2    O10   S    
C58   H15   S    
C17   H1    S    
C52   H36   S    
C38   C39   A    
C21   C22   S    
C3    C23   S    
O11   V4    S    
C62   H32   S    
C16   O29   S    
C29   C30   S    
O8    V2    S    
C48   H8    S    
C44   C45   A    
O22   C58   S    
C42   C49   A    
C50   C51   A    
C18   H40   S    
C58   H14   S    
C24   O22   S    
C32   O24   S    
C6    C55   S    
C11   C12   A    
C28   C56   S    
O7    V1    S    
C44   O26   S    
C39   H29   S    
C37   C42   A    
C43   H7    S    
C40   C43   A    
O19   V4    S    
C48   C49   A    
C41   C42   A    
C59   H17   S    
O1    C2    A    
O9    C4    A    
C51   C52   A    
O12   V3    S    
C64   H43   S    
C61   H23   S    
C32   C33   S    
C25   C28   S    
O14   C54   A    
C33   C34   S    
C30   H6    S    
C21   H12   S    
C5    O21   S    
C12   C13   A    
C64   H42   S    
C65   H46   S    
C25   C26   S    
O4    C2    A    
C25   H3    S    
O6    V2    S    
C34   O25   S    
C13   C14   A    
O19   C56   A    
C31   C54   S    
C22   H2    S    
O2    C1    A    
C2    C51   S    
C23   C24   S    
O15   V3    S    
O13   C56   A    
C57   H10   S    
O18   C55   A    
C8    C11   A    
C31   C34   S    
C58   H13   S    
C29   C36   S    
C37   C38   A    
C5    C6    A    
O11   C54   A    
O29   C65   S    
C62   H30   S    
O17   V4    S    
O3    C4    A    
O1    V2    S    
C26   C27   S    
C47   C48   A    
C33   H22   S    
O9    V2    S    
C14   C15   A    
O27   C63   S    
O2    V1    S    
C34   C35   S    
C57   H11   S    
C13   C18   A    
C29   O23   S    
C45   C50   A    
C63   H34   S    
O25   C61   S    
C1    C36   S    
C15   C20   A    
C21   C24   S    
C19   C20   A    
C49   H37   S    
C53   O16   A    
C64   H41   S    
O5    V1    S    
C20   O28   S    
O8    C3    A    
O13   V3    S    
O16   V4    S    
O24   C60   S    
C29   C32   S    
C5    C10   A    
C63   H35   S    
C30   C35   S    
C33   C36   S    
C46   C47   A    
C40   C41   A    
O4    V1    S    
O3    V1    S    
V1    O10   S    
C65   H44   S    
C57   H9    S    
C24   C25   S    
C60   H20   S    
O14   V3    S    
V3    O20   S    
O23   C59   S    
C11   H38   S    
O7    V2    S    
C43   C44   A    
C22   C27   S    
C62   H31   S    
C45   C46   A    
O15   C55   A    
C26   H4    S    
C8    C9    A    
V4    O20   S    
C31   C32   S    
C15   C16   A    
C27   H5    S    
C59   H18   S    
O21   C57   S    
C9    C10   A    
C50   O27   S    
C37   H28   S    
C61   H25   S    
C47   C52   A    
C60   H21   S    
