data_mof_unit_58372.cif
_audit_creation_date              2013-03-05T15:45:30-0500
_audit_creation_method            fapswitch 2.2
_symmetry_space_group_name_H-M    P1
_symmetry_Int_Tables_number       1
_space_group_crystal_system       triclinic
_cell_length_a                    9.906478
_cell_length_b                    10.800602
_cell_length_c                    13.440972
_cell_angle_alpha                 94.039682
_cell_angle_beta                  82.689896
_cell_angle_gamma                 108.506103
_cell_volume                      1351.98771929

loop_
_atom_site_label
_atom_site_type_symbol
_atom_site_description
_atom_site_fract_x
_atom_site_fract_y
_atom_site_fract_z
_atom_type_partial_charge
O1    O     O_R   0.426290 0.668220 0.490680 -0.559051
O2    O     O_R   0.659360 0.703290 0.520190 -0.566820
C1    C     C_R   0.551668 0.746093 0.509798 0.776224
O3    O     O_R   0.326580 0.473880 0.629020 -0.499530
O4    O     O_R   0.559660 0.508940 0.658530 -0.569970
C2    C     C_R   0.422658 0.475700 0.689520 0.846256
Cu1   Cu    Cu3+1 0.362000 0.479240 0.482530 1.022221
Cu2   Cu    Cu3+1 0.638000 0.520760 0.517470 1.048141
O5    O     O_R   0.340640 0.296710 0.479810 -0.591016
O6    O     O_R   0.573710 0.331780 0.509320 -0.479475
O7    O     O_R   0.440340 0.491060 0.341470 -0.607750
O8    O     O_R   0.673420 0.526120 0.370980 -0.559272
C3    C     C_R   0.446962 0.254163 0.493241 0.774861
C4    C     C_R   0.577352 0.521533 0.311201 0.825036
C5    C     C_R   0.786582 0.671296 0.067884 -0.026020
C6    C     C_R   0.621933 0.553315 0.205295 -0.065048
C7    C     C_R   0.230977 0.398090 0.836002 0.123408
C8    C     C_R   0.189702 0.404264 0.940287 -0.012604
C9    C     C_R   0.295112 0.452403 0.005559 -0.158347
C10   C     C_R   0.441734 0.484419 0.970982 0.032513
C11   C     C_R   0.484199 0.475419 0.867423 -0.030340
C12   C     C_R   0.548642 0.529041 0.037370 0.044893
C13   C     C_R   0.691192 0.596309 0.999643 0.038379
C14   C     C_R   0.734998 0.571700 0.897928 0.107258
C15   C     C_R   0.631730 0.492163 0.838371 0.146813
C16   C     C_R   0.519034 0.501561 0.138944 -0.233362
C17   C     C_R   0.753472 0.646666 0.171468 0.048632
C18   C     C_R   0.378580 0.446533 0.798247 -0.127707
H1    H     H_    0.417141 0.433390 0.166502 0.157863
H2    H     H_    0.260976 0.466437 0.083999 0.178527
H3    H     H_    0.361128 0.843864 0.601531 0.179141
C19   C     C_2   0.565377 0.886532 0.521548 -0.187445
C20   C     C_2   0.447337 0.917694 0.562257 -0.100072
C21   C     C_2   0.431181 0.114297 0.482460 -0.148584
C22   C     C_2   0.424971 0.046646 0.565119 0.188880
N1    N     N_2   0.845330 0.551960 0.543750 -0.291123
C23   C     C_2   0.927936 0.500669 0.482428 0.048594
N2    N     N_2   0.154690 0.448120 0.456210 -0.295062
C24   C     C_2   0.078605 0.519991 0.500286 0.032978
H4    H     H_    0.880992 0.595600 0.610179 0.228701
I1    I     I_    0.893606 0.763923 0.275666 -0.391337
C25   C     C_2   0.444614 0.060448 0.378143 0.402713
H5    H     H_    0.480816 0.126793 0.316262 0.084019
O9    O     O_2   0.410781 0.943000 0.359548 -0.534114
C26   C     C_2   0.703292 0.984985 0.488127 0.487711
H6    H     H_    0.789048 0.954070 0.446774 0.100980
O10   O     O_2   0.723852 0.100842 0.508466 -0.435865
C27   C     C_2   0.146081 0.639620 0.557181 0.456956
H7    H     H_    0.153063 0.733333 0.528853 0.050238
O11   O     O_2   0.181418 0.634204 0.639856 -0.503799
C28   C     C_2   0.884507 0.437646 0.385408 0.500633
H8    H     H_    0.942618 0.482036 0.316219 0.049256
O12   O     O_2   0.792770 0.331478 0.381398 -0.485101
C29   C     C_2   0.087134 0.317417 0.423570 0.650842
H9    H     H_    0.120600 0.283119 0.349669 0.019328
O13   O     O_2   0.000397 0.240778 0.480831 -0.473040
I2    I     I_    0.956158 0.617334 0.839439 -0.261690
C30   C     C_2   0.907729 0.787363 0.034894 0.464439
H10   H     H_    0.008108 0.812475 0.067371 0.107477
O14   O     O_2   0.894741 0.858433 0.972398 -0.482631
I3    I     I_    0.069910 0.297066 0.739734 -0.139543
C31   C     C_2   0.036389 0.364301 0.982986 0.428486
H11   H     H_    0.951113 0.339729 0.935110 0.126424
O15   O     O_2   0.002567 0.359183 0.073600 -0.546711
I4    I     I_    0.689935 0.339989 0.749677 -0.172628
I5    I     I_    0.337880 0.099823 0.707629 -0.243766

loop_
_geom_bond_atom_site_label_1
_geom_bond_atom_site_label_2
_geom_bond_distance
_ccdc_geom_bond_type
O4    Cu2   1.951947 S    
C28   O12   1.218972 D    
C13   C14   1.413891 A    
H3    C20   1.075247 S    
Cu2   N1    2.045814 S    
C31   H11   1.081736 S    
O2    C1    1.315866 A    
C19   C26   1.479199 S    
C17   I1    2.149728 S    
O5    C3    1.311672 A    
C5    C17   1.413282 A    
C9    C10   1.406188 A    
C21   C25   1.486155 S    
N1    H4    1.029307 S    
Cu2   O8    1.957206 S    
C19   C20   1.356894 D    
C6    C17   1.414608 A    
C5    C13   1.421372 A    
C7    C8    1.412314 A    
C3    C21   1.467126 S    
C23   C24   1.488424 S    
C26   H6    1.084385 S    
C14   C15   1.406755 A    
Cu1   O7    1.951947 S    
C9    H2    1.080824 S    
C12   C13   1.413355 A    
N2    C24   1.309443 D    
C25   O9    1.220926 D    
O3    Cu1   1.957208 S    
O4    C2    1.308550 A    
C27   O11   1.217356 D    
C27   H7    1.085075 S    
C20   C22   1.475307 S    
Cu1   N2    2.045920 S    
C10   C12   1.416344 A    
C21   C22   1.356644 D    
C4    C6    1.466896 S    
C26   O10   1.219103 D    
C6    C16   1.395104 A    
C1    C19   1.478195 S    
C23   C28   1.476748 S    
C5    C30   1.481987 S    
C29   O13   1.218932 D    
C25   H5    1.085733 S    
C30   O14   1.221650 D    
C28   H8    1.085114 S    
Cu1   Cu2   2.723265 S    
C15   I4    2.146068 S    
C10   C11   1.407762 A    
C16   H1    1.081521 S    
O3    C2    1.323025 A    
C8    C9    1.398099 A    
C12   C16   1.392101 A    
O2    Cu2   1.913023 S    
O7    C4    1.308008 A    
Cu1   O5    1.913025 S    
C11   C15   1.420611 A    
C29   H9    1.084477 S    
N1    C23   1.306791 D    
C31   O15   1.221707 D    
C22   I5    2.117135 S    
C7    I3    2.152218 S    
C30   H10   1.084219 S    
O1    Cu1   1.935131 S    
C7    C18   1.425584 A    
C11   C18   1.433902 A    
Cu2   O6    1.935133 S    
C2    C18   1.496911 S    
C8    C31   1.489747 S    
C14   I2    2.142864 S    
O8    C4    1.308751 A    
C24   C27   1.464120 S    
O1    C1    1.305279 A    
O6    C3    1.304374 A    
N2    C29   1.421584 S    
