data_mof_unit_57346.cif
_audit_creation_date              2012-12-10T17:33:02-0500
_audit_creation_method            fapswitch 2.2
_symmetry_space_group_name_H-M    P1
_symmetry_Int_Tables_number       1
_space_group_crystal_system       triclinic
_cell_length_a                    12.362246
_cell_length_b                    13.210056
_cell_length_c                    14.234531
_cell_angle_alpha                 93.732991
_cell_angle_beta                  107.575559
_cell_angle_gamma                 116.730308
_cell_volume                      1923.34716168

loop_
_atom_site_label
_atom_site_type_symbol
_atom_type_description
_atom_site_fract_x
_atom_site_fract_y
_atom_site_fract_z
_atom_type_partial_charge
C1    C     C_R   0.648507 0.713572 0.505330 0.793057
C2    C     C_R   0.888226 0.554935 0.924868 0.096001
C3    C     C_R   0.851708 0.589052 0.001290 0.078448
C4    C     C_R   0.002625 0.543950 0.952678 0.083653
C5    C     C_R   0.069852 0.554904 0.056591 0.059293
C6    C     C_R   0.034057 0.594951 0.130518 -0.103214
C7    C     C_R   0.927193 0.611976 0.103051 -0.136772
C8    C     C_R   0.052600 0.523054 0.880659 -0.185762
C9    C     C_R   0.158329 0.503738 0.908690 -0.164477
C10   C     C_R   0.215696 0.501488 0.008535 0.145497
C11   C     C_R   0.171154 0.525963 0.083230 0.088515
C12   C     C_R   0.619898 0.519135 0.687557 0.829301
C13   C     C_R   0.316515 0.473855 0.034515 -0.142064
C14   C     C_R   0.371562 0.467504 0.133552 -0.158063
C15   C     C_R   0.225646 0.515697 0.181509 -0.173834
C16   C     C_R   0.179996 0.952674 0.421219 0.317820
C17   C     C_R   0.255658 0.159753 0.474267 -0.213741
C18   C     C_R   0.709347 0.921598 0.545834 -0.181292
C19   C     C_R   0.794859 0.038897 0.558489 0.451987
C20   C     C_R   0.902933 0.072033 0.531254 -0.226690
C21   C     C_R   0.923434 0.987566 0.484299 0.069894
C22   C     C_R   0.827814 0.868469 0.461497 0.082403
C23   C     C_R   0.346971 0.284576 0.487765 0.894983
C24   C     C_R   0.038401 0.016443 0.463496 0.062353
C25   C     C_R   0.057195 0.926667 0.424005 0.007989
C26   C     C_R   0.951992 0.813046 0.387061 -0.155754
C27   C     C_R   0.836836 0.786029 0.400786 -0.174639
C28   C     C_R   0.135936 0.131788 0.482112 -0.283567
C29   C     C_R   0.281307 0.069019 0.450848 0.374411
C30   C     C_R   0.727246 0.835383 0.501085 -0.176316
C31   C     C_R   0.255328 0.695563 0.653864 -0.250113
C32   C     C_R   0.656734 0.344374 0.359449 0.464921
C33   C     C_R   0.736643 0.321929 0.319764 0.277599
C34   C     C_R   0.383124 0.485235 0.313256 0.830219
C35   C     C_R   0.872235 0.389183 0.365559 0.233746
C36   C     C_R   0.929693 0.470389 0.459892 -0.139713
C37   C     C_R   0.844253 0.496778 0.493660 0.156291
C38   C     C_R   0.068596 0.531834 0.518997 0.053122
C39   C     C_R   0.120267 0.629056 0.599505 0.152598
C40   C     C_R   0.036996 0.658268 0.626670 -0.267690
C41   C     C_R   0.902549 0.591840 0.577100 -0.119280
C42   C     C_R   0.159044 0.498836 0.505328 0.073415
C43   C     C_R   0.339248 0.664324 0.630138 0.156373
C44   C     C_R   0.694062 0.540157 0.796725 -0.133613
C45   C     C_R   0.325327 0.487530 0.207368 -0.065611
C46   C     C_R   0.739228 0.599352 0.975598 -0.197797
C47   C     C_R   0.660195 0.575433 0.874503 0.388331
C48   C     C_R   0.806252 0.528779 0.823300 -0.284395
Cu1   Cu    Cu3+1 0.416420 0.526630 0.522910 1.007846
Cu2   Cu    Cu3+1 0.583580 0.473370 0.477090 1.014534
H1    H     H_    0.902039 0.641194 0.162103 0.149004
H2    H     H_    0.352052 0.456276 0.978027 0.186618
H3    H     H_    0.957086 0.743919 0.346868 0.184650
H4    H     H_    0.119317 0.202180 0.500976 0.185698
H5    H     H_    0.969270 0.164367 0.549853 0.159075
H6    H     H_    0.756010 0.699188 0.363582 0.170443
H7    H     H_    0.076124 0.731970 0.689113 0.161123
H8    H     H_    0.295853 0.771538 0.714365 0.165132
H9    H     H_    0.126571 0.417037 0.456637 0.182121
H10   H     H_    0.449657 0.446623 0.152141 0.186450
H11   H     H_    0.712026 0.625546 0.034643 0.169786
H12   H     H_    0.826447 0.496508 0.763079 0.185644
H13   H     H_    0.014151 0.523727 0.802088 0.154887
N1    N     N_R   0.290690 0.566960 0.557640 -0.201164
N2    N     N_R   0.709100 0.433710 0.442970 -0.257849
O1    O     O_R   0.545970 0.684450 0.528810 -0.579651
O2    O     O_R   0.687130 0.639470 0.490120 -0.618643
O3    O     O_R   0.519670 0.535100 0.660030 -0.529272
O4    O     O_R   0.660830 0.490120 0.621340 -0.599684
O5    O     O_R   0.312870 0.360530 0.509880 -0.604299
O6    O     O_R   0.454030 0.315550 0.471190 -0.481981
O7    O     O_R   0.339170 0.509880 0.378660 -0.571328
O8    O     O_R   0.480330 0.464900 0.339970 -0.561119
Cl1   Cl    Cl    0.439239 0.096822 0.462293 -0.412409
Cl2   Cl    Cl    0.210242 0.839754 0.385316 -0.581294
H14   H     H_    0.631158 0.898272 0.574078 0.201662
Cl3   Cl    Cl    0.771985 0.145724 0.615812 -0.546542
H15   H     H_    0.443503 0.716941 0.670732 0.156063
H16   H     H_    0.189549 0.526346 0.239125 0.198771
Cl4   Cl    Cl    0.486947 0.260106 0.291774 -0.462612
Cl5   Cl    Cl    0.961195 0.386377 0.289353 -0.604284
Cl6   Cl    Cl    0.665580 0.211828 0.207451 -0.412960
H17   H     H_    0.847919 0.620099 0.605786 0.197169
H18   H     H_    0.193337 0.487651 0.851206 0.178161
Cl7   Cl    Cl    0.520177 0.590160 0.852064 -0.653487
H19   H     H_    0.088523 0.616606 0.210790 0.195919

loop_
_geom_bond_atom_site_label_1
_geom_bond_atom_site_label_2
_ccdc_geom_bond_type
C12   O4    A    
Cu1   O3    S    
C34   O7    A    
C16   Cl2   S    
C17   C29   A    
C35   C36   A    
C4    C8    A    
C35   Cl5   S    
C43   H15   S    
C12   O3    A    
C26   C27   A    
C17   C23   S    
C31   C43   A    
C47   Cl7   S    
C31   H8    S    
C36   C37   A    
Cu2   O4    S    
C5    C11   A    
C3    C7    A    
C5    C6    A    
C41   H17   S    
C18   C19   A    
C19   Cl3   S    
C1    O2    A    
C11   C15   A    
C15   H16   S    
C19   C20   A    
C8    C9    A    
Cu1   O7    S    
C37   N2    A    
C18   C30   A    
C33   Cl6   S    
C44   C47   A    
Cu1   N1    S    
C21   C22   A    
C23   O5    A    
C20   H5    S    
C43   N1    A    
C14   C45   A    
C34   O8    A    
Cu1   O1    S    
C46   H11   S    
C23   O6    A    
C24   C25   A    
Cu2   O8    S    
C39   C40   A    
C28   H4    S    
C27   H6    S    
C29   Cl1   S    
C8    H13   S    
C2    C48   A    
C25   C26   A    
Cu2   O2    S    
C2    C4    A    
Cu2   O6    S    
C32   Cl4   S    
C13   H2    S    
C48   H12   S    
C1    O1    A    
C34   C45   S    
C40   C41   A    
Cu1   O5    S    
C15   C45   A    
C26   H3    S    
C42   N1    A    
C9    C10   A    
C16   C25   A    
C46   C47   A    
C18   H14   S    
C40   H7    S    
C22   C30   A    
C17   C28   A    
C24   C28   A    
C4    C5    A    
C10   C13   A    
C42   H9    S    
C38   C42   A    
C6    C7    A    
C14   H10   S    
C3    C46   A    
C6    H19   S    
C22   C27   A    
C32   C33   A    
C36   C38   A    
C2    C3    A    
C16   C29   A    
C7    H1    S    
C12   C44   S    
C38   C39   A    
C1    C30   S    
C33   C35   A    
C31   C39   A    
C37   C41   A    
Cu2   N2    S    
C10   C11   A    
C9    H18   S    
C20   C21   A    
Cu1   Cu2   S    
C21   C24   A    
C13   C14   A    
C44   C48   A    
C32   N2    A    
