data_mof_unit_30076.cif
_audit_creation_date              2012-12-10T18:19:09-0500
_audit_creation_method            fapswitch 2.2
_symmetry_space_group_name_H-M    P1
_symmetry_Int_Tables_number       1
_space_group_crystal_system       triclinic
_cell_length_a                    14.859171
_cell_length_b                    14.126059
_cell_length_c                    11.513782
_cell_angle_alpha                 90.001247
_cell_angle_beta                  88.620272
_cell_angle_gamma                 90.470859
_cell_volume                      2415.97810441

loop_
_atom_site_label
_atom_site_type_symbol
_atom_type_description
_atom_site_fract_x
_atom_site_fract_y
_atom_site_fract_z
_atom_type_partial_charge
C1    C     C_R   0.327133 0.499803 0.501556 0.930802
C2    C     C_R   0.672991 0.500544 0.498809 0.902033
C3    C     C_R   0.909502 0.510456 0.388109 -0.123716
C4    C     C_R   0.091396 0.530856 0.605496 -0.149099
C5    C     C_R   0.947246 0.559821 0.703376 0.447683
C6    C     C_R   0.054049 0.503744 0.285577 0.409473
C7    C     C_R   0.041086 0.555232 0.707144 0.405832
C8    C     C_R   0.960320 0.509937 0.282802 0.385595
C9    C     C_R   0.558250 0.799330 0.425887 0.517144
C10   C     C_R   0.444516 0.201487 0.576183 0.554672
C11   C     C_R   0.444250 0.797469 0.575739 0.560616
C12   C     C_R   0.552805 0.202202 0.421885 0.555267
C13   C     C_R   0.435414 0.898188 0.567923 -0.196597
C14   C     C_R   0.563180 0.102174 0.431876 -0.201950
C15   C     C_R   0.567547 0.900023 0.437386 -0.151272
C16   C     C_R   0.435043 0.100657 0.567867 -0.196071
C17   C     C_R   0.501170 0.949599 0.502589 -0.060267
C18   C     C_R   0.500024 0.050658 0.501223 -0.069559
C19   C     C_R   0.362585 0.948601 0.620348 0.263384
C20   C     C_R   0.635624 0.053226 0.378352 0.283236
C21   C     C_R   0.639484 0.953488 0.384726 0.267767
C22   C     C_R   0.362802 0.048946 0.621201 0.263686
C23   C     C_R   0.500028 0.499967 0.281991 0.891398
C24   C     C_R   0.499604 0.499989 0.718011 0.921638
C25   C     C_1   0.499937 0.499899 0.161560 -0.166175
C26   C     C_1   0.499435 0.499935 0.838441 -0.200801
C27   C     C_1   0.499730 0.499830 0.059323 0.002256
C28   C     C_1   0.499474 0.499852 0.940679 -0.014909
C29   C     C_R   0.815838 0.496713 0.390394 0.449985
C30   C     C_R   0.184503 0.514711 0.607704 0.510891
C31   C     C_R   0.768675 0.503678 0.496388 -0.174672
C32   C     C_R   0.231667 0.500798 0.502774 -0.170708
C33   C     C_R   0.811015 0.524627 0.599188 -0.264180
C34   C     C_R   0.189748 0.498966 0.396810 -0.260228
C35   C     C_R   0.903656 0.536689 0.599730 -0.015240
C36   C     C_R   0.097223 0.508108 0.392759 0.003447
C37   C     C_R   0.953610 0.524141 0.494941 -0.099806
C38   C     C_R   0.047437 0.522351 0.497588 -0.102382
H1    H     H_    0.770904 0.529781 0.678825 0.182602
H2    H     H_    0.230148 0.490342 0.317803 0.184693
N1    N     N_R   0.500000 0.750030 0.500000 -0.189054
N2    N     N_R   0.500000 0.249970 0.500000 -0.188955
O1    O     O_R   0.367850 0.580280 0.500030 -0.557113
O2    O     O_R   0.632150 0.419720 0.499970 -0.588056
O3    O     O_R   0.632150 0.580280 0.499970 -0.661687
O4    O     O_R   0.367850 0.419720 0.500030 -0.605212
O5    O     O_R   0.500010 0.580270 0.334450 -0.585875
O6    O     O_R   0.499990 0.419730 0.665550 -0.597967
O7    O     O_R   0.499990 0.580270 0.665550 -0.594381
O8    O     O_R   0.500010 0.419730 0.334450 -0.591707
Zn1   Zn    Zn3+2 0.500000 0.607200 0.500000 1.016897
Zn2   Zn    Zn3+2 0.500000 0.392800 0.500000 1.015080
O9    O     O_3   0.769142 0.478236 0.290158 -0.639689
C39   C     C_3   0.770193 0.379742 0.269972 -0.096341
H3    H     H_    0.725451 0.363628 0.196739 0.196391
H4    H     H_    0.745072 0.339234 0.347074 0.208814
H5    H     H_    0.838869 0.355169 0.245135 0.177129
O10   O     O_3   0.231263 0.517615 0.710287 -0.598277
C40   C     C_3   0.233728 0.425246 0.756614 -0.200145
H6    H     H_    0.267211 0.375138 0.695365 0.207934
H7    H     H_    0.164948 0.398835 0.780251 0.187250
H8    H     H_    0.273370 0.426964 0.837021 0.177955
O11   O     O_3   0.899111 0.582108 0.804125 -0.581133
C41   C     C_3   0.867572 0.676094 0.795979 -0.310107
H9    H     H_    0.803475 0.678503 0.748651 0.172214
H10   H     H_    0.917181 0.725468 0.753580 0.154732
H11   H     H_    0.853654 0.703198 0.884917 0.185389
O12   O     O_3   0.103730 0.499428 0.182424 -0.592973
C42   C     C_3   0.106368 0.404447 0.144821 -0.214350
H12   H     H_    0.137500 0.357938 0.210533 0.138311
H13   H     H_    0.148593 0.400721 0.064178 0.192012
H14   H     H_    0.038108 0.377524 0.123799 0.200266
O13   O     O_3   0.081825 0.567749 0.813000 -0.558592
C43   C     C_3   0.111358 0.662602 0.822412 -0.087373
H15   H     H_    0.054081 0.709705 0.844118 0.138210
H16   H     H_    0.147790 0.688355 0.742649 0.186841
H17   H     H_    0.159031 0.667361 0.894896 0.197200
O14   O     O_3   0.919277 0.510776 0.176315 -0.567931
C44   C     C_3   0.908565 0.605742 0.142161 -0.104322
H18   H     H_    0.974962 0.640930 0.125881 0.169674
H19   H     H_    0.868010 0.646346 0.207435 0.130488
H20   H     H_    0.871585 0.606583 0.059758 0.202291
O15   O     O_3   0.580918 0.759351 0.318749 -0.591708
C45   C     C_3   0.662300 0.708385 0.319663 -0.085756
H21   H     H_    0.650258 0.633143 0.299142 0.194664
H22   H     H_    0.700297 0.714927 0.401522 0.157462
H23   H     H_    0.705884 0.733036 0.246074 0.175100
O16   O     O_3   0.398804 0.252556 0.660575 -0.564012
C46   C     C_3   0.440359 0.237465 0.768108 -0.242725
H24   H     H_    0.409701 0.285898 0.833485 0.178305
H25   H     H_    0.513922 0.253323 0.763079 0.153940
H26   H     H_    0.429176 0.163901 0.799814 0.166116
O17   O     O_3   0.396394 0.745164 0.657869 -0.535706
C47   C     C_3   0.435587 0.759859 0.767157 -0.192583
H27   H     H_    0.509205 0.745399 0.764597 0.133834
H28   H     H_    0.403560 0.710228 0.830694 0.201370
H29   H     H_    0.423728 0.832899 0.799582 0.156254
O18   O     O_3   0.593313 0.252969 0.332463 -0.575246
C48   C     C_3   0.546199 0.234433 0.229592 -0.243491
H30   H     H_    0.555865 0.160267 0.199825 0.170541
H31   H     H_    0.573280 0.281657 0.159943 0.180478
H32   H     H_    0.472975 0.249368 0.240565 0.151975
Br1   Br    Br    0.254836 0.882935 0.675900 -0.436322
Br2   Br    Br    0.738331 0.121775 0.311563 -0.451554
Br3   Br    Br    0.755426 0.898661 0.349792 -0.497633
Br4   Br    Br    0.256292 0.113108 0.680153 -0.423609

loop_
_geom_bond_atom_site_label_1
_geom_bond_atom_site_label_2
_ccdc_geom_bond_type
O17   C47   S    
C10   N2    A    
O13   C43   S    
C14   C18   A    
C45   H23   S    
C7    O13   S    
O9    C39   S    
C10   O16   S    
C33   H1    S    
C43   H16   S    
C34   H2    S    
C35   C37   A    
C45   H22   S    
C1    O4    A    
O3    Zn1   S    
O4    Zn2   S    
C5    O11   S    
C42   H13   S    
C3    C29   A    
C12   N2    A    
C30   O10   S    
C19   Br1   S    
C1    O1    A    
C48   H30   S    
C2    O2    A    
O12   C42   S    
O7    Zn1   S    
C43   H17   S    
O8    Zn2   S    
C31   C33   A    
C46   H25   S    
C12   O18   S    
O2    Zn2   S    
C6    O12   S    
C40   H6    S    
C8    O14   S    
C42   H12   S    
C4    C7    A    
C2    O3    A    
C39   H4    S    
C40   H7    S    
C23   O5    A    
C43   H15   S    
C13   C19   A    
C24   O6    A    
C41   H11   S    
C14   C20   A    
C19   C22   A    
C45   H21   S    
C3    C8    A    
C5    C7    A    
O14   C44   S    
C23   O8    A    
C6    C8    A    
C47   H29   S    
O10   C40   S    
C22   Br4   S    
C1    C32   S    
C44   H18   S    
C2    C31   S    
C41   H10   S    
C42   H14   S    
C37   C38   A    
O15   C45   S    
C15   C21   A    
C17   C18   A    
O16   C46   S    
C46   H26   S    
C47   H28   S    
C9    O15   S    
C48   H31   S    
C12   C14   A    
C44   H19   S    
C24   O7    A    
C15   C17   A    
C39   H3    S    
C40   H8    S    
C16   C22   A    
C9    N1    A    
C24   C26   S    
C44   H20   S    
O5    Zn1   S    
C20   Br2   S    
C25   C27   T    
C26   C28   T    
C13   C17   A    
C41   H9    S    
C36   C38   A    
C9    C15   A    
C29   C31   A    
C10   C16   A    
C30   C32   A    
C11   C13   A    
O1    Zn1   S    
C29   O9    S    
C5    C35   A    
C33   C35   A    
C6    C36   A    
C11   N1    A    
C34   C36   A    
C23   C25   S    
C47   H27   S    
C4    C30   A    
O11   C41   S    
O6    Zn2   S    
C48   H32   S    
C20   C21   A    
C3    C37   A    
C16   C18   A    
O18   C48   S    
N2    Zn2   S    
C27   C28   S    
C11   O17   S    
C46   H24   S    
C4    C38   A    
N1    Zn1   S    
C21   Br3   S    
C32   C34   A    
C39   H5    S    
