data_mof_unit_34435.cif
_audit_creation_date              2013-03-05T15:44:21-0500
_audit_creation_method            fapswitch 2.2
_symmetry_space_group_name_H-M    P1
_symmetry_Int_Tables_number       1
_space_group_crystal_system       triclinic
_cell_length_a                    18.84794
_cell_length_b                    18.976532
_cell_length_c                    20.35607
_cell_angle_alpha                 107.247588
_cell_angle_beta                  106.402559
_cell_angle_gamma                 111.204192
_cell_volume                      5828.93481911

loop_
_atom_site_label
_atom_site_type_symbol
_atom_site_description
_atom_site_fract_x
_atom_site_fract_y
_atom_site_fract_z
_atom_type_partial_charge
C1    C     C_R   0.045271 0.089235 0.345942 -0.189250
H1    H     H_    0.065753 0.155291 0.361320 0.126718
N1    N     N_R   0.052580 0.056040 0.395500 -0.057251
C2    C     C_R   0.762205 0.926415 0.506587 -0.130581
H2    H     H_    0.722978 0.860944 0.491551 0.120453
N2    N     N_R   0.834730 0.954500 0.499860 -0.043001
C3    C     C_R   0.837090 0.806885 0.281022 -0.125139
H3    H     H_    0.854951 0.796204 0.235146 0.148900
N3    N     N_R   0.890210 0.849400 0.355780 -0.043565
C4    C     C_R   0.004089 0.237359 0.571357 -0.138127
H4    H     H_    0.981923 0.254722 0.613870 0.093616
N4    N     N_R   0.997110 0.161140 0.539580 -0.045149
C5    C     C_R   0.759715 0.804426 0.346050 -0.047104
H5    H     H_    0.707999 0.793969 0.361810 0.099797
N5    N     N_R   0.841950 0.845400 0.395490 -0.036394
C6    C     C_R   0.082387 0.243456 0.507615 -0.128416
H6    H     H_    0.133573 0.266153 0.492208 0.089032
N6    N     N_R   0.045360 0.165140 0.499870 -0.039940
C7    C     C_R   0.831416 0.066484 0.569446 -0.122193
H7    H     H_    0.856570 0.130165 0.611798 0.097758
N7    N     N_R   0.877490 0.041510 0.539580 -0.046211
C8    C     C_R   0.986182 0.949402 0.281243 0.284126
N8    N     N_R   0.009820 0.969030 0.355780 -0.078789
C9    C     C_R   0.000714 0.022949 0.272769 -0.071163
C10   C     C_R   0.758890 0.995275 0.551496 0.062840
C11   C     C_R   0.754776 0.780434 0.272779 -0.009808
C12   C     C_R   0.059876 0.291455 0.554275 0.081344
C13   C     C_R   0.231024 0.227451 0.644754 -0.208459
H8    H     H_    0.273784 0.252378 0.621481 0.122240
N9    N     N_R   0.158050 0.154600 0.604510 -0.051221
C14   C     C_R   0.940104 0.767210 0.513485 0.277677
N10   N     N_R   0.954640 0.834860 0.500130 -0.081656
C15   C     C_R   0.178322 0.930818 0.475422 -0.076151
H9    H     H_    0.164528 0.866508 0.449163 0.093148
N11   N     N_R   0.122510 0.958490 0.460420 -0.034812
C16   C     C_R   0.987242 0.050848 0.712093 -0.137484
H10   H     H_    0.999718 0.111616 0.749685 0.125501
N12   N     N_R   0.990180 0.030970 0.644220 -0.046869
C17   C     C_R   0.919571 0.911485 0.648147 -0.123997
H11   H     H_    0.874951 0.846417 0.628468 0.156162
N13   N     N_R   0.947420 0.943960 0.604500 -0.042784
C18   C     C_R   0.246569 0.071037 0.542229 -0.121622
H12   H     H_    0.294089 0.135731 0.580491 0.101084
N14   N     N_R   0.165270 0.045500 0.500140 -0.043619
C19   C     C_R   0.153033 0.224904 0.708323 0.249264
N15   N     N_R   0.109790 0.150600 0.644220 -0.069573
C20   C     C_R   0.020432 0.775780 0.451072 -0.182558
H13   H     H_    0.049837 0.758581 0.415438 0.128361
N16   N     N_R   0.002890 0.838860 0.460420 -0.058285
Ni1   Ni    Ni4+2 0.104370 0.104380 0.500010 0.204568
Ni2   Ni    Ni4+2 0.895630 0.895620 0.499990 0.276176
Ni3   Ni    Ni4+2 0.006300 0.904810 0.408930 0.287931
Ni4   Ni    Ni4+2 0.993700 0.095190 0.591070 0.194604
C21   C     C_R   0.230339 0.273578 0.710520 -0.009098
C22   C     C_R   0.989004 0.734341 0.490377 -0.020411
C23   C     C_R   0.256265 0.999700 0.529844 0.044472
C24   C     C_R   0.943189 0.977428 0.716125 0.036447
C25   C     C_R   0.013398 0.674691 0.583174 -0.187647
C26   C     C_R   0.024340 0.687725 0.521486 0.142403
C27   C     C_R   0.076758 0.663509 0.494563 -0.255798
C28   C     C_R   0.110395 0.618956 0.522879 0.137754
C29   C     C_R   0.088562 0.595242 0.576661 0.027622
C30   C     C_R   0.041890 0.625173 0.608627 0.107924
C31   C     C_R   0.159734 0.591877 0.493593 -0.199747
C32   C     C_R   0.178750 0.533248 0.510568 -0.201376
C33   C     C_R   0.146746 0.500377 0.555396 0.139908
C34   C     C_R   0.105698 0.534721 0.592156 0.033795
C35   C     C_R   0.072126 0.500842 0.636255 0.140389
C36   C     C_R   0.033354 0.536949 0.674143 -0.191981
C37   C     C_R   0.019142 0.599825 0.661023 -0.168338
C38   C     C_R   0.144054 0.426237 0.554704 -0.243498
C39   C     C_R   0.094860 0.383100 0.584654 0.096398
C40   C     C_R   0.067664 0.424888 0.632852 -0.271359
H14   H     H_    0.980146 0.700105 0.609635 0.147115
H15   H     H_    0.089712 0.676381 0.449720 0.122739
H16   H     H_    0.178918 0.611835 0.453891 0.129599
H17   H     H_    0.211678 0.508186 0.483146 0.132432
H18   H     H_    0.170176 0.397305 0.521382 0.117133
H19   H     H_    0.034598 0.394572 0.660600 0.126720
H20   H     H_    0.008865 0.512621 0.709489 0.147846
H21   H     H_    0.984603 0.623634 0.687053 0.146379
C41   C     C_R   0.333071 0.919079 0.548459 -0.250994
C42   C     C_R   0.333791 0.996910 0.566952 0.110537
C43   C     C_R   0.410346 0.072126 0.616396 -0.204420
C44   C     C_R   0.486737 0.070764 0.636161 0.080696
C45   C     C_R   0.486081 0.993194 0.607437 0.035081
C46   C     C_R   0.408895 0.916722 0.566863 0.152453
C47   C     C_R   0.563622 0.146297 0.678513 -0.314044
C48   C     C_R   0.639798 0.146588 0.685329 0.342969
C49   C     C_R   0.637316 0.069750 0.645943 -0.045484
C50   C     C_R   0.561347 0.992568 0.611858 0.003611
C51   C     C_R   0.558421 0.915249 0.574248 0.167816
C52   C     C_R   0.483158 0.838908 0.541980 -0.213107
C53   C     C_R   0.408547 0.839630 0.538504 -0.198401
C54   C     C_R   0.705048 0.068924 0.630987 -0.164143
C55   C     C_R   0.697783 0.993099 0.583814 0.089799
C56   C     C_R   0.627592 0.916046 0.561832 -0.255316
H22   H     H_    0.274326 0.860099 0.514438 0.117163
H23   H     H_    0.411789 0.132463 0.634761 0.119077
H24   H     H_    0.564053 0.205466 0.703928 0.181039
H25   H     H_    0.759707 0.128201 0.649479 0.158130
H26   H     H_    0.622491 0.856737 0.528436 0.122682
H27   H     H_    0.480695 0.779077 0.514531 0.136139
H28   H     H_    0.349774 0.780345 0.508615 0.131098
C57   C     C_R   0.291110 0.363475 0.759587 0.145277
C58   C     C_R   0.266226 0.425720 0.765976 -0.182865
C59   C     C_R   0.324948 0.510344 0.815852 -0.151811
C60   C     C_R   0.409661 0.533393 0.856121 0.207847
C61   C     C_R   0.435794 0.472227 0.844577 -0.165473
C62   C     C_R   0.376683 0.387567 0.796891 -0.176007
C63   C     C_R   0.614497 0.673154 0.061382 -0.154196
C64   C     C_R   0.682257 0.704208 0.130902 -0.177024
C65   C     C_R   0.606684 0.748277 0.197792 -0.162465
C66   C     C_R   0.538043 0.716379 0.127605 -0.175084
C67   C     C_R   0.541864 0.679611 0.058815 0.212112
C68   C     C_2   0.470296 0.617781 0.918469 -0.240585
C69   C     C_2   0.465453 0.636229 0.985438 -0.209501
C70   C     C_R   0.679549 0.742610 0.199874 0.139562
H29   H     H_    0.201981 0.409425 0.732558 0.121372
H30   H     H_    0.736120 0.696417 0.130087 0.139755
H31   H     H_    0.602943 0.777959 0.250093 0.116931
H32   H     H_    0.404898 0.603859 0.985953 0.146387
H33   H     H_    0.501280 0.489571 0.875766 0.125536
H34   H     H_    0.618237 0.640797 0.009954 0.119847
H35   H     H_    0.397310 0.340566 0.790492 0.128963
H36   H     H_    0.530418 0.649528 0.917240 0.140183
H37   H     H_    0.304419 0.557407 0.823769 0.130313
H38   H     H_    0.481732 0.719822 0.126932 0.124024
C71   C     C_R   0.955222 0.027730 0.204064 0.183938
C72   C     C_R   0.992242 0.098242 0.191834 -0.161316
C73   C     C_R   0.948040 0.102819 0.127014 -0.181133
C74   C     C_R   0.865903 0.037303 0.074040 0.176978
C75   C     C_R   0.826995 0.969301 0.088916 -0.202572
C76   C     C_R   0.871358 0.964546 0.153459 -0.093306
C77   C     C_R   0.919245 0.036443 0.898062 -0.179048
C78   C     C_R   0.952921 0.037668 0.845832 -0.171689
C79   C     C_R   0.825892 0.908494 0.748284 -0.223330
C80   C     C_R   0.790889 0.906698 0.800562 0.236644
C81   C     C_R   0.838393 0.971503 0.876414 0.130405
C82   C     C_2   0.829269 0.032235 0.997246 0.157073
C83   C     C_2   0.813699 0.964238 0.937605 -0.313235
C84   C     C_R   0.907186 0.973316 0.770960 0.107031
H39   H     H_    0.056235 0.148385 0.231101 0.122462
H40   H     H_    0.015850 0.088031 0.864579 0.126759
H41   H     H_    0.788926 0.859770 0.689720 0.135964
H42   H     H_    0.807179 0.907718 0.944138 0.156732
H43   H     H_    0.763647 0.918254 0.048868 0.126274
H44   H     H_    0.958406 0.084599 0.956720 0.131543
H45   H     H_    0.840291 0.911141 0.163546 0.117160
H46   H     H_    0.980213 0.155166 0.116269 0.117524
N17   N     N_R   0.861055 0.717284 0.512436 0.221600
O1    O     O_R   0.839544 0.641089 0.505175 -0.396193
O2    O     O_R   0.801985 0.738335 0.497837 -0.441610
C85   C     C_3   0.113292 0.257598 0.755541 -0.404652
C86   C     C_3   0.151312 0.265497 0.835898 -0.878651
H47   H     H_    0.147248 0.204877 0.833562 0.252408
H48   H     H_    0.218843 0.315323 0.867285 0.265078
H49   H     H_    0.116442 0.283108 0.867668 0.257271
H50   H     H_    0.121713 0.319725 0.760015 0.186536
H51   H     H_    0.043940 0.216352 0.726392 0.178694
N18   N     N_R   0.717960 0.225173 0.729607 0.234846
O3    O     O_R   0.785215 0.228194 0.773877 -0.410557
O4    O     O_R   0.719066 0.295619 0.734777 -0.389635
C87   C     C_3   0.828093 0.108737 0.988717 -0.340957
C88   C     C_3   0.774540 0.134776 0.023669 -0.854326
H52   H     H_    0.708889 0.081504 0.996090 0.257856
H53   H     H_    0.802313 0.154212 0.086152 0.256775
H54   H     H_    0.772382 0.189011 0.014634 0.260858
H55   H     H_    0.893304 0.162638 0.016753 0.179315
H56   H     H_    0.800689 0.094688 0.927360 0.214445
C89   C     C_3   0.703190 0.835744 0.773676 -0.410779
C90   C     C_3   0.704905 0.753981 0.765950 -0.848081
H57   H     H_    0.727982 0.734072 0.723006 0.265774
H58   H     H_    0.746866 0.762774 0.821915 0.258564
H59   H     H_    0.640012 0.703228 0.746950 0.251790
H60   H     H_    0.675447 0.851511 0.813627 0.203416
H61   H     H_    0.660444 0.825823 0.717442 0.198720
N19   N     N_R   0.980439 0.876183 0.227633 0.219323
O5    O     O_R   0.965599 0.864632 0.157821 -0.399905
O6    O     O_R   0.001772 0.827084 0.251458 -0.412210

loop_
_geom_bond_atom_site_label_1
_geom_bond_atom_site_label_2
_geom_bond_distance
_ccdc_geom_bond_type
C4    C12   1.384799 A    
C64   C70   1.401968 A    
C89   C90   1.525667 S    
C52   C53   1.393229 A    
C22   C26   1.465358 S    
C58   H29   1.078789 S    
C86   H48   1.110946 S    
C81   C83   1.473097 S    
C57   C58   1.405761 A    
N1    N8    1.381032 A    
C54   C55   1.405371 A    
C8    N19   1.434741 S    
C52   H27   1.083731 S    
N18   O3    1.301505 A    
N8    Ni3   1.850422 S    
C77   C78   1.385254 A    
C17   N13   1.341179 A    
C19   N15   1.353556 A    
C60   C61   1.400800 A    
C77   C81   1.405461 A    
N6    Ni1   1.869306 S    
C88   H52   1.111081 S    
C3    C11   1.388088 A    
C24   C84   1.467533 S    
C79   H41   1.082945 S    
C13   H8    1.081891 S    
C7    N7    1.331685 A    
C57   C62   1.398586 A    
C63   C64   1.386121 A    
C65   C66   1.399352 A    
C45   C50   1.400494 A    
C29   C34   1.395850 A    
C58   C59   1.395499 A    
C41   C46   1.392317 A    
C17   C24   1.378833 A    
C46   C53   1.401280 A    
C14   N17   1.437644 S    
C68   C69   1.341518 D    
C1    H1    1.080427 S    
C37   H21   1.083652 S    
C78   C84   1.396441 A    
C18   C23   1.390002 A    
C87   H56   1.111931 S    
C9    C71   1.467536 S    
C7    H7    1.079471 S    
C74   C75   1.402610 A    
C67   C69   1.476872 S    
C59   C60   1.398430 A    
C75   H43   1.083452 S    
N5    Ni2   1.828040 S    
N2    Ni2   1.869169 S    
C56   H26   1.081289 S    
C90   H59   1.110367 S    
C15   C23   1.388191 A    
C33   C34   1.409162 A    
N9    Ni1   1.828040 S    
C53   H28   1.083937 S    
C26   C27   1.404465 A    
C88   H53   1.110818 S    
C68   H36   1.085705 S    
C5    H5    1.080217 S    
C86   H49   1.110235 S    
C41   H22   1.081239 S    
C87   H55   1.109434 S    
C36   C37   1.395153 A    
N3    Ni3   1.840618 S    
C18   N14   1.338685 A    
C48   N18   1.438870 S    
N18   O4    1.301437 A    
N1    Ni1   1.828218 S    
C90   H58   1.110910 S    
C51   C56   1.392099 A    
C66   C67   1.402397 A    
C40   H19   1.081909 S    
C86   H47   1.110485 S    
C79   C84   1.405109 A    
C32   H17   1.083834 S    
C34   C35   1.410069 A    
C20   H13   1.075787 S    
N19   O5    1.300852 A    
C3    H3    1.068259 S    
C82   C83   1.349423 D    
N12   N13   1.381029 A    
C2    N2    1.339152 A    
C16   C24   1.380863 A    
C80   C81   1.412368 A    
C17   H11   1.075926 S    
C64   H30   1.081395 S    
C13   C21   1.371721 A    
C45   C46   1.409950 A    
C35   C36   1.401964 A    
C35   C40   1.392544 A    
C44   C45   1.407544 A    
C76   H45   1.083574 S    
C41   C42   1.405790 A    
C71   C76   1.405084 A    
C27   C28   1.385401 A    
C1    N1    1.339625 A    
C28   C31   1.400475 A    
C69   H32   1.087891 S    
N10   Ni2   1.869306 S    
C85   H51   1.104439 S    
C29   C30   1.409051 A    
C72   H39   1.083229 S    
C66   H38   1.083247 S    
C42   C43   1.403691 A    
C30   C37   1.402191 A    
N17   O1    1.300868 A    
N16   Ni3   1.851133 S    
C55   C56   1.402430 A    
C15   H9    1.071350 S    
C31   H16   1.083899 S    
C43   C44   1.393394 A    
N11   N14   1.381031 A    
C85   C86   1.525308 S    
C47   H24   1.083974 S    
C4    N4    1.336861 A    
C33   C38   1.385051 A    
C10   C55   1.473305 S    
C83   H42   1.087027 S    
C6    N6    1.330118 A    
C19   C21   1.394031 A    
C77   H44   1.083009 S    
C88   H54   1.110431 S    
C5    N5    1.342753 A    
C75   C76   1.392091 A    
C8    C9    1.394853 A    
C5    C11   1.388813 A    
C74   C82   1.477466 S    
C18   H12   1.076845 S    
C73   C74   1.405351 A    
C2    C10   1.389288 A    
C50   C51   1.411914 A    
C90   H57   1.110806 S    
C25   H14   1.082019 S    
C23   C42   1.471341 S    
C20   C22   1.383196 A    
C71   C72   1.399828 A    
C79   C80   1.403799 A    
C44   C47   1.398869 A    
N14   Ni1   1.869167 S    
C25   C30   1.391554 A    
C3    N3    1.340240 A    
C87   C88   1.525484 S    
C21   C57   1.466212 S    
C63   H34   1.081545 S    
C80   C89   1.512223 S    
C43   H23   1.081382 S    
N9    N15   1.374136 A    
C14   N10   1.338506 A    
C61   H33   1.083747 S    
N4    Ni4   1.851133 S    
C39   C40   1.403897 A    
C36   H20   1.083637 S    
C49   C54   1.397784 A    
N19   O6    1.301488 A    
C20   N16   1.328617 A    
C11   C70   1.473682 S    
C89   H60   1.110557 S    
C27   H15   1.080493 S    
C14   C22   1.395170 A    
C31   C32   1.390024 A    
C60   C68   1.460490 S    
C13   N9    1.338143 A    
C72   C73   1.393597 A    
C25   C26   1.405034 A    
C59   H37   1.083142 S    
C85   H50   1.102840 S    
C78   H40   1.083462 S    
C61   C62   1.390747 A    
N7    Ni4   1.841201 S    
N2    N7    1.381029 A    
C49   C50   1.412816 A    
C6    H6    1.079345 S    
N12   Ni4   1.850423 S    
C6    C12   1.380559 A    
N15   Ni4   1.840618 S    
C16   N12   1.342942 A    
C51   C52   1.401901 A    
C15   N11   1.337482 A    
N13   Ni2   1.828218 S    
N17   O2    1.301035 A    
N3    N5    1.374134 A    
C28   C29   1.408210 A    
C7    C10   1.384553 A    
N10   N16   1.373982 A    
C4    H4    1.080146 S    
C62   H35   1.083602 S    
C65   C70   1.405746 A    
C2    H2    1.079861 S    
C65   H31   1.082231 S    
C47   C48   1.400710 A    
C1    C9    1.387263 A    
C16   H10   1.072198 S    
C32   C33   1.400687 A    
N4    N6    1.373983 A    
N11   Ni3   1.841205 S    
C8    N8    1.342548 A    
C89   H61   1.111984 S    
C73   H46   1.081825 S    
C63   C67   1.405931 A    
C19   C85   1.502990 S    
C38   C39   1.402719 A    
C48   C49   1.416811 A    
C82   C87   1.519455 S    
C38   H18   1.080408 S    
C12   C39   1.464280 S    
C54   H25   1.077018 S    
