data_mof_unit_47290.cif
_audit_creation_date              2012-10-26T17:10:33-0400
_audit_creation_method            fapswitch 2.2
_symmetry_space_group_name_H-M    P1
_symmetry_Int_Tables_number       1
_space_group_crystal_system       triclinic
_cell_length_a                    16.872272
_cell_length_b                    16.919311
_cell_length_c                    16.909249
_cell_angle_alpha                 67.356438
_cell_angle_beta                  67.410909
_cell_angle_gamma                 67.419063
_cell_volume                      3952.14492137

loop_
_atom_site_label
_atom_site_type_symbol
_atom_type_description
_atom_site_fract_x
_atom_site_fract_y
_atom_site_fract_z
_atom_type_partial_charge
C1    C     C_R   0.590935 0.044371 0.592556 -0.099436
C2    C     C_R   0.393673 0.005297 0.393912 -0.085671
C3    C     C_R   0.000565 0.609925 0.600190 -0.082786
C4    C     C_R   0.959626 0.410064 0.404047 -0.100637
C5    C     C_R   0.604420 0.596737 0.014446 -0.105416
C6    C     C_R   0.404997 0.400980 0.974853 -0.102360
C7    C     C_R   0.030587 0.828646 0.564128 0.825221
C8    C     C_R   0.978672 0.169871 0.432001 0.869247
C9    C     C_R   0.828787 0.564128 0.030665 0.835781
C10   C     C_R   0.167602 0.429714 0.987086 0.846119
C11   C     C_R   0.565749 0.027118 0.829292 0.875260
C12   C     C_R   0.430319 0.984220 0.168279 0.856039
C13   C     C_R   0.434738 0.170734 0.972018 0.860980
C14   C     C_R   0.569491 0.830990 0.017000 0.864320
C15   C     C_R   0.969260 0.435768 0.170755 0.816065
C16   C     C_R   0.015097 0.570164 0.831515 0.863760
C17   C     C_R   0.171563 0.971435 0.435268 0.830649
C18   C     C_R   0.832097 0.013154 0.570050 0.858078
C19   C     C_R   0.533830 0.048636 0.538673 0.047619
C20   C     C_R   0.442515 0.025839 0.439569 0.074808
C21   C     C_R   0.982444 0.562458 0.550754 0.055507
C22   C     C_R   0.960522 0.467500 0.454433 0.054096
C23   C     C_R   0.554737 0.546523 0.001738 0.043659
C24   C     C_R   0.459520 0.451377 0.979915 0.056082
C25   C     C_R   0.570873 0.054680 0.445895 0.164548
C26   C     C_R   0.396197 0.052273 0.518895 0.156922
C27   C     C_R   0.970249 0.475212 0.591035 0.120291
C28   C     C_R   0.988222 0.547257 0.410069 0.118645
C29   C     C_R   0.462269 0.582082 0.005871 0.126018
C30   C     C_R   0.545245 0.408919 0.995804 0.118132
C31   C     C_R   0.535082 0.021475 0.405928 0.127875
C32   C     C_R   0.444125 0.041904 0.576385 0.095556
C33   C     C_R   0.425671 0.544379 0.971603 0.161250
C34   C     C_R   0.598149 0.462573 0.982862 0.134614
C35   C     C_R   0.935549 0.443451 0.548972 0.135297
C36   C     C_R   0.976709 0.602504 0.461049 0.133354
C37   C     C_R   0.554844 0.071458 0.672489 0.287823
C38   C     C_R   0.416549 0.025955 0.300185 0.318390
C39   C     C_R   0.044571 0.678414 0.554180 0.315028
C40   C     C_R   0.982053 0.315620 0.435608 0.278927
C41   C     C_R   0.677041 0.551776 0.052764 0.316142
C42   C     C_R   0.310262 0.427122 0.005217 0.327496
C43   C     C_R   0.320906 0.966989 0.443122 0.312993
C44   C     C_R   0.685369 0.007989 0.566664 0.331033
C45   C     C_R   0.445377 0.324229 0.942867 0.292542
C46   C     C_R   0.580254 0.691653 0.988110 0.305472
C47   C     C_R   0.935246 0.449539 0.323379 0.326418
C48   C     C_R   0.974889 0.588356 0.695045 0.323826
C49   C     C_R   0.606567 0.036493 0.733419 -0.261696
C50   C     C_R   0.386959 0.986281 0.261213 -0.290439
C51   C     C_R   0.044492 0.731024 0.601551 -0.284164
C52   C     C_R   0.973199 0.265203 0.390110 -0.267187
C53   C     C_R   0.730938 0.601293 0.046811 -0.302713
C54   C     C_R   0.260909 0.386316 0.989763 -0.303668
C55   C     C_R   0.269216 0.961276 0.397417 -0.286724
C56   C     C_R   0.737811 0.012544 0.611742 -0.301758
C57   C     C_R   0.394008 0.266284 0.963753 -0.263541
C58   C     C_R   0.612089 0.736043 0.019984 -0.262827
C59   C     C_R   0.953813 0.397210 0.267439 -0.247869
C60   C     C_R   0.014874 0.614393 0.737280 -0.291849
C61   C     C_R   0.699791 0.007263 0.701762 0.299737
C62   C     C_R   0.310966 0.955295 0.310115 0.272079
C63   C     C_R   0.046770 0.689924 0.690018 0.278237
C64   C     C_R   0.960583 0.305951 0.303720 0.261607
C65   C     C_R   0.690833 0.690583 0.046738 0.265206
C66   C     C_R   0.300836 0.299281 0.983516 0.277995
Cu1   Cu    Cu3+1 0.995180 0.995180 0.424630 0.952748
Cu2   Cu    Cu3+1 0.004820 0.004820 0.575370 0.996742
Cu3   Cu    Cu3+1 0.995180 0.424630 0.995180 0.970340
Cu4   Cu    Cu3+1 0.004820 0.575370 0.004820 0.987990
Cu5   Cu    Cu3+1 0.424630 0.995180 0.995180 0.971762
Cu6   Cu    Cu3+1 0.575370 0.004820 0.004820 0.989853
O1    O     O_R   0.124540 0.978640 0.385460 -0.552431
O2    O     O_R   0.875460 0.021360 0.614540 -0.537588
O3    O     O_R   0.978640 0.385460 0.124540 -0.601782
O4    O     O_R   0.021360 0.614540 0.875460 -0.549774
O5    O     O_R   0.385460 0.124540 0.978640 -0.558376
O6    O     O_R   0.614540 0.875460 0.021360 -0.562040
O7    O     O_R   0.614540 0.021360 0.875460 -0.544551
O8    O     O_R   0.385460 0.978640 0.124540 -0.567523
O9    O     O_R   0.875460 0.614540 0.021360 -0.546253
O10   O     O_R   0.124540 0.385460 0.978640 -0.549211
O11   O     O_R   0.021360 0.875460 0.614540 -0.548225
O12   O     O_R   0.978640 0.124540 0.385460 -0.586657
O13   O     O_R   0.013780 0.867370 0.487190 -0.572316
O14   O     O_R   0.986220 0.132630 0.512810 -0.539005
O15   O     O_R   0.867370 0.487190 0.013780 -0.555510
O16   O     O_R   0.132630 0.512810 0.986220 -0.566814
O17   O     O_R   0.487190 0.013780 0.867370 -0.566800
O18   O     O_R   0.512810 0.986220 0.132630 -0.572673
O19   O     O_R   0.512810 0.132630 0.986220 -0.559539
O20   O     O_R   0.487190 0.867370 0.013780 -0.562816
O21   O     O_R   0.986220 0.512810 0.132630 -0.566819
O22   O     O_R   0.013780 0.487190 0.867370 -0.565251
O23   O     O_R   0.132630 0.986220 0.512810 -0.571655
O24   O     O_R   0.867370 0.013780 0.487190 -0.571950
C67   C     C_3   0.396950 0.019134 0.675070 -0.726775
H1    H     H_    0.359588 0.970712 0.691854 0.206728
H2    H     H_    0.443339 0.985831 0.716810 0.249625
H3    H     H_    0.347953 0.079706 0.693773 0.261085
C68   C     C_3   0.598896 0.978202 0.332909 -0.750102
H4    H     H_    0.661263 0.935312 0.351634 0.210831
H5    H     H_    0.572043 0.933434 0.322972 0.220394
H6    H     H_    0.617067 0.029548 0.269585 0.265472
C69   C     C_3   0.949073 0.702232 0.420093 -0.736778
H7    H     H_    0.893446 0.719496 0.391524 0.197415
H8    H     H_    0.923868 0.739624 0.470012 0.233286
H9    H     H_    0.004805 0.724995 0.364903 0.265446
C70   C     C_3   0.864574 0.395176 0.605991 -0.745621
H10   H     H_    0.808712 0.437747 0.645995 0.196755
H11   H     H_    0.835649 0.381678 0.565223 0.232021
H12   H     H_    0.891306 0.331810 0.652802 0.256616
C71   C     C_3   0.697582 0.431346 0.940932 -0.728791
H13   H     H_    0.708750 0.412616 0.880598 0.189402
H14   H     H_    0.731053 0.484188 0.918518 0.239395
H15   H     H_    0.729752 0.371682 0.987619 0.263715
C72   C     C_3   0.358247 0.606440 0.920178 -0.775032
H16   H     H_    0.385434 0.661711 0.869071 0.203384
H17   H     H_    0.345098 0.572867 0.883537 0.217337
H18   H     H_    0.294587 0.635874 0.965049 0.268851
C73   C     C_3   0.298287 0.100389 0.539310 -0.792112
H19   H     H_    0.289538 0.163969 0.550719 0.199646
H20   H     H_    0.270755 0.118580 0.482855 0.218086
H21   H     H_    0.260251 0.059566 0.599887 0.269680
C74   C     C_3   0.641287 0.103317 0.386329 -0.760672
H22   H     H_    0.616599 0.155898 0.330290 0.198968
H23   H     H_    0.655034 0.137676 0.421793 0.217828
H24   H     H_    0.704380 0.057335 0.357698 0.266461
C75   C     C_3   0.579912 0.309646 0.034625 -0.719407
H25   H     H_    0.604900 0.297504 0.091370 0.197837
H26   H     H_    0.527193 0.275105 0.062185 0.239056
H27   H     H_    0.636324 0.279655 0.984093 0.261554
C76   C     C_3   0.399185 0.653733 0.051380 -0.752047
H28   H     H_    0.339011 0.632304 0.097733 0.210263
H29   H     H_    0.428681 0.665181 0.092977 0.220799
H30   H     H_    0.376936 0.716956 0.001778 0.264344
C77   C     C_3   0.032318 0.575196 0.311005 -0.750668
H31   H     H_    0.088678 0.600511 0.299037 0.204307
H32   H     H_    0.061651 0.518706 0.281485 0.224251
H33   H     H_    0.984469 0.629837 0.275927 0.268780
C78   C     C_3   0.003122 0.409504 0.670142 -0.732402
H34   H     H_    0.042921 0.345452 0.654573 0.200009
H35   H     H_    0.049632 0.430033 0.684895 0.228235
H36   H     H_    0.946154 0.397077 0.729759 0.265142
O25   O     O_3   0.469866 0.127400 0.694362 -0.556982
C79   C     C_3   0.469805 0.214877 0.639791 0.080629
H37   H     H_    0.482287 0.219666 0.568689 0.143105
H38   H     H_    0.521215 0.236759 0.645871 0.128184
C80   C     C_3   0.378771 0.278034 0.669437 -0.798561
H39   H     H_    0.364723 0.275455 0.740066 0.259853
H40   H     H_    0.377742 0.347270 0.627106 0.183505
H41   H     H_    0.326000 0.258796 0.663032 0.244986
O26   O     O_3   0.465758 0.086113 0.246397 -0.554173
C81   C     C_3   0.407636 0.173753 0.231847 0.093575
H42   H     H_    0.335163 0.178839 0.266186 0.090720
H43   H     H_    0.413921 0.201952 0.159302 0.136448
C82   C     C_3   0.435412 0.230971 0.261695 -0.831209
H44   H     H_    0.420057 0.210177 0.335491 0.242335
H45   H     H_    0.508147 0.223775 0.232482 0.251257
H46   H     H_    0.398546 0.302022 0.239655 0.207897
O27   O     O_3   0.093594 0.689531 0.465887 -0.555709
C83   C     C_3   0.182594 0.635415 0.461062 0.096556
H47   H     H_    0.191727 0.581310 0.523621 0.108893
H48   H     H_    0.225445 0.678328 0.445596 0.131822
C84   C     C_3   0.215314 0.591157 0.386844 -0.833332
H49   H     H_    0.202880 0.641518 0.324180 0.251316
H50   H     H_    0.288067 0.557620 0.375177 0.197304
H51   H     H_    0.179723 0.540449 0.406162 0.244369
O28   O     O_3   0.991783 0.274237 0.520461 -0.549482
C85   C     C_3   0.081469 0.250101 0.519571 0.118270
H52   H     H_    0.102087 0.310431 0.505037 0.127189
H53   H     H_    0.126692 0.213228 0.469179 0.114104
C86   C     C_3   0.088480 0.189902 0.612337 -0.770333
H54   H     H_    0.025750 0.208467 0.664239 0.247719
H55   H     H_    0.100353 0.119487 0.615978 0.250453
H56   H     H_    0.142764 0.196576 0.628634 0.185686
O29   O     O_3   0.698354 0.460335 0.089861 -0.553744
C87   C     C_3   0.685439 0.440832 0.182260 0.095362
H57   H     H_    0.616349 0.475799 0.215130 0.114828
H58   H     H_    0.734679 0.460054 0.194939 0.131642
C88   C     C_3   0.698850 0.341024 0.224221 -0.752881
H59   H     H_    0.767410 0.304314 0.193131 0.266862
H60   H     H_    0.689620 0.324503 0.296864 0.199069
H61   H     H_    0.649575 0.319734 0.214247 0.225035
O30   O     O_3   0.266651 0.487129 0.055602 -0.548312
C89   C     C_3   0.240378 0.440372 0.146830 0.099460
H62   H     H_    0.276051 0.367620 0.163262 0.093614
H63   H     H_    0.167746 0.447101 0.166790 0.144359
C90   C     C_3   0.258192 0.480966 0.202249 -0.843058
H64   H     H_    0.331064 0.471649 0.185184 0.249213
H65   H     H_    0.223413 0.553310 0.188506 0.252539
H66   H     H_    0.233756 0.448007 0.274323 0.200662
O31   O     O_3   0.302721 0.932279 0.534601 -0.549137
C91   C     C_3   0.351022 0.841001 0.554748 0.098785
H67   H     H_    0.410598 0.821869 0.499386 0.106181
H68   H     H_    0.305724 0.800293 0.571176 0.136897
C92   C     C_3   0.384571 0.817337 0.634881 -0.837745
H69   H     H_    0.328580 0.837929 0.691179 0.251957
H70   H     H_    0.414940 0.744282 0.656308 0.195635
H71   H     H_    0.436286 0.851446 0.616633 0.248688
O32   O     O_3   0.724673 0.958185 0.506185 -0.551249
C93   C     C_3   0.743921 0.866319 0.552831 0.099942
H72   H     H_    0.704430 0.850993 0.624488 0.107975
H73   H     H_    0.815804 0.840844 0.550465 0.142280
C94   C     C_3   0.723924 0.816288 0.508151 -0.839885
H74   H     H_    0.651175 0.837708 0.514857 0.247180
H75   H     H_    0.761103 0.830163 0.436414 0.250434
H76   H     H_    0.744390 0.743570 0.540042 0.208107
O33   O     O_3   0.534828 0.301835 0.897130 -0.550752
C95   C     C_3   0.545681 0.354839 0.807782 0.080067
H77   H     H_    0.526220 0.426846 0.803587 0.136583
H78   H     H_    0.505141 0.344297 0.775817 0.129054
C96   C     C_3   0.643461 0.328526 0.755938 -0.791440
H79   H     H_    0.664662 0.257259 0.757502 0.261602
H80   H     H_    0.653026 0.370011 0.685486 0.189560
H81   H     H_    0.685693 0.338893 0.785775 0.242487
O34   O     O_3   0.527861 0.742207 0.930110 -0.549716
C97   C     C_3   0.577137 0.730960 0.844330 0.078775
H82   H     H_    0.573977 0.668603 0.839601 0.157633
H83   H     H_    0.648326 0.729639 0.827327 0.103731
C98   C     C_3   0.536808 0.808590 0.775257 -0.831696
H84   H     H_    0.463993 0.817270 0.792795 0.260078
H85   H     H_    0.548462 0.869806 0.772806 0.237755
H86   H     H_    0.569096 0.796387 0.708552 0.201256
O35   O     O_3   0.887437 0.538212 0.301529 -0.559124
C99   C     C_3   0.798096 0.548600 0.356726 0.113498
H87   H     H_    0.787361 0.491827 0.417849 0.120217
H88   H     H_    0.754964 0.555015 0.317789 0.114363
C100  C     C_3   0.766741 0.632215 0.386991 -0.839982
H89   H     H_    0.789246 0.687434 0.331018 0.257802
H90   H     H_    0.692709 0.652521 0.411722 0.195290
H91   H     H_    0.794674 0.618915 0.441979 0.241832
O36   O     O_3   0.906882 0.548344 0.746453 -0.557087
C101  C     C_3   0.823428 0.614322 0.750765 0.098991
H92   H     H_    0.827434 0.684585 0.717215 0.092406
H93   H     H_    0.787604 0.610421 0.822032 0.135074
C102  C     C_3   0.768066 0.595934 0.710235 -0.853618
H94   H     H_    0.802800 0.598434 0.639238 0.249040
H95   H     H_    0.756675 0.529344 0.747031 0.248506
H96   H     H_    0.702743 0.647131 0.713220 0.193986
O37   O     O_3   0.753665 0.969982 0.758889 -0.519239
C103  C     C_3   0.773947 0.876073 0.781191 0.053855
H97   H     H_    0.809462 0.851626 0.720646 0.096259
H98   H     H_    0.711905 0.853920 0.816897 0.117976
C104  C     C_3   0.834735 0.833333 0.842252 -0.624204
H99   H     H_    0.801599 0.856000 0.903629 0.265373
H100  H     H_    0.849572 0.759663 0.861098 0.197601
H101  H     H_    0.898465 0.851975 0.807453 0.256478
O38   O     O_3   0.274365 0.924462 0.271122 -0.528897
C105  C     C_3   0.312699 0.831480 0.286751 0.128701
H102  H     H_    0.291146 0.797100 0.359021 0.105775
H103  H     H_    0.387152 0.814000 0.263824 0.102158
C106  C     C_3   0.282169 0.797832 0.234990 -0.766664
H104  H     H_    0.300793 0.833294 0.162831 0.255340
H105  H     H_    0.315084 0.725430 0.243730 0.182501
H106  H     H_    0.208549 0.809277 0.259587 0.253800
O39   O     O_3   0.074173 0.727025 0.731511 -0.524723
C107  C     C_3   0.167607 0.691880 0.716400 0.124145
H107  H     H_    0.202189 0.714877 0.644392 0.100455
H108  H     H_    0.187569 0.617538 0.738418 0.112184
C108  C     C_3   0.197870 0.723841 0.769769 -0.766276
H109  H     H_    0.164313 0.701224 0.841996 0.259566
H110  H     H_    0.271178 0.695846 0.759050 0.184767
H111  H     H_    0.181043 0.797759 0.748161 0.251376
O40   O     O_3   0.926406 0.267642 0.267875 -0.544737
C109  C     C_3   0.993302 0.208558 0.217878 0.181698
H112  H     H_    0.054605 0.175545 0.240908 0.117440
H113  H     H_    0.015974 0.241812 0.146611 0.166021
C110  C     C_3   0.953579 0.140282 0.219379 -0.757177
H114  H     H_    0.907662 0.172989 0.176199 0.205668
H115  H     H_    0.007725 0.085720 0.193652 0.181784
H116  H     H_    0.914748 0.111069 0.287391 0.278672
O41   O     O_3   0.733405 0.735630 0.063304 -0.532151
C111  C     C_3   0.702542 0.729898 0.155078 0.136052
H117  H     H_    0.732147 0.661834 0.193341 0.133247
H118  H     H_    0.628193 0.745837 0.180361 0.095974
C112  C     C_3   0.731163 0.796535 0.170576 -0.745847
H119  H     H_    0.709239 0.864184 0.126459 0.260297
H120  H     H_    0.699869 0.799190 0.240781 0.178057
H121  H     H_    0.805007 0.776636 0.156371 0.238128
O42   O     O_3   0.248974 0.246982 0.994727 -0.515075
C113  C     C_3   0.221190 0.202148 0.086342 0.127639
H122  H     H_    0.164494 0.248423 0.121782 0.091353
H123  H     H_    0.275580 0.175392 0.119656 0.097388
C114  C     C_3   0.192142 0.123487 0.094862 -0.723321
H124  H     H_    0.246404 0.078394 0.056695 0.277614
H125  H     H_    0.174885 0.084046 0.165683 0.211980
H126  H     H_    0.134006 0.147614 0.067877 0.205248

loop_
_geom_bond_atom_site_label_1
_geom_bond_atom_site_label_2
_ccdc_geom_bond_type
C25   C31   A    
C7    O11   A    
C23   C29   A    
C104  H100  S    
C26   C32   A    
C84   H49   S    
C6    C45   A    
C112  H119  S    
C16   O22   A    
C92   H71   S    
C111  C112  S    
Cu2   O14   S    
O28   C85   S    
C72   H18   S    
C69   H7    S    
C29   C76   S    
C85   C86   S    
C57   C66   A    
Cu4   O16   S    
C78   H35   S    
O25   C79   S    
C97   H82   S    
C80   H39   S    
C21   C36   A    
C88   H59   S    
C34   C71   S    
C33   C72   S    
C22   C35   A    
C69   H8    S    
C10   O16   A    
C59   C64   A    
C114  H124  S    
C93   H73   S    
C60   C63   A    
C98   H85   S    
C31   C68   S    
C41   O29   S    
O39   C107  S    
C98   H86   S    
C64   O40   S    
C70   H11   S    
C106  H104  S    
C94   H76   S    
C91   C92   S    
C13   C57   S    
C85   H52   S    
Cu2   O2    S    
C83   C84   S    
C55   C62   A    
C29   C33   A    
C3    C48   A    
O37   C103  S    
C18   O24   A    
C32   C67   S    
C73   H20   S    
C90   H65   S    
C111  H117  S    
C16   C60   S    
C92   H70   S    
Cu4   O9    S    
C98   H84   S    
C40   O28   S    
C73   H21   S    
Cu6   O6    S    
Cu3   O10   S    
C1    C44   A    
C39   C51   A    
C6    C42   A    
C82   H44   S    
Cu5   O20   S    
C4    C40   A    
C12   C50   S    
C93   C94   S    
C47   O35   S    
C76   H30   S    
C103  H98   S    
C5    C41   A    
Cu3   O3    S    
Cu1   O1    S    
C26   C73   S    
C39   O27   S    
C53   C65   A    
O40   C109  S    
C8    C52   S    
C81   H43   S    
C48   O36   S    
C35   C70   S    
C104  H101  S    
C1    C37   A    
C67   H1    S    
C99   C100  S    
C71   H15   S    
C105  C106  S    
C94   H75   S    
C74   H22   S    
C21   C27   A    
C3    C39   A    
Cu1   O12   S    
C18   O2    A    
C46   O34   S    
O31   C91   S    
C102  H94   S    
C46   C58   A    
C17   O1    A    
C96   H81   S    
C80   H40   S    
C84   H50   S    
C11   O7    A    
C101  H93   S    
C19   C25   A    
C19   C32   A    
Cu5   O8    S    
C67   H2    S    
C48   C60   A    
C79   H38   S    
C88   H60   S    
C61   O37   S    
C102  H95   S    
C14   C58   S    
C77   H33   S    
C13   O5    A    
Cu1   O13   S    
C103  C104  S    
C49   C61   A    
C93   H72   S    
C30   C34   A    
C72   H16   S    
C65   O41   S    
Cu1   Cu2   S    
Cu2   O23   S    
C68   H4    S    
C87   H57   S    
Cu4   O21   S    
C51   C63   A    
C81   C82   S    
O33   C95   S    
Cu3   O22   S    
C52   C64   A    
C80   H41   S    
C108  H110  S    
Cu6   O19   S    
C113  H122  S    
C75   H25   S    
C114  H125  S    
C27   C35   A    
O42   C113  S    
C94   H74   S    
C1    C19   S    
C2    C20   S    
C110  H115  S    
C78   H36   S    
C45   O33   S    
C101  C102  S    
C90   H66   S    
C107  H108  S    
C100  H89   S    
C11   C49   S    
C74   H24   S    
C79   C80   S    
C37   C49   A    
C44   C56   A    
C58   C65   A    
C97   H83   S    
C92   H69   S    
C5    C23   S    
C96   H79   S    
C2    C43   A    
C23   C34   A    
C45   C57   A    
C11   O17   A    
C76   H28   S    
O35   C99   S    
O38   C105  S    
C99   H87   S    
C69   H9    S    
C8    O12   A    
C77   H32   S    
C41   C53   A    
C81   H42   S    
C79   H37   S    
C109  H113  S    
Cu5   O17   S    
C89   H62   S    
C54   C66   A    
C42   O30   S    
C43   C55   A    
C14   O20   A    
O29   C87   S    
C84   H51   S    
C95   H78   S    
C112  H120  S    
C62   O38   S    
Cu1   O24   S    
C50   C62   A    
C70   H12   S    
C107  C108  S    
C9    C53   S    
C101  H92   S    
C89   H63   S    
C30   C75   S    
C91   H68   S    
Cu5   O5    S    
C67   H3    S    
C97   C98   S    
C106  H105  S    
C71   H13   S    
O36   C101  S    
C86   H56   S    
C12   O18   A    
C90   H64   S    
C105  H102  S    
C4    C22   S    
C102  H96   S    
C88   H61   S    
C103  H97   S    
C36   C69   S    
C16   O4    A    
Cu2   O11   S    
C15   C59   S    
C114  H126  S    
C17   O23   A    
C104  H99   S    
C109  C110  S    
Cu3   O15   S    
C15   O21   A    
C108  H111  S    
C87   H58   S    
Cu6   O7    S    
C73   H19   S    
C6    C24   S    
C38   C50   A    
C18   C56   S    
C82   H46   S    
C83   H47   S    
C95   C96   S    
C77   H31   S    
C113  H123  S    
C24   C33   A    
C68   H5    S    
C43   O31   S    
C15   O3    A    
C37   O25   S    
C2    C38   A    
C75   H27   S    
C106  H106  S    
C72   H17   S    
C107  H107  S    
O34   C97   S    
C96   H80   S    
C7    C51   S    
Cu5   Cu6   S    
C100  H90   S    
C83   H48   S    
C40   C52   A    
C78   H34   S    
O27   C83   S    
Cu4   O4    S    
C42   C54   A    
C8    O14   A    
C86   H55   S    
O30   C89   S    
C7    O13   A    
C20   C26   A    
C89   C90   S    
C17   C55   S    
C12   O8    A    
C25   C74   S    
C27   C78   S    
C63   O39   S    
C10   O10   A    
C91   H67   S    
C111  H118  S    
C14   O6    A    
C47   C59   A    
Cu3   Cu4   S    
C10   C54   S    
C24   C30   A    
O26   C81   S    
C110  H116  S    
C87   C88   S    
C3    C21   S    
C109  H112  S    
C86   H54   S    
C100  H91   S    
C75   H26   S    
C13   O19   A    
O32   C93   S    
C28   C36   A    
C113  C114  S    
C82   H45   S    
C95   H77   S    
C28   C77   S    
C112  H121  S    
C70   H10   S    
C74   H23   S    
C76   H29   S    
C108  H109  S    
C56   C61   A    
C66   O42   S    
C22   C28   A    
C68   H6    S    
C85   H53   S    
C38   O26   S    
Cu6   O18   S    
C44   O32   S    
C110  H114  S    
C5    C46   A    
C105  H103  S    
C20   C31   A    
C9    O15   A    
C99   H88   S    
C9    O9    A    
C71   H14   S    
C4    C47   A    
O41   C111  S    
