data_mof_unit_65966.cif
_audit_creation_date              2012-12-10T19:15:29-0500
_audit_creation_method            fapswitch 2.2
_symmetry_space_group_name_H-M    P1
_symmetry_Int_Tables_number       1
_space_group_crystal_system       triclinic
_cell_length_a                    24.373029
_cell_length_b                    24.373409
_cell_length_c                    43.312682
_cell_angle_alpha                 89.999396
_cell_angle_beta                  90.000519
_cell_angle_gamma                 90.002226
_cell_volume                      25730.0634984

loop_
_atom_site_label
_atom_site_type_symbol
_atom_type_description
_atom_site_fract_x
_atom_site_fract_y
_atom_site_fract_z
_atom_type_partial_charge
C1    C     C_R   0.271279 0.228720 0.250000 -0.055232
C2    C     C_R   0.728773 0.228610 0.249967 -0.050742
C3    C     C_R   0.000691 0.500152 0.967712 0.080376
C4    C     C_R   0.999849 0.499310 0.532288 0.080472
C5    C     C_R   0.999676 0.500283 0.467678 0.079856
C6    C     C_R   0.499333 0.000636 0.532323 0.079880
C7    C     C_R   0.500251 0.000822 0.467713 0.080611
C8    C     C_R   0.980578 0.453688 0.385049 0.309690
C9    C     C_R   0.981564 0.546504 0.614858 0.309331
C10   C     C_R   0.546521 0.981478 0.385124 0.307611
C11   C     C_R   0.453669 0.980502 0.614969 0.307874
C12   C     C_R   0.019444 0.546261 0.385060 0.309862
C13   C     C_R   0.771300 0.728700 0.750000 -0.051070
C14   C     C_R   0.019148 0.453417 0.614964 0.306297
C15   C     C_R   0.453436 0.019073 0.385055 0.308096
C16   C     C_R   0.546247 0.019362 0.614921 0.311637
C17   C     C_R   0.480317 0.953873 0.885067 0.313309
C18   C     C_R   0.480866 0.046537 0.114962 0.303683
C19   C     C_R   0.046585 0.480854 0.885037 0.306321
C20   C     C_R   0.953736 0.480557 0.114939 0.309908
C21   C     C_R   0.519639 0.046252 0.885021 0.308448
C22   C     C_R   0.519023 0.953680 0.114883 0.324740
C23   C     C_R   0.953496 0.518436 0.885142 0.309367
C24   C     C_R   0.228692 0.271308 0.250000 -0.050226
C25   C     C_R   0.046312 0.519422 0.114951 0.309675
C26   C     C_R   0.986177 0.451604 0.417272 0.409325
C27   C     C_R   0.987245 0.548394 0.582635 0.409616
C28   C     C_R   0.548492 0.987294 0.417345 0.411046
C29   C     C_R   0.451506 0.986235 0.582747 0.410858
C30   C     C_R   0.013806 0.548310 0.417291 0.411263
C31   C     C_R   0.013516 0.451321 0.582733 0.410694
C32   C     C_R   0.451420 0.013577 0.417286 0.409282
C33   C     C_R   0.548216 0.013855 0.582689 0.409686
C34   C     C_R   0.485729 0.951897 0.917304 0.404473
C35   C     C_R   0.728626 0.228820 0.749978 -0.055234
C36   C     C_R   0.486506 0.048669 0.082742 0.424525
C37   C     C_R   0.048681 0.486485 0.917268 0.410631
C38   C     C_R   0.951688 0.486195 0.082708 0.411087
C39   C     C_R   0.513867 0.048461 0.917238 0.411857
C40   C     C_R   0.513515 0.951801 0.082646 0.328570
C41   C     C_R   0.951606 0.512755 0.917365 0.409262
C42   C     C_R   0.048396 0.513822 0.082728 0.409292
C43   C     C_R   0.999784 0.500018 0.433569 -0.173494
C44   C     C_R   0.000131 0.499727 0.566396 -0.173381
C45   C     C_R   0.500007 0.000692 0.433604 -0.173418
C46   C     C_R   0.271390 0.771227 0.250033 -0.050645
C47   C     C_R   0.499733 0.000340 0.566431 -0.173497
C48   C     C_R   0.499525 0.000308 0.933563 -0.176032
C49   C     C_R   0.499775 0.000213 0.066402 -0.173696
C50   C     C_R   0.000274 0.499870 0.933603 -0.173299
C51   C     C_R   0.999981 0.500216 0.066431 -0.173444
C52   C     C_R   0.499998 0.000043 0.334203 0.854432
C53   C     C_R   0.499999 0.999988 0.665806 0.851822
C54   C     C_R   0.999988 0.499999 0.334194 0.851808
C55   C     C_R   0.000044 0.499998 0.665797 0.854395
C56   C     C_R   0.000002 0.499956 0.834203 0.854384
C57   C     C_R   0.228721 0.271280 0.750000 -0.055413
C58   C     C_R   0.000001 0.500012 0.165806 0.851784
C59   C     C_R   0.500007 0.000000 0.834191 0.851101
C60   C     C_R   0.499963 0.000005 0.165800 0.850392
C61   C     C_R   0.605017 0.104990 0.249992 0.758173
C62   C     C_R   0.394980 0.894995 0.750004 0.755579
C63   C     C_R   0.894992 0.605007 0.250000 0.758425
C64   C     C_R   0.105012 0.394989 0.750000 0.755201
C65   C     C_R   0.395010 0.894984 0.250008 0.757858
C66   C     C_R   0.605005 0.105019 0.749996 0.755615
C67   C     C_R   0.105003 0.394997 0.250000 0.759318
C68   C     C_R   0.771290 0.728710 0.250000 -0.053237
C69   C     C_R   0.894994 0.605006 0.750000 0.751656
C70   C     C_R   0.605007 0.894992 0.750000 0.758417
C71   C     C_R   0.394988 0.105011 0.250000 0.755102
C72   C     C_R   0.894983 0.395010 0.749992 0.758104
C73   C     C_R   0.105019 0.605004 0.250003 0.755581
C74   C     C_R   0.394997 0.105003 0.750000 0.759346
C75   C     C_R   0.605006 0.894995 0.250000 0.751933
C76   C     C_R   0.104990 0.605016 0.750008 0.758129
C77   C     C_R   0.894995 0.394980 0.249996 0.755605
C78   C     C_R   0.999976 0.499994 0.368475 -0.381555
C79   C     C_R   0.302856 0.219712 0.276453 -0.126178
C80   C     C_R   0.000220 0.499970 0.631501 -0.382698
C81   C     C_R   0.499990 0.000211 0.368499 -0.382741
C82   C     C_R   0.499974 0.999967 0.631525 -0.381537
C83   C     C_R   0.499987 0.000031 0.868467 -0.381093
C84   C     C_R   0.499901 0.000046 0.131509 -0.379758
C85   C     C_R   0.000031 0.499780 0.868499 -0.382660
C86   C     C_R   0.000005 0.500025 0.131525 -0.381496
C87   C     C_R   0.049858 0.498460 0.483620 0.363394
C88   C     C_R   0.949562 0.500011 0.516378 0.363324
C89   C     C_R   0.499134 0.950621 0.483656 0.363461
C90   C     C_R   0.696062 0.779234 0.723851 -0.127725
C91   C     C_R   0.499327 0.050927 0.516413 0.363223
C92   C     C_R   0.949473 0.500244 0.483674 0.364217
C93   C     C_R   0.049964 0.500398 0.516259 0.364349
C94   C     C_R   0.499530 0.051019 0.483708 0.364044
C95   C     C_R   0.501105 0.950542 0.516293 0.364385
C96   C     C_R   0.549538 0.998994 0.983633 0.362436
C97   C     C_R   0.449223 0.000635 0.016366 0.316529
C98   C     C_R   0.999602 0.450037 0.983741 0.364355
C99   C     C_R   0.999755 0.550526 0.016326 0.364330
C100  C     C_R   0.449155 0.000781 0.983661 0.377422
C101  C     C_R   0.780296 0.302811 0.276418 -0.126712
C102  C     C_R   0.549620 0.001148 0.016267 0.380161
C103  C     C_R   0.999989 0.550437 0.983622 0.363266
C104  C     C_R   0.001539 0.450142 0.016380 0.363374
C105  C     C_R   0.728710 0.771290 0.750000 -0.053114
C106  C     C_R   0.241141 0.675699 0.740064 -0.128289
C107  C     C_R   0.675324 0.758513 0.259347 -0.126372
C108  C     C_R   0.324322 0.241119 0.739880 -0.127005
C109  C     C_R   0.219861 0.696981 0.276453 -0.126282
C110  C     C_R   0.758750 0.324481 0.740002 -0.125682
C111  C     C_R   0.302811 0.780297 0.723583 -0.126757
C112  C     C_R   0.675698 0.241139 0.259937 -0.128298
C113  C     C_R   0.758511 0.675324 0.740656 -0.126528
C114  C     C_R   0.241120 0.324321 0.260119 -0.127149
C115  C     C_R   0.696981 0.219861 0.723547 -0.126297
C116  C     C_R   0.771374 0.271180 0.249978 -0.055224
C117  C     C_R   0.324483 0.758752 0.259999 -0.126095
C118  C     C_R   0.219715 0.302860 0.723548 -0.126037
C119  C     C_R   0.779235 0.696064 0.276149 -0.127627
C120  C     C_R   0.824678 0.741488 0.759344 -0.126705
C121  C     C_R   0.175677 0.258881 0.239881 -0.127315
C122  C     C_R   0.280139 0.803019 0.776454 -0.126102
C123  C     C_R   0.741250 0.175518 0.240002 -0.125848
C124  C     C_R   0.197143 0.280286 0.776452 -0.126004
C125  C     C_R   0.803935 0.720765 0.223850 -0.127213
C126  C     C_R   0.719705 0.197186 0.776418 -0.126646
C127  C     C_R   0.228610 0.728773 0.750034 -0.050730
C128  C     C_R   0.258859 0.824301 0.240062 -0.129050
C129  C     C_R   0.803018 0.280140 0.223547 -0.126262
C130  C     C_R   0.175517 0.741249 0.759999 -0.125793
C131  C     C_R   0.280287 0.197144 0.223547 -0.126278
C132  C     C_R   0.720767 0.803937 0.776149 -0.127289
C133  C     C_R   0.197188 0.719703 0.223582 -0.127286
C134  C     C_R   0.824302 0.258860 0.759938 -0.128451
C135  C     C_R   0.741488 0.824676 0.240653 -0.126526
C136  C     C_R   0.258880 0.175678 0.760119 -0.127097
C137  C     C_R   0.343676 0.179729 0.276837 0.434139
C138  C     C_R   0.728700 0.771300 0.250000 -0.051073
C139  C     C_R   0.655260 0.819236 0.723468 0.428390
C140  C     C_R   0.820260 0.343649 0.276811 0.431643
C141  C     C_R   0.201249 0.634789 0.739755 0.429467
C142  C     C_R   0.634439 0.798431 0.259670 0.430319
C143  C     C_R   0.365212 0.201203 0.739580 0.428620
C144  C     C_R   0.179836 0.656197 0.276834 0.433900
C145  C     C_R   0.798682 0.365362 0.739718 0.429195
C146  C     C_R   0.343649 0.820262 0.723189 0.431696
C147  C     C_R   0.634788 0.201247 0.260246 0.429536
C148  C     C_R   0.798428 0.634439 0.740333 0.430262
C149  C     C_R   0.271308 0.228692 0.750000 -0.050289
C150  C     C_R   0.201205 0.365211 0.260419 0.428544
C151  C     C_R   0.656198 0.179835 0.723165 0.433955
C152  C     C_R   0.365362 0.798684 0.260284 0.428965
C153  C     C_R   0.179732 0.343679 0.723163 0.434222
C154  C     C_R   0.819236 0.655261 0.276531 0.428361
C155  C     C_R   0.865562 0.701570 0.759667 0.430314
C156  C     C_R   0.134787 0.298796 0.239581 0.428541
C157  C     C_R   0.320165 0.843802 0.776835 0.434038
C158  C     C_R   0.701318 0.134638 0.239717 0.429123
C159  C     C_R   0.156324 0.320269 0.776837 0.434223
C160  C     C_R   0.228821 0.728626 0.250022 -0.055010
C161  C     C_R   0.844737 0.680763 0.223468 0.428330
C162  C     C_R   0.679741 0.156348 0.776811 0.431687
C163  C     C_R   0.298752 0.865211 0.239754 0.428708
C164  C     C_R   0.843801 0.320166 0.223165 0.433977
C165  C     C_R   0.134637 0.701316 0.760283 0.429200
C166  C     C_R   0.320270 0.156325 0.223162 0.434180
C167  C     C_R   0.680766 0.844739 0.776531 0.428430
C168  C     C_R   0.156350 0.679739 0.223189 0.431679
C169  C     C_R   0.865213 0.298753 0.760246 0.429473
C170  C     C_R   0.701570 0.865561 0.240331 0.430486
C171  C     C_R   0.771227 0.271390 0.749968 -0.050745
C172  C     C_R   0.298795 0.134788 0.760419 0.428592
C173  C     C_R   0.352628 0.147372 0.250000 -0.234778
C174  C     C_R   0.647363 0.852637 0.750000 -0.237124
C175  C     C_R   0.852661 0.352590 0.249988 -0.236203
C176  C     C_R   0.147311 0.647392 0.750019 -0.233699
C177  C     C_R   0.647357 0.852644 0.250001 -0.233839
C178  C     C_R   0.352649 0.147350 0.749999 -0.232807
C179  C     C_R   0.147410 0.647338 0.250012 -0.236104
C180  C     C_R   0.852608 0.352689 0.749982 -0.233691
C181  C     C_R   0.352589 0.852662 0.750012 -0.236224
C182  C     C_R   0.271179 0.771374 0.750023 -0.055241
C183  C     C_R   0.647393 0.147311 0.249982 -0.233737
C184  C     C_R   0.852643 0.647356 0.750000 -0.233805
C185  C     C_R   0.147351 0.352649 0.250000 -0.232714
C186  C     C_R   0.647340 0.147409 0.749988 -0.236250
C187  C     C_R   0.352689 0.852608 0.250019 -0.233733
C188  C     C_R   0.147373 0.352629 0.750000 -0.235019
C189  C     C_R   0.852636 0.647362 0.249999 -0.237239
C190  C     C_R   0.499502 0.999996 0.032290 0.073180
C191  C     C_R   0.499368 0.000719 0.967674 0.080476
C192  C     C_R   0.999715 0.500324 0.032322 0.079756
H1    H     H_    0.295780 0.244014 0.297029 0.191883
H2    H     H_    0.665898 0.282354 0.267550 0.188919
H3    H     H_    0.684622 0.059620 0.226349 0.335293
H4    H     H_    0.094011 0.349340 0.800299 0.332007
H5    H     H_    0.907525 0.651981 0.200286 0.336781
H6    H     H_    0.650666 0.094048 0.800288 0.331990
H7    H     H_    0.315398 0.940169 0.226273 0.335761
H8    H     H_    0.906106 0.349302 0.199719 0.332091
H9    H     H_    0.059618 0.684620 0.773652 0.335274
H10   H     H_    0.349340 0.094013 0.199701 0.331749
H11   H     H_    0.651986 0.907528 0.799712 0.336778
H12   H     H_    0.094052 0.650662 0.199711 0.331960
H13   H     H_    0.717084 0.665273 0.733526 0.189795
H14   H     H_    0.940171 0.315400 0.773728 0.336084
H15   H     H_    0.685181 0.940677 0.227050 0.335276
H16   H     H_    0.315553 0.059868 0.773925 0.335867
H17   H     H_    0.282275 0.334095 0.267844 0.189768
H18   H     H_    0.703989 0.244223 0.702985 0.192057
H19   H     H_    0.334325 0.717547 0.267612 0.190879
H20   H     H_    0.244019 0.295785 0.702972 0.192014
H21   H     H_    0.754119 0.702322 0.296499 0.191575
H22   H     H_    0.834730 0.782914 0.766474 0.189746
H23   H     H_    0.165902 0.217727 0.232155 0.189657
H24   H     H_    0.255778 0.796009 0.797016 0.192116
H25   H     H_    0.702319 0.754117 0.703502 0.191434
H26   H     H_    0.782455 0.165677 0.232390 0.190843
H27   H     H_    0.204218 0.255981 0.797028 0.192009
H28   H     H_    0.797676 0.745881 0.203501 0.191788
H29   H     H_    0.744065 0.204235 0.796976 0.192159
H30   H     H_    0.217644 0.834100 0.232449 0.188757
H31   H     H_    0.796009 0.255779 0.202985 0.192056
H32   H     H_    0.165675 0.782453 0.767610 0.190850
H33   H     H_    0.255983 0.204222 0.202971 0.191788
H34   H     H_    0.745885 0.797679 0.796498 0.191646
H35   H     H_    0.204237 0.744062 0.203023 0.191616
H36   H     H_    0.755937 0.295762 0.296976 0.192139
H37   H     H_    0.834103 0.217645 0.767550 0.188881
H38   H     H_    0.782914 0.834726 0.233521 0.189741
H39   H     H_    0.217725 0.165904 0.767845 0.189766
H40   H     H_    0.930425 0.425307 0.354531 0.352418
H41   H     H_    0.931496 0.575685 0.645141 0.347951
H42   H     H_    0.575343 0.931222 0.354825 0.348036
H43   H     H_    0.425639 0.930168 0.645500 0.352440
H44   H     H_    0.069722 0.574427 0.354542 0.351797
H45   H     H_    0.069238 0.424787 0.645421 0.352577
H46   H     H_    0.424456 0.068974 0.354610 0.352526
H47   H     H_    0.282357 0.665900 0.732452 0.188927
H48   H     H_    0.574766 0.069456 0.645425 0.351786
H49   H     H_    0.430235 0.925557 0.854487 0.351557
H50   H     H_    0.430776 0.075190 0.145418 0.351855
H51   H     H_    0.075216 0.430765 0.854580 0.352575
H52   H     H_    0.925569 0.430281 0.145458 0.351789
H53   H     H_    0.570060 0.074057 0.854461 0.352335
H54   H     H_    0.569122 0.924958 0.145299 0.348329
H55   H     H_    0.924315 0.568503 0.854857 0.348013
H56   H     H_    0.074693 0.569575 0.145469 0.352382
H57   H     H_    0.015162 0.342820 0.473045 0.399281
H58   H     H_    0.665272 0.717088 0.266479 0.189800
H59   H     H_    0.018102 0.656549 0.526805 0.399494
H60   H     H_    0.657877 0.020182 0.471793 0.397811
H61   H     H_    0.341452 0.017365 0.528393 0.397530
H62   H     H_    0.982687 0.658164 0.471764 0.397761
H63   H     H_    0.981115 0.341677 0.528350 0.397555
H64   H     H_    0.343015 0.983347 0.473086 0.399274
H65   H     H_    0.656815 0.984763 0.526836 0.399482
H66   H     H_    0.509317 0.844516 0.975100 0.424704
H67   H     H_    0.516352 0.157278 0.027008 0.398911
H68   H     H_    0.158326 0.518885 0.971652 0.397694
H69   H     H_    0.334097 0.282273 0.732154 0.189809
H70   H     H_    0.841832 0.517314 0.028233 0.398104
H71   H     H_    0.483071 0.158641 0.971561 0.397535
H72   H     H_    0.444126 0.881448 0.043788 0.376088
H73   H     H_    0.843449 0.481897 0.973194 0.399723
H74   H     H_    0.157181 0.484837 0.026957 0.399394
H75   H     H_    0.125426 0.474172 0.479410 0.371856
H76   H     H_    0.873263 0.521019 0.521721 0.373971
H77   H     H_    0.475889 0.874723 0.479451 0.371746
H78   H     H_    0.519277 0.127509 0.521753 0.374073
H79   H     H_    0.872869 0.480280 0.478455 0.374028
H80   H     H_    0.244223 0.703989 0.297015 0.192026
H81   H     H_    0.125890 0.523633 0.520332 0.371900
H82   H     H_    0.478509 0.127337 0.478494 0.373968
H83   H     H_    0.525392 0.874948 0.520360 0.372206
H84   H     H_    0.625128 0.974720 0.979505 0.372712
H85   H     H_    0.372897 0.021552 0.021690 0.379429
H86   H     H_    0.976368 0.374112 0.979668 0.371911
H87   H     H_    0.019720 0.627129 0.021544 0.373977
H88   H     H_    0.372554 0.980814 0.978436 0.371218
H89   H     H_    0.625501 0.024549 0.020298 0.370633
H90   H     H_    0.978981 0.626735 0.978277 0.374065
H91   H     H_    0.717544 0.334323 0.732391 0.190899
H92   H     H_    0.025828 0.374576 0.020592 0.371840
H93   H     H_    0.405989 0.150657 0.300299 0.332016
H94   H     H_    0.592470 0.848018 0.700288 0.336775
H95   H     H_    0.849336 0.405948 0.300288 0.331962
H96   H     H_    0.184603 0.559831 0.726274 0.336082
H97   H     H_    0.559323 0.814821 0.272951 0.335220
H98   H     H_    0.440132 0.184443 0.726072 0.335894
H99   H     H_    0.150701 0.593892 0.300281 0.332108
H100  H     H_    0.815376 0.440380 0.726349 0.335264
H101  H     H_    0.405947 0.849338 0.699712 0.331970
H102  H     H_    0.295761 0.755938 0.703024 0.192102
H103  H     H_    0.559830 0.184599 0.273727 0.336098
H104  H     H_    0.814815 0.559322 0.727054 0.335225
H105  H     H_    0.184447 0.440131 0.273926 0.335863
H106  H     H_    0.593893 0.150699 0.699719 0.332106
H107  H     H_    0.440381 0.815381 0.273654 0.335324
H108  H     H_    0.150662 0.405994 0.699703 0.332011
H109  H     H_    0.848016 0.592470 0.299712 0.336805
H110  H     H_    0.940680 0.685182 0.772947 0.335243
H111  H     H_    0.059866 0.315556 0.226074 0.335857
H112  H     H_    0.349300 0.906107 0.800281 0.332065
O1    O     O_3   0.500000 0.000000 0.250000 -0.521150
O2    O     O_R   0.454480 1.000000 0.680700 -0.609528
O3    O     O_2   0.159694 0.480595 0.915232 -0.184575
O4    O     O_3   0.119273 0.521339 0.965493 -0.538286
O5    O     O_2   0.889432 0.417347 0.049309 -0.215584
O6    O     O_2   0.840751 0.478869 0.084609 -0.182326
O7    O     O_3   0.880843 0.520205 0.034415 -0.536584
O8    O     O_2   0.582935 0.110734 0.950488 -0.214080
O9    O     O_2   0.521389 0.159357 0.915177 -0.184911
O10   O     O_3   0.480137 0.119588 0.965473 -0.537417
O11   O     O_2   0.582756 0.889394 0.049746 -0.179067
O12   O     O_2   0.520241 0.840509 0.084199 -0.173189
O13   O     O_R   0.000000 0.545520 0.319300 -0.608978
O14   O     O_3   0.480658 0.881058 0.033771 -0.528519
O15   O     O_2   0.885117 0.581644 0.948053 -0.226016
O16   O     O_2   0.840775 0.512689 0.915457 -0.186709
O17   O     O_3   0.882682 0.480733 0.967285 -0.546368
O18   O     O_2   0.113981 0.583794 0.052202 -0.223774
O19   O     O_2   0.159202 0.515357 0.084760 -0.185372
O20   O     O_3   0.117962 0.483012 0.032840 -0.547434
O21   O     O_3   0.097540 0.493054 0.466627 -0.694977
O22   O     O_3   0.901762 0.501081 0.533512 -0.696411
O23   O     O_3   0.494377 0.902868 0.466665 -0.695870
O24   O     O_R   0.000000 0.454480 0.680700 -0.609608
O25   O     O_3   0.499747 0.098735 0.533548 -0.695485
O26   O     O_3   0.901570 0.499849 0.466622 -0.693718
O27   O     O_3   0.097809 0.505156 0.533169 -0.694427
O28   O     O_3   0.498461 0.098911 0.466656 -0.695001
O29   O     O_3   0.506535 0.902767 0.533201 -0.693295
O30   O     O_3   0.597236 0.993471 0.966665 -0.693735
O31   O     O_3   0.401410 0.001649 0.033489 -0.722653
O32   O     O_3   0.994845 0.402193 0.966832 -0.694423
O33   O     O_3   0.000150 0.598429 0.033376 -0.693609
O34   O     O_3   0.401263 0.000366 0.966601 -0.695786
O35   O     O_R   0.954480 0.500000 0.819300 -0.608287
O36   O     O_3   0.597447 0.006113 0.033173 -0.694471
O37   O     O_3   0.998919 0.598236 0.966487 -0.696380
O38   O     O_3   0.006945 0.402462 0.033374 -0.695002
O39   O     O_3   0.373831 0.174572 0.303733 -0.710806
O40   O     O_3   0.624097 0.823393 0.696884 -0.712323
O41   O     O_3   0.825353 0.373833 0.303700 -0.711752
O42   O     O_3   0.216971 0.583785 0.728905 -0.717472
O43   O     O_3   0.583141 0.782455 0.269951 -0.706070
O44   O     O_3   0.416157 0.216822 0.728592 -0.716899
O45   O     O_3   0.174706 0.625985 0.303712 -0.710360
O46   O     O_R   0.045520 0.500000 0.180700 -0.609804
O47   O     O_3   0.783004 0.416405 0.728901 -0.706093
O48   O     O_3   0.373832 0.825354 0.696299 -0.711602
O49   O     O_3   0.583784 0.216967 0.271097 -0.717421
O50   O     O_3   0.782450 0.583140 0.730055 -0.706064
O51   O     O_3   0.216825 0.416155 0.271406 -0.717041
O52   O     O_3   0.625985 0.174706 0.696288 -0.710492
O53   O     O_3   0.416407 0.783009 0.271102 -0.706270
O54   O     O_3   0.174578 0.373837 0.696269 -0.710500
O55   O     O_3   0.823394 0.624099 0.303116 -0.711986
O56   O     O_3   0.916863 0.717547 0.769945 -0.706093
O57   O     O_R   0.500000 0.954480 0.819300 -0.609095
O58   O     O_3   0.083841 0.283178 0.228594 -0.717162
O59   O     O_3   0.325295 0.874013 0.803712 -0.710261
O60   O     O_3   0.716995 0.083595 0.228900 -0.706181
O61   O     O_3   0.126167 0.325422 0.803732 -0.710497
O62   O     O_3   0.875898 0.676606 0.196883 -0.711774
O63   O     O_3   0.674649 0.126163 0.803700 -0.711366
O64   O     O_3   0.283030 0.916214 0.228902 -0.718408
O65   O     O_3   0.874013 0.325296 0.196288 -0.710324
O66   O     O_3   0.083593 0.716992 0.771100 -0.706147
O67   O     O_3   0.325425 0.126170 0.196267 -0.711317
O68   O     O_R   0.500000 0.045520 0.180700 -0.608781
O69   O     O_3   0.676610 0.875901 0.803115 -0.711845
O70   O     O_3   0.126166 0.674647 0.196299 -0.712132
O71   O     O_3   0.916217 0.283032 0.771097 -0.717539
O72   O     O_3   0.717547 0.916859 0.230050 -0.705987
O73   O     O_3   0.283175 0.083844 0.771406 -0.717001
O74   O     O_R   0.045520 0.500000 0.819300 -0.609590
O75   O     O_R   0.954480 0.500000 0.180700 -0.608938
O76   O     O_R   0.500000 0.045520 0.819300 -0.609528
O77   O     O_3   0.500000 0.000000 0.750000 -0.521328
O78   O     O_R   0.500000 0.954480 0.180700 -0.609554
O79   O     O_R   0.609440 0.064000 0.268180 -0.613914
O80   O     O_R   0.390560 0.936000 0.731820 -0.616225
O81   O     O_R   0.936000 0.609440 0.268180 -0.614028
O82   O     O_R   0.064000 0.390560 0.731820 -0.616933
O83   O     O_R   0.390560 0.936000 0.268180 -0.613667
O84   O     O_R   0.609440 0.064000 0.731820 -0.617787
O85   O     O_R   0.064000 0.390560 0.268180 -0.613902
O86   O     O_R   0.936000 0.609440 0.731820 -0.617084
O87   O     O_R   0.609440 0.936000 0.731820 -0.614003
O88   O     O_3   0.000000 0.500000 0.250000 -0.521302
O89   O     O_R   0.390560 0.064000 0.268180 -0.617050
O90   O     O_R   0.936000 0.390560 0.731820 -0.613983
O91   O     O_R   0.064000 0.609440 0.268180 -0.617712
O92   O     O_R   0.390560 0.064000 0.731820 -0.613927
O93   O     O_R   0.609440 0.936000 0.268180 -0.617006
O94   O     O_R   0.064000 0.609440 0.731820 -0.613893
O95   O     O_R   0.936000 0.390560 0.268180 -0.616262
O96   O     O_R   0.109440 0.564000 0.768180 -0.613916
O97   O     O_R   0.890560 0.436000 0.231820 -0.617643
O98   O     O_R   0.436000 0.109440 0.768180 -0.613944
O99   O     O_3   0.000000 0.500000 0.750000 -0.521450
O100  O     O_R   0.564000 0.890560 0.231820 -0.616812
O101  O     O_R   0.890560 0.436000 0.768180 -0.613826
O102  O     O_R   0.109440 0.564000 0.231820 -0.616239
O103  O     O_R   0.564000 0.890560 0.768180 -0.613831
O104  O     O_R   0.436000 0.109440 0.231820 -0.616879
O105  O     O_R   0.109440 0.436000 0.231820 -0.613888
O106  O     O_R   0.890560 0.564000 0.768180 -0.616964
O107  O     O_R   0.436000 0.890560 0.231820 -0.614731
O108  O     O_R   0.564000 0.109440 0.768180 -0.616087
O109  O     O_R   0.890560 0.564000 0.231820 -0.613901
O110  O     O_R   0.454480 1.000000 0.319300 -0.609844
O111  O     O_R   0.109440 0.436000 0.768180 -0.616898
O112  O     O_R   0.564000 0.109440 0.231820 -0.613854
O113  O     O_R   0.436000 0.890560 0.768180 -0.617622
O114  O     O_3   0.955446 0.410150 0.370422 -0.623648
O115  O     O_3   0.957073 0.590460 0.629417 -0.630763
O116  O     O_3   0.590291 0.956716 0.370540 -0.631491
O117  O     O_3   0.410317 0.955112 0.629620 -0.624415
O118  O     O_3   0.044757 0.589681 0.370431 -0.623929
O119  O     O_3   0.043915 0.409746 0.629645 -0.624470
O120  O     O_3   0.409582 0.043577 0.370398 -0.623752
O121  O     O_R   0.545520 1.000000 0.680700 -0.609254
O122  O     O_3   0.589854 0.044412 0.629525 -0.623187
O123  O     O_3   0.455090 0.910374 0.870452 -0.623386
O124  O     O_3   0.456045 0.090222 0.129612 -0.624951
O125  O     O_3   0.090258 0.456088 0.870356 -0.624432
O126  O     O_3   0.910315 0.455246 0.129568 -0.623849
O127  O     O_3   0.545250 0.089482 0.870375 -0.624439
O128  O     O_3   0.543858 0.909964 0.129482 -0.633815
O129  O     O_3   0.909539 0.542927 0.870581 -0.630590
O130  O     O_3   0.089850 0.544553 0.129578 -0.623733
O131  O     O_2   0.916204 0.386020 0.447798 -0.223529
O132  O     O_R   0.000000 0.454480 0.319300 -0.609797
O133  O     O_2   0.984642 0.340799 0.415241 -0.185523
O134  O     O_3   0.016987 0.382039 0.467161 -0.547486
O135  O     O_2   0.918354 0.614882 0.551944 -0.226754
O136  O     O_2   0.987310 0.659224 0.584541 -0.187359
O137  O     O_3   0.019267 0.617317 0.532714 -0.546376
O138  O     O_2   0.611733 0.919460 0.450815 -0.216999
O139  O     O_2   0.659522 0.981580 0.415458 -0.186920
O140  O     O_3   0.618826 0.022477 0.465611 -0.537240
O141  O     O_2   0.389165 0.917421 0.549377 -0.214344
O142  O     O_2   0.340581 0.978861 0.584764 -0.184700
O143  O     O_R   0.000000 0.545520 0.680700 -0.608317
O144  O     O_3   0.380474 0.020300 0.534548 -0.538332
O145  O     O_2   0.082656 0.610565 0.450690 -0.215617
O146  O     O_2   0.021132 0.659245 0.415389 -0.182984
O147  O     O_3   0.979796 0.619154 0.465583 -0.536903
O148  O     O_2   0.081601 0.388066 0.549440 -0.214402
O149  O     O_2   0.019407 0.340310 0.584770 -0.184917
O150  O     O_3   0.978662 0.380730 0.534508 -0.538339
O151  O     O_2   0.384904 0.082772 0.447728 -0.223803
O152  O     O_2   0.340603 0.013625 0.415244 -0.185823
O153  O     O_3   0.382255 0.982014 0.467203 -0.547436
O154  O     O_R   0.545520 1.000000 0.319300 -0.608052
O155  O     O_2   0.613712 0.083807 0.552084 -0.224818
O156  O     O_2   0.659035 0.015384 0.584607 -0.183443
O157  O     O_3   0.617602 0.983011 0.532740 -0.546243
O158  O     O_2   0.414827 0.886732 0.947366 -0.229410
O159  O     O_2   0.483991 0.841086 0.915487 -0.177792
O160  O     O_3   0.515087 0.882453 0.967577 -0.525179
O161  O     O_2   0.417057 0.115134 0.052441 -0.221763
O162  O     O_2   0.486266 0.159454 0.084874 -0.187368
O163  O     O_3   0.517735 0.118013 0.032833 -0.545464
O164  O     O_2   0.111937 0.418402 0.950562 -0.214398
S1    S     S_3+6 0.974579 0.388193 0.436739 0.120774
S2    S     S_3+6 0.475489 0.112252 0.063351 0.122626
S3    S     S_3+6 0.111900 0.475113 0.936970 0.124372
S4    S     S_3+6 0.888693 0.474034 0.062927 0.125877
S5    S     S_3+6 0.526204 0.111510 0.936929 0.124658
S6    S     S_3+6 0.525686 0.888818 0.062836 0.133884
S7    S     S_3+6 0.888099 0.523355 0.936913 0.119054
S8    S     S_3+6 0.111808 0.525420 0.063261 0.120791
S9    S     S_3+6 0.976644 0.611900 0.563086 0.118482
S10   S     S_3+6 0.611651 0.976111 0.437144 0.122203
S11   S     S_3+6 0.388449 0.974085 0.563025 0.124430
S12   S     S_3+6 0.025968 0.611303 0.437072 0.125459
S13   S     S_3+6 0.024888 0.388103 0.563031 0.124195
S14   S     S_3+6 0.387854 0.024394 0.436735 0.120467
S15   S     S_3+6 0.611567 0.025441 0.563159 0.121799
S16   S     S_3+6 0.473505 0.888637 0.936805 0.128304
Zn1   Zn    Zn3+2 0.500000 0.064990 0.224050 1.017914
Zn2   Zn    Zn3+2 1.000000 0.435010 0.275950 1.018083
Zn3   Zn    Zn3+2 0.435010 1.000000 0.724050 1.018164
Zn4   Zn    Zn3+2 0.564990 0.000000 0.275950 1.018202
Zn5   Zn    Zn3+2 0.000000 0.435010 0.724050 1.017771
Zn6   Zn    Zn3+2 0.000000 0.564990 0.275950 1.017361
Zn7   Zn    Zn3+2 0.564990 1.000000 0.724050 1.017287
Zn8   Zn    Zn3+2 0.435010 0.000000 0.275950 1.017635
Zn9   Zn    Zn3+2 0.500000 0.935010 0.775950 1.017574
Zn10  Zn    Zn3+2 0.935010 0.500000 0.224050 1.017530
Zn11  Zn    Zn3+2 0.064990 0.500000 0.775950 1.017873
Zn12  Zn    Zn3+2 0.500000 0.935010 0.224050 1.016517
Zn13  Zn    Zn3+2 0.500000 0.064990 0.775950 1.018223
Zn14  Zn    Zn3+2 0.064990 0.500000 0.224050 1.018089
Zn15  Zn    Zn3+2 0.935010 0.500000 0.775950 1.018079
Zn16  Zn    Zn3+2 0.000000 0.564990 0.724050 1.017932

loop_
_geom_bond_atom_site_label_1
_geom_bond_atom_site_label_2
_ccdc_geom_bond_type
C99   C103  A    
C19   O125  S    
C96   C102  A    
O68   Zn1   S    
C8    C26   A    
C32   C45   A    
C103  O37   S    
C68   C138  S    
C129  H31   S    
C150  C185  A    
C65   C187  S    
C15   C32   A    
C156  C185  A    
H68   O4    S    
O14   S6    S    
C96   C191  A    
C32   S14   S    
H97   O43   S    
C68   C119  A    
C70   O87   A    
H15   O72   S    
C142  C177  A    
C63   O109  A    
C3    C103  A    
C104  C192  A    
C118  C153  A    
C163  C187  A    
C134  H37   S    
H60   O140  S    
C90   H25   S    
C19   C37   A    
C2    C116  S    
C39   S5    S    
C21   C83   A    
C131  C166  A    
C134  C169  A    
C140  O41   S    
O134  S1    S    
C18   C84   A    
C35   C115  A    
C110  C145  A    
C75   O93   A    
H71   O10   S    
H11   O69   S    
C67   O105  A    
C36   S2    S    
C110  C171  A    
C63   O81   A    
C5    C43   S    
C65   O107  A    
C111  H102  S    
O100  Zn12  S    
O105  Zn14  S    
C66   O108  A    
C152  C187  A    
H55   O129  S    
C136  C149  A    
O103  Zn9   S    
C61   C183  S    
H78   O25   S    
C16   O122  S    
C155  O56   S    
O7    S4    S    
H108  O54   S    
C1    C131  A    
C2    C123  A    
C106  C127  A    
C120  C155  A    
O96   Zn11  S    
C53   C82   S    
C137  C173  A    
O74   Zn11  S    
C74   C178  S    
O135  S9    D    
C46   C160  S    
H51   O125  S    
C167  C174  A    
C79   C137  A    
C123  H26   S    
O80   Zn3   S    
C106  H47   S    
C66   C186  S    
H92   O38   S    
C1    C79   A    
C30   C43   A    
C133  C168  A    
C34   C48   A    
C17   C34   A    
C114  C150  A    
C129  C164  A    
O77   Zn9   S    
O146  S12   D    
O104  Zn1   S    
O3    S3    D    
H82   O28   S    
O82   Zn5   S    
C146  C181  A    
H12   O70   S    
H9    O66   S    
C133  H35   S    
C90   C105  A    
C64   O82   A    
C19   C85   A    
O11   S6    D    
H75   O21   S    
C38   C51   A    
O83   Zn8   S    
H5    O62   S    
O81   Zn6   S    
O161  S2    D    
C23   C41   A    
H84   O30   S    
C133  C160  A    
H7    O64   S    
C107  C138  A    
O1    Zn12  S    
H86   O32   S    
O142  S11   D    
C91   C94   A    
C55   C80   S    
C130  C165  A    
O88   Zn2   S    
O99   Zn16  S    
O98   Zn13  S    
C24   C121  A    
C41   S7    S    
O157  S15   S    
C109  C144  A    
H40   O114  S    
C15   O120  S    
O84   Zn7   S    
H98   O44   S    
O108  Zn13  S    
C115  C151  A    
H45   O119  S    
H46   O120  S    
C169  O71   S    
C67   C185  S    
C113  H13   S    
C57   C118  A    
C62   C181  S    
O149  S13   D    
C151  C186  A    
C24   C114  A    
C37   C50   A    
C121  C156  A    
O88   Zn10  S    
C3    C98   A    
C14   C31   A    
O155  S15   D    
O6    S4    D    
C166  O67   S    
O132  Zn2   S    
C29   C47   A    
C121  H23   S    
C113  C148  A    
C100  O34   S    
H106  O52   S    
H104  O50   S    
C99   C192  A    
C73   O102  A    
C143  C178  A    
C40   C49   A    
C77   O97   A    
C148  O50   S    
C164  C175  A    
C135  C170  A    
O15   S7    D    
C29   S11   S    
H88   O34   S    
C157  O59   S    
C48   C191  S    
C10   O116  S    
H109  O55   S    
C27   C44   A    
C74   O98   A    
H96   O42   S    
C163  O64   S    
C135  H38   S    
C57   C149  S    
H89   O36   S    
C22   O128  S    
C17   O123  S    
O77   Zn13  S    
C18   O124  S    
C141  O42   S    
H65   O157  S    
C158  C183  A    
O150  S13   S    
O75   Zn10  S    
C60   O78   A    
C58   O46   A    
O137  S9    S    
O13   Zn6   S    
C91   O25   S    
C75   C177  S    
C58   C86   S    
C3    C50   S    
H99   O45   S    
C11   C82   A    
C136  H39   S    
C153  O54   S    
H93   O39   S    
C6    C47   S    
C8    C78   A    
C152  O53   S    
C111  C146  A    
C88   O22   S    
C49   C190  S    
C14   O119  S    
C37   S3    S    
H101  O48   S    
O88   Zn6   S    
O89   Zn8   S    
C76   O94   A    
H107  O53   S    
C132  H34   S    
O159  S16   D    
H52   O126  S    
C117  H19   S    
H85   O31   S    
O91   Zn6   S    
C151  O52   S    
O2    Zn3   S    
C70   C174  S    
C112  H2    S    
C64   C188  S    
O99   Zn5   S    
C42   S8    S    
H64   O153  S    
O158  S16   D    
C89   O23   S    
C72   C180  S    
C13   C120  A    
C172  C178  A    
O106  Zn15  S    
C169  C180  A    
C107  H58   S    
O144  S11   S    
H57   O134  S    
O141  S11   D    
C4    C88   A    
O139  S10   D    
C55   O24   A    
C79   H1    S    
C112  C147  A    
C134  C171  A    
C130  H32   S    
O46   Zn14  S    
C12   O118  S    
O94   Zn16  S    
C87   C93   A    
C65   O83   A    
C122  H24   S    
C66   O84   A    
O95   Zn2   S    
C147  O49   S    
C52   C81   S    
C87   O21   S    
C4    C93   A    
C62   O113  A    
C125  H28   S    
C1    C24   S    
C6    C95   A    
C127  C182  S    
O57   Zn9   S    
C25   O130  S    
C139  C174  A    
C30   S12   S    
C158  O60   S    
C68   C125  A    
C115  H18   S    
O140  S10   S    
C35   C171  S    
C132  C167  A    
O78   Zn12  S    
C97   C100  A    
C77   O95   A    
H14   O71   S    
C126  H29   S    
C61   O79   A    
C137  O39   S    
C165  C176  A    
C2    C112  A    
H10   O67   S    
C76   O96   A    
C114  H17   S    
O19   S8    D    
O20   S8    S    
C59   C83   S    
C31   S13   S    
O10   S5    S    
C142  O43   S    
H112  O59   S    
H6    O63   S    
C59   O76   A    
O5    S4    D    
C161  O62   S    
C40   S6    S    
O145  S12   D    
C136  C172  A    
C38   S4    S    
C33   S15   S    
C20   C86   A    
C141  C176  A    
C168  O70   S    
C75   O100  A    
C69   O106  A    
C124  H27   S    
C8    O114  S    
C62   O80   A    
C157  C181  A    
C53   O121  A    
C54   O132  A    
C105  C132  A    
O136  S9    D    
H3    O60   S    
C94   O28   S    
C170  C177  A    
H54   O128  S    
H63   O150  S    
C76   C176  S    
C13   C105  S    
C72   O101  A    
C11   O117  S    
C4    C44   S    
C21   O127  S    
O4    S3    S    
C89   C95   A    
C145  O47   S    
O164  S3    D    
O99   Zn15  S    
O101  Zn15  S    
O97   Zn10  S    
C108  H69   S    
C71   O89   A    
C98   O32   S    
O156  S15   D    
O86   Zn16  S    
C26   S1    S    
C164  O65   S    
C28   S10   S    
O107  Zn12  S    
C119  C154  A    
H66   O160  S    
C41   C50   A    
C9    C27   A    
C106  C141  A    
O17   S7    S    
C118  H20   S    
C10   C28   A    
C7    C94   A    
H76   O22   S    
O148  S13   D    
C166  C173  A    
O121  Zn7   S    
O16   S7    D    
C12   C30   A    
C167  O69   S    
C125  C161  A    
C25   C42   A    
C153  C188  A    
H74   O20   S    
C154  O55   S    
C109  H80   S    
C168  C179  A    
C10   C81   A    
C96   O30   S    
C139  O40   S    
O1    Zn4   S    
C159  O61   S    
O162  S2    D    
C97   O31   S    
C57   C124  A    
C56   C85   S    
C140  C175  A    
C145  C180  A    
C102  C190  A    
C122  C157  A    
C111  C182  A    
H73   O17   S    
C27   S9    S    
H103  O49   S    
O109  Zn10  S    
O163  S2    S    
C46   C117  A    
O92   Zn3   S    
C61   O112  A    
C101  C116  A    
O90   Zn5   S    
C150  O51   S    
O76   Zn13  S    
C18   C36   A    
C108  C143  A    
H48   O122  S    
C36   C49   A    
H72   O14   S    
C39   C48   A    
C54   C78   S    
C55   O143  A    
C135  C138  A    
C34   S16   S    
H41   O115  S    
H42   O116  S    
C71   O104  A    
H70   O7    S    
H53   O127  S    
C90   C139  A    
C104  O38   S    
C15   C81   A    
C170  O72   S    
O93   Zn4   S    
C101  H36   S    
O77   Zn7   S    
O143  Zn16  S    
C7    C45   S    
C46   C128  A    
O1    Zn8   S    
H4    O61   S    
O147  S12   S    
C93   O27   S    
C98   C104  A    
C60   O68   A    
O113  Zn9   S    
C120  H22   S    
C6    C91   A    
C7    C89   A    
C124  C159  A    
O35   Zn15  S    
O24   Zn5   S    
C56   O35   A    
H83   O29   S    
O85   Zn2   S    
C25   C86   A    
O18   S8    D    
O110  Zn8   S    
C70   O103  A    
C88   C92   A    
H95   O41   S    
C12   C78   A    
H59   O137  S    
H105  O51   S    
C54   O13   A    
C14   C80   A    
C146  O48   S    
C42   C51   A    
O138  S10   D    
C77   C175  S    
C52   O110  A    
C144  O45   S    
C64   O111  A    
O8    S5    D    
C101  C140  A    
C26   C43   A    
C52   O154  A    
H67   O163  S    
O153  S14   S    
C28   C45   A    
C23   O129  S    
C31   C44   A    
C116  C129  A    
C172  O73   S    
C161  C189  A    
C99   O33   S    
C128  H30   S    
C162  C186  A    
H44   O118  S    
C155  C184  A    
C110  H91   S    
H77   O23   S    
C143  O44   S    
C63   C189  S    
H110  O56   S    
C128  C163  A    
C71   C173  S    
C156  O58   S    
C17   C83   A    
C9    C80   A    
C22   C84   A    
C159  C188  A    
C35   C126  A    
C69   O86   A    
O12   S6    D    
C16   C33   A    
C20   C38   A    
C131  H33   S    
C21   C39   A    
C144  C179  A    
O102  Zn14  S    
C148  C184  A    
H111  O58   S    
C22   C40   A    
O131  S1    D    
C16   C82   A    
O152  S14   D    
C107  C142  A    
C162  O63   S    
C102  O36   S    
C58   O75   A    
C59   O57   A    
C97   C190  A    
C119  H21   S    
H16   O73   S    
O87   Zn7   S    
C100  C191  A    
H94   O40   S    
C5    C87   A    
O154  Zn4   S    
C147  C183  A    
C9    O115  S    
O111  Zn11  S    
C165  O66   S    
H87   O33   S    
C67   O85   A    
H8    O65   S    
C154  C189  A    
C20   O126  S    
O77   Zn3   S    
C95   O29   S    
H43   O117  S    
C123  C158  A    
O99   Zn11  S    
H61   O144  S    
O88   Zn14  S    
C53   O2    A    
C72   O90   A    
C127  C130  A    
H49   O123  S    
O160  S16   S    
H50   O124  S    
C60   C84   S    
H100  O47   S    
O9    S5    D    
H90   O37   S    
C33   C47   A    
H62   O147  S    
O79   Zn4   S    
C117  C152  A    
O1    Zn1   S    
O151  S14   D    
C5    C92   A    
C69   C184  S    
C108  C149  A    
C73   C179  S    
C122  C182  A    
H79   O26   S    
C92   O26   S    
C11   C29   A    
C23   C85   A    
H81   O27   S    
H56   O130  S    
O112  Zn1   S    
O133  S1    D    
C73   O91   A    
C126  C162  A    
C109  C160  A    
C74   O92   A    
C13   C113  A    
C51   C192  S    
C56   O74   A    
