data_mof_unit_16432.cif
_audit_creation_date              2012-12-11T17:36:08-0500
_audit_creation_method            fapswitch 2.2
_symmetry_space_group_name_H-M    P1
_symmetry_Int_Tables_number       1
_space_group_crystal_system       triclinic
_cell_length_a                    25.795851
_cell_length_b                    6.889938
_cell_length_c                    21.846052
_cell_angle_alpha                 90.000358
_cell_angle_beta                  96.006044
_cell_angle_gamma                 90.0
_cell_volume                      3861.42556979

loop_
_atom_site_label
_atom_site_type_symbol
_atom_type_description
_atom_site_fract_x
_atom_site_fract_y
_atom_site_fract_z
_atom_type_partial_charge
O1    O     O_R   0.208650 0.594520 0.175450 -0.536478
O2    O     O_R   0.791350 0.405480 0.824550 -0.539068
O3    O     O_R   0.291350 0.094520 0.324550 -0.536497
O4    O     O_R   0.708650 0.905480 0.675450 -0.539087
O5    O     O_R   0.192980 0.260780 0.300160 -0.504502
O6    O     O_R   0.807020 0.739220 0.699840 -0.508166
O7    O     O_R   0.307020 0.760780 0.199840 -0.504505
O8    O     O_R   0.692980 0.239220 0.800160 -0.508156
C1    C     C_R   0.178377 0.432179 0.317934 0.717490
C2    C     C_R   0.820832 0.568086 0.680931 0.712548
C3    C     C_R   0.321623 0.932179 0.182067 0.717491
C4    C     C_R   0.679168 0.068087 0.819070 0.712565
O9    O     O_R   0.202550 0.264660 0.174420 -0.540254
O10   O     O_R   0.797450 0.735340 0.825580 -0.535772
O11   O     O_R   0.297450 0.764660 0.325580 -0.540246
O12   O     O_R   0.702550 0.235340 0.674420 -0.535755
O13   O     O_R   0.300990 0.096480 0.197920 -0.551829
O14   O     O_R   0.699010 0.903520 0.802080 -0.547759
O15   O     O_R   0.199010 0.596480 0.302080 -0.551819
O16   O     O_R   0.800990 0.403520 0.697920 -0.547750
C5    C     C_R   0.188984 0.433634 0.152893 0.691790
C6    C     C_R   0.810489 0.565693 0.847606 0.693215
C7    C     C_R   0.311019 0.933635 0.347104 0.691763
C8    C     C_R   0.689513 0.065694 0.652392 0.693240
O17   O     O_3   0.282290 0.427760 0.257860 -0.361413
O18   O     O_3   0.717710 0.572240 0.742140 -0.360113
O19   O     O_3   0.217710 0.927760 0.242140 -0.361392
O20   O     O_3   0.782290 0.072240 0.757860 -0.360113
V1    V     V_3+5 0.244010 0.152080 0.248540 1.474658
V2    V     V_3+5 0.755990 0.847920 0.751460 1.486462
V3    V     V_3+5 0.255990 0.652080 0.251460 1.474671
V4    V     V_3+5 0.744010 0.347920 0.748540 1.486505
C9    C     C_R   0.655005 0.051770 0.593942 -0.239268
C10   C     C_R   0.345842 0.933773 0.405430 -0.219918
C11   C     C_R   0.844995 0.551762 0.906056 -0.239239
C12   C     C_R   0.154165 0.433775 0.094565 -0.219951
C13   C     C_R   0.652038 0.022950 0.482884 0.437903
C14   C     C_R   0.354158 0.809431 0.510199 0.431122
C15   C     C_R   0.847960 0.522672 0.017107 0.437897
C16   C     C_R   0.145861 0.309551 0.989781 0.431162
C17   C     C_R   0.679937 0.043897 0.540450 -0.225352
C18   C     C_R   0.324149 0.853962 0.455576 -0.233261
C19   C     C_R   0.820060 0.543691 0.959544 -0.225342
C20   C     C_R   0.175863 0.354012 0.044415 -0.233203
C21   C     C_R   0.599429 0.034209 0.589663 0.459769
C22   C     C_R   0.400750 0.970972 0.410076 0.396566
C23   C     C_R   0.900574 0.534328 0.910335 0.459754
C24   C     C_R   0.099256 0.470959 0.089915 0.396587
C25   C     C_R   0.571813 0.975336 0.532273 -0.038398
C26   C     C_R   0.432648 0.910096 0.464472 -0.082841
C27   C     C_R   0.928196 0.475358 0.967711 -0.038403
C28   C     C_R   0.067364 0.410149 0.035507 -0.082815
C29   C     C_R   0.597999 0.977064 0.478016 -0.152171
C30   C     C_R   0.408693 0.844563 0.516478 -0.093084
C31   C     C_R   0.902006 0.476895 0.021968 -0.152151
C32   C     C_R   0.091327 0.344726 0.983493 -0.093151
C33   C     C_R   0.517791 0.921480 0.527246 -0.004751
C34   C     C_R   0.488425 0.917470 0.468746 -0.096455
C35   C     C_R   0.982225 0.421585 0.972727 -0.004737
C36   C     C_R   0.011587 0.417472 0.031229 -0.096419
C37   C     C_R   0.516306 0.887208 0.416920 0.324397
C38   C     C_R   0.494411 0.841511 0.577147 0.319497
C39   C     C_R   0.983707 0.387050 0.083048 0.324342
C40   C     C_R   0.005616 0.341793 0.922807 0.319493
C41   C     C_R   0.570543 0.921727 0.421066 0.340006
C42   C     C_R   0.439619 0.815666 0.573237 0.262483
C43   C     C_R   0.929466 0.421478 0.078907 0.340013
C44   C     C_R   0.060410 0.315989 0.926720 0.262386
H1    H     H_    0.282920 0.818749 0.451543 0.155861
H2    H     H_    0.721815 0.064403 0.543123 0.156440
H3    H     H_    0.217092 0.318788 0.048453 0.155861
H4    H     H_    0.778179 0.564095 0.956874 0.156436
C45   C     C_R   0.439061 0.793909 0.095319 0.288372
C46   C     C_R   0.565859 0.209572 0.912439 0.285874
C47   C     C_R   0.060940 0.293903 0.404681 0.288359
C48   C     C_R   0.934129 0.709586 0.587544 0.285871
C49   C     C_R   0.398942 0.781234 0.135363 0.336859
C50   C     C_R   0.605061 0.222775 0.871205 0.326610
C51   C     C_R   0.101060 0.281228 0.364639 0.336831
C52   C     C_R   0.894929 0.722789 0.628780 0.326574
C53   C     C_R   0.364994 0.940942 0.141398 -0.154417
C54   C     C_R   0.637162 0.060036 0.861736 -0.149257
C55   C     C_R   0.135006 0.440941 0.358602 -0.154429
C56   C     C_R   0.862837 0.560036 0.638262 -0.149252
C57   C     C_R   0.372645 0.111933 0.108391 -0.248691
C58   C     C_R   0.629044 0.886806 0.893376 -0.242811
C59   C     C_R   0.127353 0.611936 0.391607 -0.248671
C60   C     C_R   0.870960 0.386797 0.606628 -0.242783
H5    H     H_    0.347554 0.236472 0.112139 0.176884
H6    H     H_    0.653008 0.760510 0.887487 0.179409
H7    H     H_    0.152442 0.736479 0.387857 0.176887
H8    H     H_    0.847001 0.260494 0.612524 0.179428
C61   C     C_R   0.412238 0.125349 0.069616 -0.152995
C62   C     C_R   0.590404 0.873134 0.933443 -0.155428
C63   C     C_R   0.087759 0.625352 0.430380 -0.153003
C64   C     C_R   0.909598 0.373125 0.566559 -0.155429
H9    H     H_    0.416771 0.259532 0.044829 0.170572
H10   H     H_    0.585389 0.736972 0.956948 0.176022
H11   H     H_    0.083223 0.759539 0.455165 0.170577
H12   H     H_    0.914617 0.236955 0.543060 0.176050
C65   C     C_R   0.445444 0.968454 0.062246 0.000663
C66   C     C_R   0.558635 0.032028 0.943534 0.002928
C67   C     C_R   0.054554 0.468453 0.437751 0.000660
C68   C     C_R   0.941360 0.532029 0.556459 0.002924
C69   C     C_1   0.485525 0.990523 0.020500 -0.017736
C70   C     C_1   0.518845 0.008765 0.985602 -0.016765
C71   C     C_1   0.014471 0.490522 0.479495 -0.017736
C72   C     C_1   0.981150 0.508764 0.514392 -0.016770
O21   O     O_3   0.598206 0.884923 0.371311 -0.615493
H13   H     H_    0.574125 0.870985 0.333213 0.335359
O22   O     O_3   0.415582 0.770265 0.625087 -0.623464
H14   H     H_    0.438319 0.808843 0.662391 0.300313
O23   O     O_3   0.901806 0.384506 0.128652 -0.615498
H15   H     H_    0.925886 0.370538 0.166750 0.335359
O24   O     O_3   0.084457 0.270811 0.874859 -0.623500
H16   H     H_    0.061718 0.309453 0.837564 0.300312
O25   O     O_3   0.423198 0.101673 0.371595 -0.543780
C73   C     C_3   0.411901 0.062530 0.308150 0.114158
H17   H     H_    0.376345 0.141911 0.290094 0.135972
H18   H     H_    0.407562 0.904503 0.298012 0.116376
C74   C     C_3   0.455543 0.143752 0.273731 -0.614699
H19   H     H_    0.493405 0.075922 0.290147 0.244567
H20   H     H_    0.447128 0.114961 0.223726 0.171765
H21   H     H_    0.458732 0.303120 0.280910 0.223884
O26   O     O_3   0.569646 0.118396 0.632512 -0.545600
C75   C     C_3   0.585133 0.065260 0.694073 0.136845
H22   H     H_    0.614612 0.169407 0.714558 0.125177
H23   H     H_    0.600395 0.913977 0.698291 0.128912
C76   C     C_3   0.538436 0.082471 0.731053 -0.619948
H24   H     H_    0.503951 0.009313 0.707053 0.230618
H25   H     H_    0.547313 0.013344 0.776765 0.168252
H26   H     H_    0.528715 0.237744 0.737420 0.221183
O27   O     O_3   0.076801 0.601594 0.128412 -0.543778
C77   C     C_3   0.088087 0.562345 0.191851 0.114168
H27   H     H_    0.123639 0.641714 0.209931 0.135911
H28   H     H_    0.092429 0.404303 0.201963 0.116433
C78   C     C_3   0.044433 0.643475 0.226271 -0.614658
H29   H     H_    0.006574 0.575682 0.209819 0.244562
H30   H     H_    0.052831 0.614559 0.276272 0.171758
H31   H     H_    0.041250 0.802864 0.219131 0.223878
O28   O     O_3   0.930345 0.618743 0.867515 -0.545595
C79   C     C_3   0.914884 0.565693 0.805939 0.136833
H32   H     H_    0.885379 0.669771 0.785466 0.125234
H33   H     H_    0.899660 0.414357 0.801684 0.128860
C80   C     C_3   0.961588 0.583183 0.768980 -0.619768
H34   H     H_    0.996101 0.510173 0.792981 0.230580
H35   H     H_    0.952742 0.514076 0.723262 0.168234
H36   H     H_    0.971258 0.738519 0.762633 0.221122
O29   O     O_3   0.679275 0.048667 0.432569 -0.597151
H37   H     H_    0.657790 0.133512 0.403330 0.333069
O30   O     O_3   0.328939 0.719776 0.554945 -0.597939
H38   H     H_    0.348479 0.598804 0.566211 0.332767
O31   O     O_3   0.820716 0.548201 0.067427 -0.597154
H39   H     H_    0.842185 0.633032 0.096686 0.333072
O32   O     O_3   0.171084 0.219903 0.945034 -0.597966
H40   H     H_    0.151502 0.099071 0.933696 0.332795
O33   O     O_3   0.493733 0.792849 0.365014 -0.650095
H41   H     H_    0.465442 0.707571 0.376707 0.294059
O34   O     O_3   0.526533 0.760220 0.624930 -0.647790
H42   H     H_    0.507930 0.653142 0.643592 0.300812
O35   O     O_3   0.006289 0.292622 0.134936 -0.650099
H43   H     H_    0.034584 0.207396 0.123226 0.294067
O36   O     O_3   0.973506 0.260610 0.874994 -0.647813
H44   H     H_    0.992116 0.153594 0.856309 0.300776
O37   O     O_3   0.470734 0.633685 0.090035 -0.659766
H45   H     H_    0.496459 0.659320 0.060519 0.303102
O38   O     O_3   0.535797 0.372241 0.920698 -0.663220
H46   H     H_    0.510979 0.346651 0.951280 0.302187
O39   O     O_3   0.029269 0.133675 0.409966 -0.659770
H47   H     H_    0.003543 0.159311 0.439482 0.303102
O40   O     O_3   0.964182 0.872267 0.579274 -0.663232
H48   H     H_    0.988998 0.846676 0.548689 0.302183
O41   O     O_3   0.392568 0.615952 0.169833 -0.644004
H49   H     H_    0.419142 0.517582 0.162455 0.327487
O42   O     O_3   0.611988 0.391238 0.838519 -0.645488
H50   H     H_    0.585405 0.488886 0.846471 0.326111
O43   O     O_3   0.107436 0.115941 0.330171 -0.643996
H51   H     H_    0.080863 0.017570 0.337548 0.327493
O44   O     O_3   0.887997 0.891265 0.661458 -0.645505
H52   H     H_    0.914587 0.988894 0.653516 0.326098

loop_
_geom_bond_atom_site_label_1
_geom_bond_atom_site_label_2
_ccdc_geom_bond_type
C48   C68   A    
C55   C59   A    
O40   H48   S    
C60   C64   A    
O1    C5    A    
C75   H22   S    
C59   H7    S    
O19   V1    S    
C9    C21   A    
O39   H47   S    
C69   C70   T    
O3    C7    A    
O36   H44   S    
C10   C18   A    
C52   C56   A    
C11   C23   A    
C77   C78   S    
O35   H43   S    
C25   C33   A    
C33   C38   A    
C5    C12   S    
O41   H49   S    
C3    C53   S    
O7    C3    A    
C6    C11   S    
C78   H30   S    
C35   C40   A    
O37   H45   S    
C15   O31   S    
C36   C39   A    
C40   C44   A    
O9    V1    S    
C14   C18   A    
C13   C17   A    
O4    C8    A    
C63   H11   S    
C62   H10   S    
O24   H16   S    
O1    V3    S    
O13   V1    S    
C20   H3    S    
O2    V4    S    
C2    C56   S    
O3    V1    S    
C73   H17   S    
C74   H21   S    
C58   C62   A    
C57   C61   A    
C1    O15   A    
O33   H41   S    
C15   C31   A    
C60   H8    S    
C21   O26   S    
C16   C32   A    
C59   C63   A    
C47   O39   S    
C49   O41   S    
O30   H38   S    
C51   O43   S    
C16   O32   S    
C66   C70   S    
C10   C22   A    
C49   C53   A    
C42   O22   S    
C11   C19   A    
C16   C20   A    
O8    C4    A    
C46   C66   A    
C76   H26   S    
C13   C29   A    
C34   C37   A    
O11   C7    A    
O26   C75   S    
O15   V3    S    
C35   C36   A    
O12   C8    A    
C47   C67   A    
C79   C80   S    
O28   C79   S    
O10   V2    S    
C40   O36   S    
C46   O38   S    
C80   H35   S    
C63   C67   A    
C53   C57   A    
C80   H34   S    
O5    V1    S    
C65   C69   S    
C78   H31   S    
C39   C43   A    
O7    V3    S    
C38   C42   A    
O19   V3    S    
C26   C34   A    
C52   O44   S    
C56   C60   A    
C24   O27   S    
O20   V4    S    
C45   O37   S    
C58   H6    S    
C2    O16   A    
O38   H46   S    
C57   H5    S    
O18   V4    S    
C23   C27   A    
C75   C76   S    
C54   C58   A    
C18   H1    S    
C22   O25   S    
C73   C74   S    
O8    V4    S    
C48   O40   S    
O5    C1    A    
C37   O33   S    
C50   C54   A    
C31   C43   A    
O34   H42   S    
C14   C30   A    
C21   C25   A    
C71   C72   T    
C7    C10   S    
O9    C5    A    
C26   C30   A    
C41   O21   S    
C74   H19   S    
C1    C55   S    
O14   V2    S    
O6    V2    S    
O18   V2    S    
C64   C68   A    
C50   O42   S    
C79   H33   S    
C12   C20   A    
C27   C35   A    
C61   C65   A    
C4    C54   S    
C61   H9    S    
C14   O30   S    
C68   C72   S    
C80   H36   S    
C29   C41   A    
O23   H15   S    
O16   V4    S    
C39   O35   S    
C19   H4    S    
C23   O28   S    
C3    O13   A    
C75   H23   S    
O22   H14   S    
C79   H32   S    
O17   V3    S    
C48   C52   A    
C13   O29   S    
O6    C2    A    
C77   H28   S    
O11   V3    S    
C77   H27   S    
C30   C42   A    
O12   V4    S    
C78   H29   S    
C22   C26   A    
O25   C73   S    
C8    C9    S    
C9    C17   A    
O2    C6    A    
O20   V2    S    
C76   H24   S    
O42   H50   S    
C32   C44   A    
O29   H37   S    
O17   V1    S    
C51   C55   A    
O10   C6    A    
C33   C34   A    
O27   C77   S    
C25   C29   A    
C64   H12   S    
C45   C65   A    
C12   C24   A    
C27   C31   A    
C43   O23   S    
C73   H18   S    
C74   H20   S    
C44   O24   S    
O44   H52   S    
C37   C41   A    
C24   C28   A    
C15   C19   A    
C28   C36   A    
O43   H51   S    
C46   C50   A    
C4    O14   A    
O32   H40   S    
C45   C49   A    
C38   O34   S    
C67   C71   S    
O31   H39   S    
O21   H13   S    
C47   C51   A    
O4    V2    S    
C28   C32   A    
C62   C66   A    
C17   H2    S    
C76   H25   S    
