data_mof_unit_11267.cif
_audit_creation_date              2012-12-11T14:48:14-0500
_audit_creation_method            fapswitch 2.2
_symmetry_space_group_name_H-M    P1
_symmetry_Int_Tables_number       1
_space_group_crystal_system       triclinic
_cell_length_a                    11.624171
_cell_length_b                    11.634875
_cell_length_c                    19.486759
_cell_angle_alpha                 90.905512
_cell_angle_beta                  90.011884
_cell_angle_gamma                 59.344575
_cell_volume                      2266.81081962

loop_
_atom_site_label
_atom_site_type_symbol
_atom_type_description
_atom_site_fract_x
_atom_site_fract_y
_atom_site_fract_z
_atom_type_partial_charge
C1    C     C_R   0.640426 0.117981 0.599029 0.552029
C2    C     C_1   0.652309 0.150840 0.668481 0.010039
C3    C     C_R   0.556082 0.807732 0.285989 0.339137
C4    C     C_R   0.612424 0.746544 0.598519 0.548028
C5    C     C_R   0.570215 0.779621 0.216574 0.467704
C6    C     C_R   0.674313 0.656618 0.194171 0.029808
C7    C     C_R   0.774195 0.569592 0.239529 -0.051586
C8    C     C_R   0.754296 0.593185 0.309205 0.356970
C9    C     C_R   0.641273 0.709281 0.331900 0.024695
C10   C     C_R   0.137015 0.292739 0.306779 0.411753
C11   C     C_R   0.142414 0.301182 0.236275 0.179525
C12   C     C_1   0.641438 0.704358 0.667873 0.014172
C13   C     C_R   0.144527 0.199278 0.193972 -0.054652
C14   C     C_R   0.171106 0.077808 0.224697 0.201672
C15   C     C_R   0.184370 0.065667 0.295782 -0.110504
C16   C     C_R   0.241011 0.145946 0.597977 0.545467
C17   C     C_R   0.172971 0.170615 0.336571 -0.016588
C18   C     C_R   0.735391 0.006738 0.275143 0.210929
C19   C     C_R   0.724781 0.036094 0.204660 0.225105
C20   C     C_R   0.653037 0.171386 0.185306 -0.025885
C21   C     C_R   0.556639 0.266553 0.231850 0.190121
C22   C     C_R   0.534328 0.223540 0.293656 -0.121240
C23   C     C_1   0.127277 0.197631 0.859470 0.015703
C24   C     C_R   0.632446 0.101211 0.320219 -0.057433
C25   C     C_R   0.081998 0.230774 0.928833 0.549777
C26   C     C_R   0.683760 0.604090 0.929596 0.535282
C27   C     C_R   0.708201 0.206419 0.930372 0.549521
C28   C     C_R   0.621152 0.078910 0.394076 0.597439
C29   C     C_R   0.084907 0.235539 0.125127 0.568846
C30   C     C_R   0.682908 0.612850 0.124742 0.621436
C31   C     C_R   0.704087 0.209094 0.125098 0.596660
C32   C     C_R   0.616941 0.739846 0.402782 0.643137
C33   C     C_R   0.238981 0.142913 0.403150 0.618400
C34   C     C_1   0.171175 0.171258 0.727599 -0.026325
C35   C     C_1   0.669916 0.646400 0.860279 0.017283
C36   C     C_1   0.654801 0.684009 0.728394 -0.026627
C37   C     C_1   0.663116 0.666812 0.799778 -0.024698
C38   C     C_1   0.150471 0.181775 0.798939 -0.025382
C39   C     C_1   0.194773 0.162586 0.667160 0.014332
C40   C     C_1   0.678651 0.190523 0.861049 0.016237
C41   C     C_1   0.657904 0.167991 0.729050 -0.026870
C42   C     C_1   0.665414 0.180685 0.800495 -0.025267
Cr1   Cr    Cr6+3 0.404720 0.198220 0.499960 1.108665
Cr2   Cr    Cr6+3 0.698290 0.897110 0.500380 1.135924
Cr3   Cr    Cr6+3 0.396970 0.904720 0.499610 1.077215
Cr4   Cr    Cr6+3 0.926180 0.152240 0.028110 1.167059
Cr5   Cr    Cr6+3 0.921340 0.452070 0.027460 1.131103
Cr6   Cr    Cr6+3 0.626260 0.447120 0.028700 1.162480
F1    F     F_    0.463311 0.931524 0.308769 -0.648112
F2    F     F_    0.489913 0.873619 0.171356 -0.533705
F3    F     F_    0.840494 0.501932 0.354070 -0.576132
F4    F     F_    0.110064 0.400486 0.346926 -0.496847
H1    H     H_    0.454000 0.296090 0.326370 0.229698
H2    H     H_    0.858639 0.476026 0.221324 0.156393
H3    H     H_    0.212425 0.971124 0.319032 0.188480
H4    H     H_    0.681798 0.865136 0.057651 0.365571
H5    H     H_    0.710317 0.372169 0.260317 0.331482
H6    H     H_    0.201153 0.578725 0.252780 0.413371
H7    H     H_    0.235981 0.783005 0.251697 0.362158
H8    H     H_    0.045654 0.864123 0.372550 0.359318
O1    O     O_R   0.267740 0.231990 0.575440 -0.497616
O2    O     O_R   0.596140 0.579600 0.952720 -0.497135
O3    O     O_R   0.639070 0.321380 0.958660 -0.500892
O4    O     O_R   0.527280 0.186680 0.570530 -0.493652
O5    O     O_R   0.821240 0.124490 0.104360 -0.439092
O6    O     O_R   0.036900 0.167320 0.097830 -0.450516
O7    O     O_R   0.056190 0.349890 0.102870 -0.443867
O8    O     O_R   0.797670 0.565150 0.097930 -0.490880
O9    O     O_R   0.595880 0.584540 0.104260 -0.396600
O10   O     O_R   0.638830 0.325960 0.099140 -0.426169
O11   O     O_3   0.824590 0.350480 0.028090 -0.323851
O12   O     O_R   0.685970 0.784630 0.430010 -0.455401
O13   O     O_R   0.728090 0.003480 0.576380 -0.500626
O14   O     O_R   0.682970 0.789220 0.570490 -0.496370
O15   O     O_R   0.499290 0.771920 0.575530 -0.503488
O16   O     O_R   0.285330 0.030900 0.569730 -0.500674
O17   O     O_R   0.270980 0.227040 0.423900 -0.435054
O18   O     O_R   0.530280 0.182090 0.430050 -0.503119
O19   O     O_R   0.731330 0.998530 0.424830 -0.415795
O20   O     O_2   0.902296 0.879849 0.102252 -0.169813
O21   O     O_2   0.811412 0.779875 0.175182 -0.253105
O22   O     O_3   0.654861 0.947938 0.084750 -0.494329
O23   O     O_R   0.502530 0.766960 0.423990 -0.481296
O24   O     O_2   0.420820 0.505680 0.170599 -0.144456
O25   O     O_2   0.442614 0.509695 0.296140 -0.277286
O26   O     O_3   0.654486 0.429838 0.222597 -0.573952
O27   O     O_2   0.267942 0.376242 0.147691 -0.234483
O28   O     O_2   0.037296 0.543634 0.179435 -0.183347
O29   O     O_3   0.221173 0.489944 0.268336 -0.410407
O30   O     O_2   0.066375 0.945345 0.165076 -0.211464
O31   O     O_2   0.263386 0.925381 0.108980 -0.168625
O32   O     O_3   0.296979 0.794294 0.220812 -0.432597
O33   O     O_2   0.873861 0.772005 0.341070 -0.211415
O34   O     O_R   0.288330 0.026310 0.429250 -0.486360
O35   O     O_2   0.991268 0.808354 0.248131 -0.202966
O36   O     O_3   0.956131 0.939841 0.360950 -0.522309
O37   O     O_3   0.499990 0.000020 0.499980 -0.312391
O38   O     O_R   0.821500 0.119550 0.952820 -0.489754
O39   O     O_R   0.037130 0.162750 0.957360 -0.490655
O40   O     O_R   0.056440 0.344950 0.951330 -0.492666
O41   O     O_R   0.797900 0.560570 0.957460 -0.503266
S1    S     S_3+6 0.779323 0.906174 0.140942 0.108838
S2    S     S_3+6 0.509210 0.435799 0.230501 0.062633
S3    S     S_3+6 0.166654 0.430478 0.205163 0.135631
S4    S     S_3+6 0.198671 0.934515 0.177215 0.134051
S5    S     S_3+6 0.892002 0.875167 0.305583 0.084316

loop_
_geom_bond_atom_site_label_1
_geom_bond_atom_site_label_2
_ccdc_geom_bond_type
Cr4   O39   S    
C27   O38   A    
Cr5   O41   S    
C41   C42   S    
O31   S4    D    
C19   C20   A    
Cr6   O9    S    
C10   F4    S    
C33   O34   A    
C3    F1    S    
C7    C8    A    
C32   O12   A    
Cr1   O18   S    
Cr3   O16   S    
C18   C24   A    
C13   C29   S    
C36   C37   S    
C35   C37   T    
Cr4   O6    S    
C26   O41   A    
C5    C6    A    
C19   S1    S    
Cr3   O34   S    
C2    C41   T    
H5    O26   S    
C15   C17   A    
C1    C2    S    
C28   O19   A    
C4    O15   A    
C9    C32   S    
C29   O7    A    
C25   O39   A    
C14   S4    S    
C8    C9    A    
C11   S3    S    
C12   C36   T    
C28   O18   A    
C4    O14   A    
O25   S2    D    
C40   C42   T    
Cr4   O38   S    
C16   O16   A    
C13   C14   A    
Cr3   O23   S    
C17   C33   S    
O26   S2    S    
Cr5   O7    S    
O28   S3    D    
Cr1   O4    S    
C22   H1    S    
O21   S1    D    
C31   O10   A    
C34   C39   T    
C24   C28   S    
Cr4   O5    S    
C18   C19   A    
Cr6   O3    S    
Cr5   O40   S    
O27   S3    D    
O20   S1    D    
C15   H3    S    
C18   S5    S    
C3    C9    A    
O35   S5    D    
O33   S5    D    
Cr2   O37   S    
C26   C35   S    
C25   O40   A    
Cr6   O2    S    
C27   C40   S    
O22   S1    S    
Cr2   O14   S    
C8    F3    S    
Cr5   O11   S    
Cr4   O11   S    
C27   O3    A    
H8    O36   S    
C6    C30   S    
O29   S3    S    
C22   C24   A    
C5    F2    S    
C4    C12   S    
C16   O1    A    
Cr6   O11   S    
C1    O4    A    
Cr5   O8    S    
C30   O9    A    
Cr1   O1    S    
C31   O5    A    
C32   O23   A    
O36   S5    S    
C34   C38   S    
Cr2   O19   S    
Cr1   O37   S    
O30   S4    D    
Cr6   O10   S    
C3    C5    A    
H4    O22   S    
C6    C7    A    
Cr1   O17   S    
C23   C38   T    
Cr3   O15   S    
C1    O13   A    
C26   O2    A    
Cr3   O37   S    
C11   C13   A    
C33   O17   A    
Cr2   O12   S    
H7    O32   S    
C23   C25   S    
Cr2   O13   S    
H6    O29   S    
C10   C11   A    
C16   C39   S    
C29   O6    A    
C21   S2    S    
O32   S4    S    
C20   C21   A    
O24   S2    D    
C14   C15   A    
C10   C17   A    
C7    H2    S    
C21   C22   A    
C30   O8    A    
C20   C31   S    
