data_mof_unit_26111.cif
_audit_creation_date              2012-12-10T16:55:05-0500
_audit_creation_method            fapswitch 2.2
_symmetry_space_group_name_H-M    P1
_symmetry_Int_Tables_number       1
_space_group_crystal_system       triclinic
_cell_length_a                    9.69429
_cell_length_b                    10.936936
_cell_length_c                    15.509422
_cell_angle_alpha                 89.957859
_cell_angle_beta                  73.747072
_cell_angle_gamma                 90.010689
_cell_volume                      1578.68126066

loop_
_atom_site_label
_atom_site_type_symbol
_atom_type_description
_atom_site_fract_x
_atom_site_fract_y
_atom_site_fract_z
_atom_type_partial_charge
C1    C     C_R   0.000494 0.265363 0.499002 0.849263
C2    C     C_R   0.668517 0.464136 0.905021 0.058969
C3    C     C_R   0.761418 0.408646 0.950417 0.086907
C4    C     C_R   0.519380 0.479323 0.949758 0.083863
C5    C     C_R   0.467898 0.452190 0.042882 0.067601
C6    C     C_R   0.561744 0.394510 0.085300 -0.221599
C7    C     C_R   0.704152 0.371518 0.039706 -0.233989
C8    C     C_R   0.419131 0.517380 0.903934 -0.225054
C9    C     C_R   0.275799 0.537198 0.949272 -0.205542
C10   C     C_R   0.227347 0.522488 0.041951 0.167910
C11   C     C_R   0.322998 0.480859 0.090015 0.085065
C12   C     C_R   0.916800 0.497243 0.672097 0.813695
C13   C     C_R   0.083929 0.549815 0.087235 -0.221359
C14   C     C_R   0.034570 0.538640 0.180228 -0.197465
C15   C     C_R   0.271640 0.474173 0.184151 -0.250858
C16   C     C_2   0.887413 0.933039 0.498645 -0.156714
C17   C     C_2   0.999847 0.866610 0.505762 -0.318139
C18   C     C_2   0.885659 0.066972 0.502658 -0.155608
C19   C     C_2   0.004747 0.133408 0.494644 -0.319296
C20   C     C_2   0.397619 0.433417 0.554505 -0.071312
C21   C     C_2   0.554240 0.430351 0.552415 -0.069866
C22   C     C_R   0.999602 0.734645 0.501127 0.854556
C23   C     C_R   0.083201 0.500500 0.327801 0.800105
C24   C     C_R   0.870228 0.478541 0.769630 -0.110703
C25   C     C_R   0.129085 0.503025 0.229233 -0.048304
C26   C     C_R   0.908524 0.388531 0.904092 0.245214
C27   C     C_R   0.960692 0.423391 0.814103 -0.217219
C28   C     C_R   0.727670 0.502706 0.815902 -0.257263
Cu1   Cu    Cu3+1 0.138640 0.500020 0.499980 0.937796
Cu2   Cu    Cu3+1 0.861360 0.499980 0.500020 0.937567
H1    H     H_    0.767864 0.323634 0.075997 0.151856
H2    H     H_    0.010117 0.580723 0.050648 0.141396
H3    H     H_    0.791485 0.888382 0.490898 0.165869
H4    H     H_    0.094818 0.907554 0.517112 0.146978
H5    H     H_    0.782640 0.111634 0.511047 0.165146
H6    H     H_    0.109965 0.092484 0.482770 0.147231
H7    H     H_    0.324177 0.376138 0.603712 0.147070
H8    H     H_    0.415315 0.550328 0.452354 0.193316
H9    H     H_    0.585217 0.367357 0.597746 0.152421
H10   H     H_    0.623956 0.561323 0.459915 0.189447
H11   H     H_    0.342018 0.450901 0.224427 0.150900
H12   H     H_    0.923930 0.561573 0.213928 0.155784
H13   H     H_    0.202789 0.566271 0.911543 0.152544
H14   H     H_    0.071539 0.403929 0.778265 0.162209
H15   H     H_    0.664954 0.552152 0.780108 0.156830
H16   H     H_    0.526761 0.361030 0.153323 0.142911
H17   H     H_    0.446684 0.529202 0.832187 0.143977
N1    N     N_2   0.346430 0.498660 0.500980 -0.280712
N2    N     N_2   0.652550 0.498630 0.501000 -0.283030
O1    O     O_R   0.117050 0.321960 0.499980 -0.579565
O2    O     O_R   0.882890 0.321920 0.500020 -0.572957
O3    O     O_R   0.052910 0.500040 0.629810 -0.581131
O4    O     O_R   0.818750 0.499990 0.629840 -0.577312
O5    O     O_R   0.117110 0.678080 0.499980 -0.576803
O6    O     O_R   0.882950 0.678040 0.500020 -0.577780
O7    O     O_R   0.181250 0.500010 0.370160 -0.582509
O8    O     O_R   0.947090 0.499960 0.370190 -0.580119
N3    N     N_2   0.005919 0.331025 0.945168 -0.440470
H18   H     H_    0.992851 0.351609 0.011646 0.254221
C29   C     C_3   0.028713 0.202273 0.925344 -0.684843
H19   H     H_    0.927312 0.150697 0.953673 0.224867
H20   H     H_    0.111857 0.167036 0.955745 0.231498
H21   H     H_    0.066894 0.187354 0.851614 0.232542

loop_
_geom_bond_atom_site_label_1
_geom_bond_atom_site_label_2
_ccdc_geom_bond_type
C8    C9    A    
C2    C4    A    
Cu2   O2    S    
Cu1   Cu2   S    
Cu1   O7    S    
C16   H3    S    
C1    O2    A    
Cu2   O6    S    
C12   C24   S    
C13   H2    S    
H8    N1    S    
C12   O4    A    
C21   H9    S    
C24   C27   A    
C4    C8    A    
C14   H12   S    
Cu1   O5    S    
C21   N2    D    
C2    C3    A    
C8    H17   S    
C23   O7    A    
C22   O5    A    
C13   C14   A    
C20   H7    S    
C26   N3    S    
C26   C27   A    
C20   N1    D    
Cu1   O1    S    
C29   H21   S    
C9    C10   A    
C16   C18   S    
C12   O3    A    
Cu2   N2    S    
C1    O1    A    
C5    C11   A    
C6    C7    A    
C3    C7    A    
C19   H6    S    
C23   C25   S    
C14   C25   A    
C5    C6    A    
Cu2   O4    S    
C28   H15   S    
C9    H13   S    
C1    C19   S    
C17   H4    S    
Cu1   N1    S    
N3    C29   S    
H10   N2    S    
Cu2   O8    S    
C7    H1    S    
C20   C21   S    
C15   H11   S    
C15   C25   A    
C29   H20   S    
C18   C19   D    
C10   C11   A    
C23   O8    A    
C17   C22   S    
C4    C5    A    
C2    C28   A    
C22   O6    A    
C6    H16   S    
N3    H18   S    
C11   C15   A    
C27   H14   S    
C10   C13   A    
C3    C26   A    
C24   C28   A    
C16   C17   D    
C18   H5    S    
C29   H19   S    
Cu1   O3    S    
