data_mof_unit_23864.cif
_audit_creation_date              2012-10-26T20:20:49-0400
_audit_creation_method            fapswitch 2.2
_symmetry_space_group_name_H-M    P1
_symmetry_Int_Tables_number       1
_space_group_crystal_system       triclinic
_cell_length_a                    8.786308
_cell_length_b                    10.790617
_cell_length_c                    9.604513
_cell_angle_alpha                 89.062202
_cell_angle_beta                  97.480161
_cell_angle_gamma                 92.141351
_cell_volume                      902.160355868

loop_
_atom_site_label
_atom_site_type_symbol
_atom_type_description
_atom_site_fract_x
_atom_site_fract_y
_atom_site_fract_z
_atom_type_partial_charge
C1    C     C_R   0.499733 0.262710 0.500815 0.588391
C2    C     C_R   0.614620 0.066115 0.589306 -0.077623
C3    C     C_R   0.500268 0.871528 0.497770 0.014738
C4    C     C_R   0.499734 0.128472 0.502230 0.014736
C5    C     C_R   0.391202 0.432152 0.065010 0.391145
C6    C     C_R   0.608797 0.567848 0.934989 0.391147
C7    C     C_R   0.390120 0.432419 0.915949 0.304344
C8    C     C_R   0.609880 0.567581 0.084051 0.304343
C9    C     C_1   0.264510 0.863629 0.325439 0.210646
C10   C     C_1   0.735483 0.136372 0.674572 0.210639
C11   C     C_R   0.500268 0.737290 0.499185 0.588391
C12   C     C_R   0.204448 0.496450 0.464623 0.572214
C13   C     C_R   0.795551 0.503550 0.535377 0.572211
C14   C     C_2   0.038593 0.481645 0.447845 0.263707
C15   C     C_2   0.961407 0.518355 0.552155 0.263704
C16   C     C_R   0.385409 0.064134 0.412591 0.212546
C17   C     C_R   0.614600 0.935865 0.587402 0.212555
C18   C     C_R   0.385384 0.933885 0.410692 -0.077627
Cu1   Cu    Cu3+1 0.500000 0.500020 0.640660 1.098969
Cu2   Cu    Cu3+1 0.500000 0.499980 0.359340 1.098963
H1    H     H_    0.037262 0.393354 0.271124 0.370262
H2    H     H_    0.962738 0.606646 0.728875 0.370260
H3    H     H_    0.206739 0.078349 0.267137 0.344511
H4    H     H_    0.793367 0.921660 0.732758 0.344510
H5    H     H_    0.216337 0.313270 0.060227 0.362397
H6    H     H_    0.783653 0.686740 0.939773 0.362403
H7    H     H_    0.310161 0.336445 0.753722 0.374763
H8    H     H_    0.689840 0.663555 0.246277 0.374762
N1    N     N_R   0.500040 0.500030 0.852080 -0.257881
N2    N     N_R   0.499960 0.499970 0.147920 -0.257880
N3    N     N_1   0.168149 0.807414 0.257633 -0.239378
N4    N     N_1   0.831835 0.192588 0.742387 -0.239380
O1    O     O_R   0.499990 0.319660 0.618740 -0.557057
O2    O     O_3   0.038103 0.576271 0.670406 -0.669508
O3    O     O_3   0.274705 0.132419 0.332211 -0.656487
O4    O     O_3   0.725307 0.867578 0.667776 -0.656497
O5    O     O_3   0.286215 0.361423 0.130108 -0.620588
O6    O     O_3   0.713784 0.638578 0.869891 -0.620572
O7    O     O_3   0.273125 0.365416 0.838802 -0.677619
O8    O     O_3   0.726876 0.634583 0.161198 -0.677614
O9    O     O_R   0.500010 0.680340 0.381260 -0.557062
O10   O     O_R   0.499990 0.319630 0.381170 -0.420631
O11   O     O_R   0.500010 0.680370 0.618830 -0.420625
O12   O     O_R   0.274840 0.500010 0.591370 -0.468853
O13   O     O_R   0.725160 0.499990 0.408630 -0.468851
O14   O     O_R   0.274830 0.499980 0.353800 -0.463011
O15   O     O_R   0.725170 0.500020 0.646200 -0.463010
O16   O     O_3   0.961897 0.423729 0.329594 -0.669503

loop_
_geom_bond_atom_site_label_1
_geom_bond_atom_site_label_2
_ccdc_geom_bond_type
C4    C16   A    
Cu2   O10   S    
C6    O6    S    
C11   O11   A    
C7    N1    A    
C17   O4    S    
C5    O5    S    
Cu1   O11   S    
C1    O10   A    
C15   O2    S    
C2    C4    A    
Cu1   Cu2   S    
H1    O16   S    
C8    N2    A    
C1    C4    S    
Cu2   O9    S    
C1    O1    A    
C12   O12   A    
Cu2   N2    S    
C2    C17   A    
C13   O13   A    
H4    O4    S    
C7    O7    S    
C12   O14   A    
C12   C14   S    
C3    C17   A    
H3    O3    S    
C13   C15   S    
C16   O3    S    
H2    O2    S    
Cu1   O15   S    
C3    C11   S    
C9    N3    T    
Cu1   N1    S    
C10   N4    T    
C9    C18   S    
C6    N1    A    
Cu1   O12   S    
C3    C18   A    
C16   C18   A    
C5    N2    A    
Cu1   O1    S    
C11   O9    A    
C5    C7    A    
C14   O16   S    
H8    O8    S    
C14   C15   D    
H6    O6    S    
C6    C8    A    
C8    O8    S    
H5    O5    S    
C13   O15   A    
Cu2   O14   S    
Cu2   O13   S    
H7    O7    S    
C2    C10   S    
