data_mof_unit_67028.cif
_audit_creation_date              2013-03-05T15:58:14-0500
_audit_creation_method            fapswitch 2.2
_symmetry_space_group_name_H-M    P1
_symmetry_Int_Tables_number       1
_space_group_crystal_system       triclinic
_cell_length_a                    8.269124
_cell_length_b                    12.778972
_cell_length_c                    14.226788
_cell_angle_alpha                 92.163469
_cell_angle_beta                  91.01917
_cell_angle_gamma                 98.935027
_cell_volume                      1483.62988597

loop_
_atom_site_label
_atom_site_type_symbol
_atom_site_description
_atom_site_fract_x
_atom_site_fract_y
_atom_site_fract_z
_atom_type_partial_charge
P1    P     P_3+3 0.054400 0.427280 0.286870 0.469817
O1    O     O_2   0.887370 0.460630 0.272300 -0.378130
O2    O     O_3   0.129410 0.451380 0.388510 -0.392750
O3    O     O_3   0.670210 0.653170 0.329170 -0.363929
O4    O     O_2   0.776341 0.581364 0.167443 -0.343728
O5    O     O_3   0.031346 0.291400 0.257439 -0.586672
O6    O     O_3   0.735451 0.777949 0.170513 -0.456167
H1    H     H_    0.700525 0.921452 0.226659 0.097755
C1    C     C_3   0.552078 0.881749 0.101073 -1.058808
H2    H     H_    0.503365 0.957218 0.113117 0.240067
H3    H     H_    0.645747 0.892677 0.045933 0.287935
P2    P     P_3+3 0.668300 0.742890 0.573060 0.474395
P3    P     P_3+3 0.137498 0.842941 0.378923 0.480780
O7    O     O_2   0.845380 0.761330 0.544970 -0.392682
O8    O     O_3   0.088930 0.704860 0.376040 -0.330409
O9    O     O_2   0.035299 0.883335 0.457946 -0.396322
O10   O     O_3   0.685877 0.762692 0.695466 -0.522218
O11   O     O_3   0.057751 0.894399 0.278444 -0.521700
C2    C     C_3   0.157380 0.881052 0.201221 0.769290
H4    H     H_    0.289622 0.899174 0.220683 -0.063621
C3    C     C_3   0.120143 0.952679 0.122926 -0.672170
H5    H     H_    0.986844 0.939541 0.105531 0.235805
C4    C     C_3   0.215935 0.758483 0.648206 0.294953
H6    H     H_    0.326498 0.732259 0.618643 0.096853
H7    H     H_    0.113509 0.738393 0.596613 0.119273
C5    C     C_3   0.244136 0.878023 0.664998 -0.151192
H8    H     H_    0.145614 0.903091 0.708676 0.175247
H9    H     H_    0.245045 0.917672 0.597154 0.161775
Ba1   Ba    Ba6+2 0.855630 0.555280 0.454520 1.578675
C6    C     C_3   0.912127 0.229197 0.307826 0.499990
H10   H     H_    0.843959 0.275805 0.355709 0.076520
C7    C     C_3   0.797713 0.160789 0.236949 -0.917762
H11   H     H_    0.744186 0.211647 0.187769 0.276197
H12   H     H_    0.699960 0.108846 0.273018 0.220332
H13   H     H_    0.866016 0.108330 0.194787 0.249279
C8    C     C_3   0.715223 0.669708 0.736927 0.457091
H14   H     H_    0.828983 0.645807 0.709646 0.065829
H15   H     H_    0.611060 0.604644 0.723125 0.125243
C9    C     C_3   0.734732 0.691453 0.842808 -0.965522
H16   H     H_    0.844212 0.752086 0.858975 0.267054
H17   H     H_    0.749435 0.617998 0.878709 0.220191
H18   H     H_    0.624510 0.720905 0.870375 0.272457
P4    P     P_3+3 0.135310 0.572810 0.713130 0.465647
O12   O     O_2   0.302330 0.539400 0.727760 -0.358596
O13   O     O_3   0.060300 0.548700 0.611500 -0.417908
O14   O     O_3   0.519500 0.346920 0.670840 -0.340652
O15   O     O_3   0.179305 0.710241 0.733656 -0.559968
P5    P     P_3+3 0.058089 0.157569 0.630859 0.519988
O16   O     O_3   0.614310 0.373510 0.452640 -0.405842
O17   O     O_3   0.100780 0.295230 0.623970 -0.335106
O18   O     O_2   0.195131 0.115327 0.575267 -0.344030
O19   O     O_3   0.101951 0.127219 0.746671 -0.458450
Ba2   Ba    Ba6+2 0.334200 0.444810 0.545490 1.599100
P6    P     P_3+3 0.655446 0.651557 0.206505 0.521098
C10   C     C_3   0.627432 0.849812 0.192010 0.451656
H19   H     H_    0.529573 0.820723 0.241726 0.031274
H20   H     H_    0.450992 0.819318 0.075502 0.268321
O20   O     O_3   0.575400 0.626570 0.547370 -0.413811
C11   C     C_3   0.474366 0.327507 0.261962 0.446338
H21   H     H_    0.346326 0.336007 0.276519 0.104983
H22   H     H_    0.556594 0.397543 0.293203 0.124572
C12   C     C_3   0.500187 0.327649 0.155869 -1.023851
H23   H     H_    0.487329 0.246136 0.124037 0.281444
H24   H     H_    0.410511 0.369905 0.120534 0.253965
H25   H     H_    0.624685 0.368702 0.141768 0.241099
P7    P     P_3+3 0.524697 0.243222 0.420352 0.417857
O21   O     O_2   0.344320 0.238700 0.455090 -0.345415
O22   O     O_3   0.505941 0.231226 0.297493 -0.595186
H26   H     H_    0.187250 0.935351 0.058624 0.189511
C13   C     C_3   0.965329 0.131946 0.803102 0.211750
H27   H     H_    0.919081 0.208737 0.796563 0.063080
H28   H     H_    0.866981 0.065134 0.781818 0.025833
C14   C     C_3   0.018146 0.120232 0.905717 0.111915
H29   H     H_    0.082088 0.050626 0.910335 0.115305
P8    P     P_3+3 0.534837 0.346299 0.793298 0.517347
C15   C     C_3   0.545118 0.160985 0.858580 0.446746
H30   H     H_    0.639004 0.206239 0.906491 0.021113
O23   O     O_2   0.422277 0.422782 0.831055 -0.345573
O24   O     O_3   0.433101 0.223264 0.825556 -0.408803
H31   H     H_    0.605410 0.127563 0.797910 0.074651
H32   H     H_    0.421624 0.103411 0.984707 0.234448
C16   C     C_3   0.452668 0.072230 0.914500 -0.804402
H33   H     H_    0.527476 0.008384 0.923734 0.235348
H34   H     H_    0.338318 0.036839 0.876484 0.288873
C17   C     C_R   0.985828 0.445046 0.061682 -0.056872
C18   C     C_R   0.182266 0.499787 0.196444 0.296642
C19   C     C_R   0.335122 0.553611 0.226760 -0.469616
C20   C     C_R   0.448873 0.597798 0.162681 0.235102
C21   C     C_R   0.408093 0.595185 0.066884 -0.290013
C22   C     C_R   0.251818 0.547438 0.034036 0.109728
C23   C     C_R   0.138931 0.495482 0.098031 0.028016
H35   H     H_    0.369632 0.555935 0.300627 0.158645
C24   C     C_R   0.054625 0.501559 0.901910 0.013954
C25   C     C_R   0.942144 0.449235 0.965743 0.121735
C26   C     C_R   0.009443 0.499229 0.804072 0.262514
C27   C     C_R   0.858128 0.442633 0.773430 -0.457789
C28   C     C_R   0.744598 0.397153 0.837160 0.148219
C29   C     C_R   0.785672 0.401765 0.933095 -0.312788
C30   C     C_R   0.207780 0.552342 0.938244 -0.085860
H36   H     H_    0.497931 0.630951 0.018364 0.155657
H37   H     H_    0.695239 0.368637 0.982182 0.152347
H38   H     H_    0.823473 0.440352 0.699586 0.160763
H39   H     H_    0.899510 0.401145 0.107078 0.145639
H40   H     H_    0.294813 0.596238 0.892950 0.163886
C31   C     C_R   0.765080 0.176419 0.534606 -0.431370
C32   C     C_R   0.439527 0.813427 0.454439 -0.484731
C33   C     C_R   0.417426 0.993715 0.419199 -0.251957
C34   C     C_R   0.352946 0.886525 0.414560 0.158041
C35   C     C_R   0.582771 0.846636 0.508204 0.321372
C36   C     C_R   0.647714 0.957158 0.516785 0.007741
C37   C     C_R   0.563495 0.031133 0.470397 -0.029550
C38   C     C_R   0.623370 0.141184 0.479873 0.230969
C39   C     C_R   0.853176 0.105158 0.577012 0.134677
C40   C     C_R   0.792402 0.996397 0.570361 -0.149155
H41   H     H_    0.348050 0.047237 0.385775 0.178371
H42   H     H_    0.860772 0.944046 0.606414 0.167580
H43   H     H_    0.812075 0.260357 0.540254 0.159804
H44   H     H_    0.387131 0.730298 0.450408 0.164170
Br1   Br    Br    0.453698 0.921834 0.726663 -0.570482
C41   C     C_1   0.993256 0.156406 0.360980 0.062748
N1    N     N_1   0.056514 0.095978 0.400105 -0.002537
Br2   Br    Br    0.159980 0.245941 0.953872 -0.522061
C42   C     C_1   0.880983 0.103462 0.969070 -0.011130
N2    N     N_1   0.775659 0.090952 0.021631 -0.092978
Br3   Br    Br    0.104347 0.739274 0.149137 -0.522815
C43   C     C_1   0.171187 0.063562 0.151208 0.207119
N3    N     N_1   0.210780 0.151544 0.173497 -0.008427

loop_
_geom_bond_atom_site_label_1
_geom_bond_atom_site_label_2
_geom_bond_distance
_ccdc_geom_bond_type
P7    O22   1.750830 S    
C10   H19   1.113574 S    
C43   N3    1.151914 T    
C27   H38   1.082137 S    
P2    Ba1   3.454386 S    
C14   H29   1.106507 S    
C37   C38   1.417082 A    
C15   O24   1.397818 S    
O6    C10   1.406424 S    
C19   C20   1.392509 A    
H32   C16   1.110475 S    
C17   C23   1.408453 A    
C42   N2    1.154217 T    
C9    H17   1.107344 S    
Ba1   O16   2.816360 S    
C5    H8    1.111998 S    
C24   C25   1.421139 A    
Ba1   Ba2   4.584714 S    
P3    O11   1.755807 S    
O1    Ba1   2.852804 S    
C31   C39   1.398508 A    
C8    H14   1.105496 S    
C2    C3    1.525018 S    
O11   C2    1.405881 S    
C18   C23   1.435942 A    
C6    H10   1.106273 S    
C25   C29   1.404067 A    
C28   C29   1.397456 A    
P8    C28   1.844203 S    
P1    O1    1.520401 D    
C4    C5    1.518161 S    
O2    Ba1   2.947091 S    
C36   C37   1.431585 A    
P2    C35   1.862692 S    
C12   H24   1.107163 S    
O12   Ba2   2.853316 S    
P4    Ba2   3.427705 S    
P5    O18   1.546209 D    
C26   C27   1.398008 A    
C14   C42   1.456081 S    
P2    O10   1.750454 S    
P4    C26   1.864714 S    
C4    H6    1.106021 S    
C13   H27   1.113580 S    
C1    C10   1.522761 S    
O10   C8    1.398610 S    
C6    C7    1.522729 S    
P4    O15   1.749569 S    
C1    H2    1.110126 S    
C24   C30   1.410092 A    
O3    Ba1   2.786204 S    
C17   H39   1.077348 S    
P2    O20   1.589823 S    
C20   C21   1.396061 A    
P5    O17   1.746489 S    
C30   H40   1.079924 S    
O13   Ba2   2.947858 S    
C11   H21   1.103414 S    
C24   C26   1.432760 A    
C19   H35   1.082134 S    
C32   H44   1.082153 S    
C31   H43   1.082092 S    
C6    C41   1.454673 S    
P3    C34   1.838355 S    
H1    C10   1.108997 S    
O14   P8    1.744950 S    
O8    Ba1   2.777482 S    
C9    H18   1.110991 S    
C11   H22   1.109541 S    
O17   Ba2   2.778073 S    
C4    O15   1.400479 S    
O16   P7    1.754732 S    
C21   H36   1.083454 S    
P1    O5    1.751060 S    
C7    H13   1.107934 S    
O4    P6    1.540626 D    
C15   H30   1.101687 S    
C15   C16   1.524519 S    
C9    H16   1.110889 S    
C18   C19   1.394604 A    
C2    Br3   1.914204 S    
C3    H26   1.111197 S    
P1    O2    1.563860 S    
C7    H12   1.109556 S    
P4    O12   1.520761 D    
C12   H23   1.108915 S    
C11   O22   1.406965 S    
P4    O13   1.563743 S    
C17   C25   1.410773 A    
C33   C34   1.389241 A    
C27   C28   1.393466 A    
C13   C14   1.535754 S    
P1    Ba1   3.427241 S    
C5    Br1   1.921847 S    
C1    H3    1.109552 S    
C33   H41   1.076926 S    
O5    C6    1.393682 S    
C31   C38   1.399781 A    
P2    O7    1.510014 D    
C16   H33   1.107953 S    
C16   H34   1.105288 S    
P3    O8    1.746537 S    
O7    Ba1   2.900640 S    
C22   C30   1.410558 A    
C41   N1    1.152094 T    
C39   C40   1.401654 A    
P1    C18   1.861608 S    
C36   C40   1.419936 A    
C11   C12   1.528186 S    
C12   H25   1.105819 S    
O3    P6    1.746352 S    
C33   C37   1.407526 A    
C8    C9    1.522558 S    
C15   H31   1.108875 S    
C40   H42   1.078577 S    
Ba2   O20   2.815693 S    
C29   H37   1.081056 S    
C5    H9    1.106520 S    
C7    H11   1.104773 S    
C2    H4    1.109875 S    
C8    H15   1.109487 S    
C3    C43   1.453606 S    
C35   C36   1.430767 A    
P6    C20   1.828600 S    
O2    Ba2   2.790390 S    
C22   C23   1.422836 A    
C32   C34   1.392957 A    
O16   Ba2   2.934915 S    
O14   Ba2   2.785599 S    
P7    O21   1.572879 D    
C1    H20   1.108007 S    
C4    H7    1.103699 S    
Ba2   O21   2.900843 S    
P8    O23   1.539762 D    
O19   C13   1.405099 S    
P5    O19   1.751384 S    
Ba1   O20   2.935701 S    
C14   Br2   1.930962 S    
P3    O9    1.539494 D    
Ba1   O13   2.789816 S    
C13   H28   1.112684 S    
O6    P6    1.746755 S    
P7    C38   1.863426 S    
C21   C22   1.404517 A    
C3    H5    1.110903 S    
P8    O24   1.745761 S    
P5    C39   1.862574 S    
C32   C35   1.398335 A    
