data_mof_unit_23116.cif
_audit_creation_date              2012-12-11T18:37:32-0500
_audit_creation_method            fapswitch 2.2
_symmetry_space_group_name_H-M    P1
_symmetry_Int_Tables_number       1
_space_group_crystal_system       triclinic
_cell_length_a                    8.417778
_cell_length_b                    14.447626
_cell_length_c                    26.832316
_cell_angle_alpha                 93.220516
_cell_angle_beta                  94.009315
_cell_angle_gamma                 87.501548
_cell_volume                      3247.55771435

loop_
_atom_site_label
_atom_site_type_symbol
_atom_type_description
_atom_site_fract_x
_atom_site_fract_y
_atom_site_fract_z
_atom_type_partial_charge
Ba1   Ba    Ba6+2 0.849670 0.455410 0.524690 1.636075
Ba2   Ba    Ba6+2 0.340150 0.544510 0.475310 1.634177
C1    C     C_3   0.663955 0.114405 0.662323 -0.407679
C2    C     C_R   0.899688 0.587957 0.174816 0.592935
C3    C     C_2   0.740885 0.538211 0.268380 -0.084210
C4    C     C_3   0.194172 0.204539 0.661780 0.357711
C5    C     C_3   0.696835 0.529179 0.321756 -0.057846
C6    C     C_1   0.975933 0.485835 0.343929 -0.000495
C7    C     C_2   0.014302 0.487419 0.296687 -0.119493
C8    C     C_2   0.891815 0.514736 0.255719 0.222219
C9    C     C_R   0.016452 0.506237 0.102899 -0.100260
C10   C     C_R   0.055194 0.428773 0.132406 -0.044063
C11   C     C_R   0.145123 0.351750 0.111154 0.066213
C12   C     C_3   0.656465 0.209369 0.640279 0.386046
C13   C     C_R   0.936762 0.585138 0.124174 -0.042599
C14   C     C_2   0.844067 0.531488 0.357887 -0.186150
C15   C     C_2   0.355629 0.482965 0.644540 -0.264285
C16   C     C_3   0.187515 0.171620 0.715029 -0.046035
C17   C     C_R   0.142041 0.417503 0.977068 0.021994
C18   C     C_R   0.075045 0.583345 0.973416 0.020482
C19   C     C_R   0.125987 0.498461 0.949707 0.050156
C20   C     C_R   0.163757 0.331591 0.950254 -0.113771
C21   C     C_R   0.192635 0.327128 0.899619 -0.071740
C22   C     C_R   0.198484 0.408468 0.873625 -0.025161
C23   C     C_3   0.544075 0.661881 0.624522 0.286331
C24   C     C_R   0.163195 0.494436 0.898484 -0.082725
C25   C     C_R   0.166776 0.576281 0.872501 -0.031031
C26   C     C_R   0.207881 0.571031 0.821958 0.584365
C27   C     C_R   0.238425 0.405392 0.823334 0.570122
C28   C     C_3   0.043625 0.242386 0.370598 0.310390
C29   C     C_2   0.433660 0.442946 0.733123 0.012163
C30   C     C_3   0.451029 0.417284 0.677856 -0.047012
C31   C     C_1   0.216917 0.519102 0.658011 -0.000406
C32   C     C_2   0.172181 0.511841 0.704530 -0.139025
C33   C     C_2   0.289421 0.480698 0.746035 0.243483
C34   C     C_3   0.572803 0.672568 0.681317 -0.406972
C35   C     C_R   0.130663 0.424503 0.030013 0.004097
C36   C     C_R   0.054476 0.504664 0.051770 0.013838
C37   C     C_R   0.016413 0.583297 0.022422 0.027675
C38   C     C_R   0.196432 0.355397 0.062013 0.059643
C39   C     C_R   0.888972 0.658888 0.094023 -0.058789
C40   C     C_3   0.048019 0.236254 0.313538 -0.376697
C41   C     C_R   0.091184 0.665005 0.947858 -0.114063
C42   C     C_R   0.134248 0.661552 0.898305 -0.068026
C43   C     C_R   0.919114 0.656905 0.043299 0.049032
C44   C     C_R   0.668013 0.054645 0.467429 0.076680
C45   C     C_3   0.967149 0.778843 0.345085 0.293241
C46   C     C_R   0.507397 0.196565 0.499958 0.051805
C47   C     C_R   0.378229 0.228631 0.528206 -0.191498
C48   C     C_R   0.274183 0.165889 0.545352 0.017271
C49   C     C_R   0.317190 0.071885 0.544771 -0.154388
C50   C     C_R   0.457233 0.038296 0.523403 -0.005967
C51   C     C_R   0.545969 0.097889 0.496300 -0.039224
C52   C     C_3   0.076591 0.765190 0.641851 0.372104
C53   C     C_R   0.642760 0.907094 0.506181 -0.049712
C54   C     C_R   0.730762 0.965015 0.478581 0.032949
C55   C     C_R   0.693312 0.812521 0.509637 0.017912
C56   C     C_3   0.946701 0.814661 0.292787 -0.337095
C57   C     C_R   0.836798 0.780178 0.490448 -0.235947
C58   C     C_R   0.927804 0.838216 0.465523 0.010532
C59   C     C_R   0.875420 0.930135 0.459587 -0.143191
C60   C     C_R   0.504202 0.944297 0.527282 -0.048113
C61   C     C_3   0.199120 0.834127 0.628725 -0.334529
C62   C     C_3   0.638216 0.345333 0.378253 0.351049
C63   C     C_3   0.649109 0.314481 0.322748 -0.270188
C64   C     C_3   0.125542 0.728327 0.693513 -0.332436
C65   C     C_3   0.917067 0.820133 0.645147 -0.297161
C66   C     C_3   0.488403 0.324900 0.293241 -0.388614
C67   C     C_3   0.498453 0.786092 0.358025 0.361790
C68   C     C_3   0.190341 0.266231 0.140497 -0.329497
C69   C     C_3   0.566647 0.418383 0.771539 -0.310854
C70   C     C_3   0.343991 0.297888 0.048116 -0.414521
C71   C     C_3   0.822869 0.726533 0.012362 -0.422955
C72   C     C_3   0.829894 0.578978 0.408948 -0.232498
C73   C     C_3   0.346365 0.329184 0.542327 -0.234094
C74   C     C_3   0.689275 0.084127 0.415444 -0.379977
C75   C     C_3   0.041862 0.213644 0.740643 -0.257796
C76   C     C_3   0.191447 0.065523 0.715158 -0.414335
C77   C     C_3   0.087164 0.146543 0.390400 -0.326076
C78   C     C_3   0.486505 0.882028 0.337225 -0.381555
C79   C     C_R   0.006931 0.432837 0.182710 0.584976
H1    H     H_    0.723288 0.204677 0.605944 0.100444
H2    H     H_    0.529599 0.226971 0.629586 -0.087625
H3    H     H_    0.595852 0.065048 0.636737 0.076584
H4    H     H_    0.527545 0.741768 0.695475 0.128290
H5    H     H_    0.511350 0.618694 0.699448 0.081605
H6    H     H_    0.701762 0.663926 0.692420 0.115970
H7    H     H_    0.610892 0.118975 0.699177 0.112670
H8    H     H_    0.992460 0.702698 0.341697 0.052325
H9    H     H_    0.853789 0.794209 0.363282 -0.027116
H10   H     H_    0.055156 0.796721 0.272378 0.134295
H11   H     H_    0.925926 0.891197 0.294978 0.103972
H12   H     H_    0.166588 0.210082 0.302188 0.120616
H13   H     H_    0.591238 0.786272 0.389621 -0.015028
H14   H     H_    0.381777 0.771733 0.371919 0.124132
H15   H     H_    0.602676 0.899123 0.323554 0.106709
H16   H     H_    0.454111 0.934448 0.367076 0.087681
H17   H     H_    0.205757 0.281121 0.663768 -0.013433
H18   H     H_    0.135077 0.468532 0.287261 0.123112
H19   H     H_    0.212411 0.259489 0.881039 0.111598
H20   H     H_    0.156251 0.266840 0.968050 0.080364
H21   H     H_    0.647720 0.554041 0.239731 0.102431
H22   H     H_    0.076482 0.732760 0.966317 0.081363
H23   H     H_    0.957584 0.187982 0.296697 0.086962
H24   H     H_    0.301797 0.170529 0.646228 -0.060317
H25   H     H_    0.142644 0.726275 0.880319 0.115325
H26   H     H_    0.241903 0.025118 0.561647 0.066746
H27   H     H_    0.946984 0.973885 0.439407 0.083117
H28   H     H_    0.923642 0.261913 0.381768 0.019286
H29   H     H_    0.243495 0.691774 0.693592 0.083398
H30   H     H_    0.135908 0.786760 0.722180 0.117171
H31   H     H_    0.033165 0.683211 0.705065 0.097417
H32   H     H_    0.826871 0.775530 0.657781 0.128595
H33   H     H_    0.927731 0.880809 0.672391 0.061249
H34   H     H_    0.020822 0.304708 0.298185 0.122323
H35   H     H_    0.874404 0.845632 0.608054 0.106969
H36   H     H_    0.317654 0.799875 0.626725 0.128308
H37   H     H_    0.753254 0.371286 0.394440 -0.065712
H38   H     H_    0.738284 0.353797 0.305344 0.062895
H39   H     H_    0.398029 0.286926 0.311072 0.154815
H40   H     H_    0.449253 0.399073 0.291995 0.130572
H41   H     H_    0.498277 0.295950 0.254319 0.120290
H42   H     H_    0.416328 0.650397 0.614819 -0.008094
H43   H     H_    0.617323 0.600856 0.611301 0.093860
H44   H     H_    0.296473 0.195478 0.736954 0.123008
H45   H     H_    0.209335 0.892266 0.657361 0.068061
H46   H     H_    0.842488 0.782639 0.272036 0.150361
H47   H     H_    0.393289 0.884328 0.305861 0.136968
H48   H     H_    0.081118 0.234601 0.151542 0.154156
H49   H     H_    0.252534 0.209915 0.118922 0.086621
H50   H     H_    0.269742 0.285204 0.173981 0.138662
H51   H     H_    0.676250 0.453224 0.763779 0.111595
H52   H     H_    0.539817 0.441821 0.810191 0.108806
H53   H     H_    0.590555 0.342142 0.769886 0.133131
H54   H     H_    0.313786 0.225044 0.037598 0.110451
H55   H     H_    0.403424 0.327102 0.017233 0.125164
H56   H     H_    0.164708 0.863046 0.591790 0.106538
H57   H     H_    0.434845 0.298658 0.080216 0.121122
H58   H     H_    0.818876 0.717091 0.109371 0.122399
H59   H     H_    0.049493 0.527038 0.712948 0.110229
H60   H     H_    0.701905 0.738200 0.026271 0.118847
H61   H     H_    0.881587 0.794117 0.015263 0.115194
H62   H     H_    0.802718 0.701132 0.972749 0.128075
H63   H     H_    0.930710 0.583978 0.434648 0.156497
H64   H     H_    0.794021 0.652963 0.405130 0.025181
H65   H     H_    0.752764 0.537525 0.430116 0.134373
H66   H     H_    0.394009 0.491813 0.607506 0.045570
H67   H     H_    0.548783 0.402950 0.382603 0.087179
H68   H     H_    0.439818 0.375852 0.545827 0.149263
H69   H     H_    0.254652 0.359646 0.515600 0.153214
H70   H     H_    0.324123 0.334700 0.582468 0.023666
H71   H     H_    0.877425 0.708826 0.494563 0.072600
H72   H     H_    0.572207 0.107157 0.397848 0.134297
H73   H     H_    0.780077 0.136899 0.416547 0.144654
H74   H     H_    0.728477 0.025634 0.389972 0.080293
H75   H     H_    0.931778 0.181117 0.724845 0.150790
H76   H     H_    0.054428 0.201241 0.781234 0.114361
H77   H     H_    0.029651 0.289652 0.736093 0.146344
H78   H     H_    0.789131 0.087257 0.666741 0.130142
H79   H     H_    0.433922 0.901395 0.548290 0.086040
H80   H     H_    0.191308 0.043112 0.754083 0.122466
H81   H     H_    0.086176 0.037366 0.693035 0.142842
H82   H     H_    0.301801 0.036160 0.698920 0.107490
H83   H     H_    0.212613 0.125648 0.383309 0.115184
H84   H     H_    0.075055 0.148309 0.431429 0.104720
H85   H     H_    0.008245 0.093368 0.371900 0.069361
H86   H     H_    0.690503 0.240407 0.319428 0.127780
N1    N     N_R   0.933566 0.512137 0.203503 -0.418200
N2    N     N_R   0.244130 0.486055 0.797894 -0.423074
O1    O     O_2   0.918080 0.549800 0.616640 -0.454824
O2    O     O_2   0.258021 0.832432 0.456563 -0.485256
O3    O     O_3   0.094146 0.823126 0.371916 -0.606896
O4    O     O_3   0.150070 0.549720 0.556460 -0.462909
O5    O     O_3   0.546340 0.387390 0.478340 -0.498231
O6    O     O_2   0.398940 0.728800 0.517420 -0.444441
O7    O     O_3   0.583972 0.743589 0.603460 -0.657994
O8    O     O_2   0.361129 0.575923 0.323673 -0.492620
O9    O     O_3   0.538409 0.719775 0.320161 -0.605519
O10   O     O_2   0.028381 0.365480 0.208073 -0.634072
O11   O     O_2   0.271297 0.330635 0.802377 -0.636922
O12   O     O_3   0.595758 0.268103 0.402538 -0.641615
O13   O     O_2   0.837444 0.658393 0.193451 -0.611370
O14   O     O_2   0.213590 0.642147 0.799714 -0.612533
O15   O     O_3   0.658250 0.379560 0.591530 -0.501554
O16   O     O_2   0.784991 0.452938 0.677454 -0.490385
O17   O     O_3   0.059493 0.698564 0.600741 -0.591149
O18   O     O_3   0.723530 0.275969 0.675118 -0.595725
O19   O     O_2   0.790750 0.271170 0.482550 -0.460093
O20   O     O_3   0.062300 0.331660 0.568480 -0.471237
O21   O     O_2   0.940926 0.166342 0.539499 -0.488811
O22   O     O_3   0.057039 0.180269 0.631838 -0.591593
O23   O     O_2   0.271610 0.450170 0.383330 -0.450166
O24   O     O_3   0.039630 0.450200 0.443530 -0.498024
O25   O     O_3   0.531440 0.620360 0.408460 -0.495519
O26   O     O_3   0.155838 0.303345 0.393088 -0.587318
O27   O     O_3   0.643350 0.612530 0.521650 -0.482019
O28   O     O_3   0.127390 0.668260 0.431510 -0.486173
P1    P     P_3+3 0.090020 0.577590 0.608380 1.005659
P2    P     P_3+3 0.614340 0.285150 0.467650 0.989889
P3    P     P_3+3 0.083011 0.209722 0.570590 0.966786
P4    P     P_3+3 0.099670 0.422330 0.391610 0.978667
P5    P     P_3+3 0.102289 0.789728 0.433745 0.953323
P6    P     P_3+3 0.655638 0.385755 0.656471 0.942155
P7    P     P_3+3 0.579411 0.726403 0.538359 0.954725
P8    P     P_3+3 0.528277 0.608743 0.342747 0.946512

loop_
_geom_bond_atom_site_label_1
_geom_bond_atom_site_label_2
_ccdc_geom_bond_type
C57   C58   A    
C53   C54   A    
O9    P8    S    
C78   H16   S    
Ba2   O28   S    
C45   H8    S    
Ba1   O1    S    
C72   H64   S    
Ba1   P1    S    
C77   H83   S    
C41   C42   A    
C69   H53   S    
C44   C74   S    
C45   O3    S    
O21   P3    D    
C2    C13   A    
C71   H60   S    
C57   H71   S    
Ba1   O4    S    
O5    P2    S    
C18   C19   A    
C20   H20   S    
C14   C72   S    
C4    H17   S    
C6    P4    S    
C17   C19   A    
C65   H33   S    
Ba2   O23   S    
O6    P7    D    
C32   C33   S    
C35   C38   A    
Ba2   O4    S    
C36   C37   A    
C61   H36   S    
C70   H55   S    
C52   C61   S    
C73   H69   S    
C40   H12   S    
C53   C60   A    
O18   P6    S    
C74   H72   S    
C68   H49   S    
C62   H37   S    
C55   P7    S    
C43   C71   S    
Ba1   Ba2   S    
C74   H73   S    
C59   H27   S    
O7    P7    S    
C22   C27   A    
C11   C38   A    
C17   C35   A    
C69   H51   S    
C9    C13   A    
C25   C42   A    
C4    H24   S    
C29   C30   S    
C73   H70   S    
C6    C7    D    
C27   O11   D    
C4    O22   S    
O23   P4    D    
C47   C73   S    
C64   H30   S    
O27   P7    S    
C7    C8    S    
Ba2   O27   S    
C5    P8    S    
C75   H77   S    
C37   C43   A    
C70   H57   S    
C21   H19   S    
O4    P1    S    
C56   H46   S    
C7    H18   S    
O15   P6    S    
C62   H67   S    
C56   H10   S    
C1    H78   S    
C61   H56   S    
Ba1   P2    S    
Ba2   P4    S    
C15   C31   D    
C12   H2    S    
C49   H26   S    
C2    O13   D    
Ba1   O15   S    
C31   C32   D    
C71   H61   S    
C34   H6    S    
C63   H38   S    
C46   C51   A    
C4    C16   S    
C26   O14   D    
Ba1   O5    S    
C28   H28   S    
C49   C50   A    
C17   C20   A    
O22   P3    S    
C79   O10   D    
C67   H13   S    
C66   H41   S    
C3    C5    S    
C18   C37   A    
C48   P3    S    
C70   H54   S    
C52   C65   S    
C78   H47   S    
O19   P2    D    
C34   H5    S    
C68   H48   S    
C77   H84   S    
C2    N1    Am   
C58   C59   A    
Ba2   O25   S    
C9    C36   A    
Ba1   O24   S    
C65   H35   S    
C35   C36   A    
C67   O9    S    
C40   H34   S    
C28   O26   S    
C16   C76   S    
C63   C66   S    
Ba1   O27   S    
C48   C49   A    
C24   C25   A    
O28   P5    S    
C64   H29   S    
O3    P5    S    
C23   H42   S    
C13   C39   A    
C1    C12   S    
C23   C34   S    
C52   C64   S    
C62   O12   S    
O20   P3    S    
C8    N1    S    
C5    C14   S    
C76   H81   S    
C53   C55   A    
Ba2   O6    S    
C52   O17   S    
C33   N2    S    
C45   H9    S    
C29   C33   D    
C78   H15   S    
C12   H1    S    
O12   P2    S    
O1    P1    D    
C18   C41   A    
C50   C51   A    
C71   H62   S    
Ba1   O19   S    
C58   P5    S    
O25   P8    S    
C72   H63   S    
C3    H21   S    
C46   C47   A    
C38   C70   S    
C15   H66   S    
C1    H7    S    
C54   C59   A    
C72   H65   S    
C28   C40   S    
C22   C24   A    
C67   H14   S    
C40   H23   S    
C66   H40   S    
C69   H52   S    
C9    C10   A    
O26   P4    S    
C42   H25   S    
C34   H4    S    
C63   H86   S    
C74   H74   S    
C73   H68   S    
Ba2   O24   S    
C27   N2    Am   
C62   C63   S    
O16   P6    D    
O2    P5    D    
C65   H32   S    
C3    C8    D    
C16   H44   S    
C50   C60   A    
C66   H39   S    
C45   C56   S    
C12   O18   S    
C23   O7    S    
C28   C77   S    
O24   P4    S    
C31   P1    S    
C30   P6    S    
C16   C75   S    
C19   C24   A    
C44   C51   A    
C32   H59   S    
C68   H50   S    
C79   N1    Am   
O8    P8    D    
C10   C79   A    
C60   H79   S    
C77   H85   S    
C23   H43   S    
C41   H22   S    
C39   H58   S    
C61   H45   S    
C55   C57   A    
C21   C22   A    
C75   H75   S    
C26   N2    Am   
C76   H82   S    
C10   C11   A    
C46   P2    S    
C76   H80   S    
C6    C14   D    
C47   C48   A    
C11   C68   S    
C44   C54   A    
C1    H3    S    
C15   C30   S    
C39   C43   A    
C20   C21   A    
O17   P1    S    
C67   C78   S    
C64   H31   S    
C56   H11   S    
Ba2   O5    S    
C75   H76   S    
C29   C69   S    
C25   C26   A    
Ba1   O20   S    
