data_mof_unit_10286.cif
_audit_creation_date              2012-12-10T17:20:38-0500
_audit_creation_method            fapswitch 2.2
_symmetry_space_group_name_H-M    P1
_symmetry_Int_Tables_number       1
_space_group_crystal_system       triclinic
_cell_length_a                    10.232387
_cell_length_b                    10.767308
_cell_length_c                    13.678004
_cell_angle_alpha                 91.476307
_cell_angle_beta                  74.661311
_cell_angle_gamma                 95.272171
_cell_volume                      1447.14773466

loop_
_atom_site_label
_atom_site_type_symbol
_atom_type_description
_atom_site_fract_x
_atom_site_fract_y
_atom_site_fract_z
_atom_type_partial_charge
C1    C     C_R   0.557412 0.732983 0.490765 0.782587
C2    C     C_2   0.072742 0.487199 0.495100 0.039103
C3    C     C_1   0.446451 0.498465 0.881931 0.032277
C4    C     C_1   0.554569 0.504902 0.117983 0.031849
C5    C     C_2   0.592404 0.866346 0.474168 0.254252
C6    C     C_2   0.412223 0.132924 0.494171 0.265164
C7    C     C_2   0.498643 0.931904 0.452810 -0.102444
C8    C     C_2   0.516195 0.065932 0.451150 -0.107741
C9    C     C_R   0.443391 0.266849 0.503678 0.783640
C10   C     C_R   0.476568 0.502923 0.688026 0.902805
C11   C     C_R   0.523506 0.497281 0.311944 0.883625
C12   C     C_1   0.542287 0.500654 0.206652 -0.061754
C13   C     C_1   0.458296 0.501119 0.793276 -0.080234
C14   C     C_2   0.559180 0.510160 0.013842 0.247403
C15   C     C_2   0.441909 0.494875 0.986099 0.236348
C16   C     C_2   0.924933 0.507037 0.509863 0.037476
H1    H     H_    0.619178 0.109270 0.423240 0.226287
H2    H     H_    0.767726 0.862542 0.503678 0.377506
H3    H     H_    0.401460 0.887565 0.446155 0.216118
H4    H     H_    0.118197 0.415346 0.444194 0.186719
H5    H     H_    0.877441 0.574009 0.564928 0.184708
H6    H     H_    0.204654 0.697827 0.740031 0.369742
H7    H     H_    0.830976 0.222803 0.262057 0.387883
H8    H     H_    0.154330 0.539498 0.988090 0.370326
H9    H     H_    0.833398 0.632801 0.024621 0.361822
H10   H     H_    0.220593 0.138904 0.563074 0.372387
N1    N     N_2   0.847200 0.448220 0.460120 0.038227
N2    N     N_2   0.152800 0.551780 0.539880 0.022030
O1    O     O_R   0.430150 0.692610 0.508030 -0.571458
O2    O     O_2   0.980055 0.613905 0.711332 -0.233556
O3    O     O_3   0.219145 0.735550 0.672288 -0.469042
O4    O     O_2   0.027553 0.400868 0.288449 -0.203776
O5    O     O_2   0.955675 0.233227 0.414916 -0.269557
O6    O     O_3   0.788089 0.285089 0.312014 -0.511440
O7    O     O_2   0.276357 0.346207 0.128315 -0.207547
O8    O     O_2   0.256593 0.570624 0.149440 -0.273246
O9    O     O_3   0.156625 0.454160 0.012621 -0.447763
O10   O     O_2   0.745193 0.433293 0.852114 -0.215177
O11   O     O_2   0.724333 0.657771 0.869649 -0.258721
O12   O     O_R   0.569850 0.307390 0.491970 -0.575048
O13   O     O_3   0.844344 0.552658 0.987402 -0.469006
O14   O     O_3   0.282011 0.075344 0.529914 -0.682078
O15   O     O_3   0.715198 0.924965 0.482647 -0.699083
O16   O     O_R   0.653100 0.659360 0.482430 -0.628027
O17   O     O_R   0.346900 0.340640 0.517570 -0.625324
O18   O     O_R   0.372470 0.518990 0.654990 -0.594265
O19   O     O_R   0.627530 0.481010 0.345010 -0.551169
O20   O     O_R   0.595430 0.485740 0.629390 -0.594227
O21   O     O_R   0.404570 0.514260 0.370610 -0.603106
O22   O     O_2   0.041005 0.766672 0.573426 -0.243124
S1    S     S_3+6 0.093480 0.668346 0.625416 0.160795
S2    S     S_3+6 0.909703 0.340086 0.367671 0.156861
S3    S     S_3+6 0.280250 0.466181 0.073448 0.085229
S4    S     S_3+6 0.720821 0.539324 0.926480 0.085646
Zn1   Zn    Zn3+2 0.351130 0.522200 0.517090 1.078922
Zn2   Zn    Zn3+2 0.648870 0.477800 0.482910 1.100175

loop_
_geom_bond_atom_site_label_1
_geom_bond_atom_site_label_2
_ccdc_geom_bond_type
O18   Zn1   S    
C10   O18   A    
C2    N2    D    
O2    S1    D    
C9    O17   A    
C16   H5    S    
C11   O21   A    
C4    C12   T    
C2    C16   S    
O16   Zn2   S    
C1    O16   A    
O6    S2    S    
C8    H1    S    
C3    C13   T    
C11   C12   S    
H7    O6    S    
O9    S3    S    
C6    C9    S    
C1    O1    A    
O22   S1    D    
C5    O15   S    
C7    C8    S    
H2    O15   S    
O5    S2    D    
C4    C14   S    
H10   O14   S    
C16   N1    D    
C1    C5    S    
C15   S3    S    
C14   S4    S    
N2    Zn1   S    
H8    O9    S    
C7    H3    S    
C10   O20   A    
C14   C15   D    
N2    S1    S    
O13   S4    S    
O11   S4    D    
O7    S3    D    
H6    O3    S    
C2    H4    S    
C3    C15   S    
N1    S2    S    
O17   Zn1   S    
O20   Zn2   S    
C6    O14   S    
H9    O13   S    
C5    C7    D    
N1    Zn2   S    
O4    S2    D    
C6    C8    D    
O8    S3    D    
O1    Zn1   S    
O21   Zn1   S    
C11   O19   A    
C9    O12   A    
O3    S1    S    
O19   Zn2   S    
O12   Zn2   S    
C10   C13   S    
O10   S4    D    
