data_mof_unit_28177.cif
_audit_creation_date              2013-03-05T15:51:07-0500
_audit_creation_method            fapswitch 2.2
_symmetry_space_group_name_H-M    P1
_symmetry_Int_Tables_number       1
_space_group_crystal_system       triclinic
_cell_length_a                    10.477541
_cell_length_b                    12.158558
_cell_length_c                    12.791455
_cell_angle_alpha                 94.331566
_cell_angle_beta                  91.399753
_cell_angle_gamma                 86.036139
_cell_volume                      1620.68277382

loop_
_atom_site_label
_atom_site_type_symbol
_atom_site_description
_atom_site_fract_x
_atom_site_fract_y
_atom_site_fract_z
_atom_type_partial_charge
O1    O     O_R   0.506270 0.421700 0.658830 -0.629242
O2    O     O_R   0.493730 0.578300 0.341170 -0.609131
O3    O     O_R   0.491200 0.609310 0.646410 -0.569147
O4    O     O_R   0.508800 0.390690 0.353590 -0.560133
C1    C     C_R   0.498120 0.522555 0.699806 0.921945
C2    C     C_R   0.502710 0.477275 0.300246 0.926367
O5    O     O_R   0.693580 0.406210 0.506230 -0.660793
O6    O     O_R   0.306420 0.593790 0.493770 -0.676547
O7    O     O_R   0.678510 0.593830 0.493810 -0.565028
O8    O     O_R   0.321490 0.406170 0.506190 -0.558554
C3    C     C_R   0.742259 0.500094 0.499792 0.905621
C4    C     C_R   0.257789 0.499916 0.500072 0.908670
Zn1   Zn    Zn3+2 0.510060 0.374730 0.508290 1.025028
Zn2   Zn    Zn3+2 0.489940 0.625270 0.491710 1.023729
C5    C     C_3   0.961717 0.427097 0.423118 -0.122533
C6    C     C_3   0.038459 0.573070 0.576373 -0.118402
C7    C     C_3   0.049439 0.397910 0.517046 -0.112295
C8    C     C_3   0.950743 0.602255 0.482443 -0.095078
H1    H     H_    0.093658 0.314575 0.531240 0.182594
H2    H     H_    0.906795 0.685564 0.467879 0.195962
H3    H     H_    0.925742 0.367640 0.360979 0.175837
H4    H     H_    0.074495 0.632378 0.638617 0.179512
C9    C     C_3   0.122631 0.499478 0.500174 -0.000319
C10   C     C_3   0.877501 0.500651 0.499360 -0.000870
C11   C     C_3   0.037665 0.528541 0.406289 -0.167622
C12   C     C_3   0.962548 0.471670 0.593224 -0.175400
H5    H     H_    0.073252 0.551642 0.330419 0.158890
H6    H     H_    0.927046 0.449158 0.669315 0.159866
C13   C     C_R   0.499712 0.461771 0.188797 -0.145966
C14   C     C_R   0.503073 0.536868 0.811346 -0.138391
C15   C     C_R   0.627057 0.590480 0.964370 -0.139821
C16   C     C_R   0.378188 0.405674 0.035323 -0.146057
C17   C     C_R   0.601852 0.594901 0.858483 -0.217424
C18   C     C_R   0.402672 0.401903 0.141323 -0.215583
C19   C     C_R   0.426137 0.474679 0.868741 0.265119
C20   C     C_R   0.577870 0.522797 0.131373 0.249850
C21   C     C_R   0.451735 0.468890 0.975746 0.005149
C22   C     C_R   0.552982 0.527931 0.024160 0.000662
H7    H     H_    0.340571 0.357850 0.187510 0.220411
H8    H     H_    0.664774 0.637890 0.812099 0.215603
H9    H     H_    0.707052 0.633608 0.997790 0.206298
H10   H     H_    0.299007 0.361627 0.001643 0.206074
N1    N     N_R   0.523490 0.207800 0.519350 -0.179035
N2    N     N_R   0.476510 0.792200 0.480650 -0.195570
C23   C     C_R   0.380576 0.951969 0.398867 0.139033
C24   C     C_R   0.601979 0.049744 0.612073 0.136047
C25   C     C_R   0.399803 0.836650 0.403800 0.270587
C26   C     C_R   0.606584 0.161437 0.590924 0.249546
C27   C     C_R   0.538288 0.860079 0.552291 0.402091
C28   C     C_R   0.452604 0.141245 0.453029 0.405218
C29   C     C_R   0.531461 0.977679 0.544415 -0.172549
C30   C     C_R   0.454421 0.024283 0.463979 -0.197488
N3    N     N_R   0.678666 0.581835 0.183282 0.198426
O9    O     O_R   0.766230 0.529256 0.237810 -0.430980
O10   O     O_R   0.673018 0.689341 0.188035 -0.399825
N4    N     N_R   0.325464 0.415304 0.817046 0.195287
O11   O     O_R   0.236179 0.467909 0.764233 -0.432549
O12   O     O_R   0.333296 0.307722 0.810189 -0.405930
N5    N     N_R   0.396593 0.187464 0.361988 0.204457
O13   O     O_R   0.284394 0.240230 0.365307 -0.441760
O14   O     O_R   0.457677 0.174477 0.274088 -0.418809
N6    N     N_R   0.610090 0.810514 0.634699 0.234829
O15   O     O_R   0.559383 0.809582 0.726395 -0.403261
O16   O     O_R   0.731223 0.782267 0.623308 -0.429749
N7    N     N_2   0.706309 0.221640 0.639921 -0.304304
H11   H     H_    0.685485 0.303642 0.660375 0.276788
C31   C     C_3   0.829888 0.199335 0.591231 -0.792177
H12   H     H_    0.903644 0.242106 0.639360 0.243789
H13   H     H_    0.827333 0.228499 0.511040 0.262646
H14   H     H_    0.858639 0.109605 0.585010 0.236422
N8    N     N_2   0.331313 0.767836 0.330262 -0.292694
H15   H     H_    0.294102 0.697620 0.351948 0.256895
C32   C     C_3   0.353164 0.773996 0.219452 -0.648133
H16   H     H_    0.383801 0.690964 0.183367 0.236234
H17   H     H_    0.428122 0.831412 0.205667 0.258538
H18   H     H_    0.262615 0.802813 0.180288 0.234569
N9    N     N_2   0.275319 0.991014 0.336125 -0.284293
H19   H     H_    0.293050 0.033970 0.272416 0.286889
C33   C     C_3   0.157050 0.019762 0.390792 -0.673784
H20   H     H_    0.080946 0.045916 0.334195 0.241829
H21   H     H_    0.169356 0.088330 0.451826 0.248929
H22   H     H_    0.126387 0.946866 0.428610 0.230730
N10   N     N_2   0.666327 0.012197 0.703514 -0.251839
H23   H     H_    0.763349 0.021236 0.706719 0.250067
C34   C     C_3   0.604530 0.050483 0.800857 -0.579742
H24   H     H_    0.653379 0.008845 0.866587 0.241237
H25   H     H_    0.502619 0.030155 0.797778 0.258880
H26   H     H_    0.609771 0.141267 0.816194 0.225653

loop_
_geom_bond_atom_site_label_1
_geom_bond_atom_site_label_2
_geom_bond_distance
_ccdc_geom_bond_type
N2    C27   1.367670 A    
C32   H16   1.107847 S    
N9    H19   1.027865 S    
O5    C3    1.290994 A    
C4    C9    1.416535 S    
C7    C9    1.529363 S    
C14   C19   1.399128 A    
C8    C10   1.530169 S    
C28   N5    1.426963 S    
C19   C21   1.394415 A    
C21   C22   1.424855 A    
C10   C12   1.525773 S    
C24   N10   1.425004 S    
C5    C11   1.544356 S    
C3    C10   1.417629 S    
N4    O11   1.300866 A    
C23   C25   1.408621 A    
O4    Zn1   2.002498 S    
N6    O16   1.300460 A    
C20   N3    1.438765 S    
C18   H7    1.083539 S    
N7    C31   1.450272 S    
C28   C30   1.438247 A    
C15   C17   1.377945 A    
C26   N7    1.422951 S    
N1    C26   1.373002 A    
N2    C25   1.373295 A    
N3    O10   1.301245 A    
N5    O13   1.299776 A    
C32   H17   1.111937 S    
O2    C2    1.296515 A    
C8    C11   1.542802 S    
N9    C33   1.446451 S    
C6    C12   1.543733 S    
C24   C26   1.408882 A    
N5    O14   1.301203 A    
C17   H8    1.083255 S    
C34   H25   1.111642 S    
C31   H12   1.109320 S    
O4    C2    1.294235 A    
C33   H21   1.110313 S    
C23   C30   1.420319 A    
C27   C29   1.437704 A    
C34   H24   1.110239 S    
C24   C29   1.416457 A    
C29   C30   1.419686 A    
C6    H4    1.110277 S    
C31   H13   1.109472 S    
C16   C18   1.377365 A    
O7    Zn2   1.986196 S    
N6    O15   1.300555 A    
N10   H23   1.029501 S    
C13   C20   1.398725 A    
C5    H3    1.110270 S    
O6    C4    1.290414 A    
C16   C21   1.401561 A    
O7    C3    1.286988 A    
C25   N8    1.425115 S    
O3    Zn2   2.002501 S    
O8    C4    1.287055 A    
C5    C10   1.526655 S    
N10   C34   1.447931 S    
C6    C9    1.526291 S    
C32   H18   1.109571 S    
O1    C1    1.294736 A    
O1    Zn1   1.967293 S    
C7    C12   1.543068 S    
Zn1   N1    2.040128 S    
Zn2   N2    2.040128 S    
C1    C14   1.424343 S    
C34   H26   1.111324 S    
C5    C7    1.542596 S    
O6    Zn2   1.987525 S    
C27   N6    1.426481 S    
C15   H9    1.081490 S    
C14   C17   1.392393 A    
C19   N4    1.438795 S    
O3    C1    1.296231 A    
O8    Zn1   1.986196 S    
C33   H22   1.111079 S    
N1    C28   1.369207 A    
N3    O9    1.300727 A    
C11   H5    1.110447 S    
C12   H6    1.110241 S    
C15   C22   1.401467 A    
C31   H14   1.109031 S    
C20   C22   1.394941 A    
N8    H15   1.022193 S    
C13   C18   1.392034 A    
C7    H1    1.110430 S    
N4    O12   1.301382 A    
C8    H2    1.110207 S    
C9    C11   1.525776 S    
O2    Zn2   1.967290 S    
C33   H20   1.110212 S    
O5    Zn1   1.987523 S    
C2    C13   1.423682 S    
C6    C8    1.542570 S    
N7    H11   1.021487 S    
N8    C32   1.449615 S    
C16   H10   1.081575 S    
C23   N9    1.423948 S    
