data_mof_unit_47840.cif
_audit_creation_date              2013-03-05T16:36:34-0500
_audit_creation_method            fapswitch 2.2
_symmetry_space_group_name_H-M    P1
_symmetry_Int_Tables_number       1
_space_group_crystal_system       triclinic
_cell_length_a                    19.368096
_cell_length_b                    18.378948
_cell_length_c                    10.401599
_cell_angle_alpha                 90.008125
_cell_angle_beta                  90.523361
_cell_angle_gamma                 89.969023
_cell_volume                      3702.45253101

loop_
_atom_site_label
_atom_site_type_symbol
_atom_site_description
_atom_site_fract_x
_atom_site_fract_y
_atom_site_fract_z
_atom_type_partial_charge
O1    O     O_R   0.398180 0.560840 0.499970 -0.549472
O2    O     O_R   0.601820 0.439160 0.500030 -0.562796
O3    O     O_R   0.601820 0.560840 0.500030 -0.548528
O4    O     O_R   0.398180 0.439160 0.499970 -0.561806
C1    C     C_R   0.365377 0.500046 0.501748 1.009417
C2    C     C_R   0.634589 0.499990 0.497615 1.010981
O5    O     O_R   0.499990 0.560810 0.316770 -0.639059
O6    O     O_R   0.500010 0.439190 0.683230 -0.637097
O7    O     O_R   0.500010 0.560810 0.683230 -0.640171
O8    O     O_R   0.499990 0.439190 0.316770 -0.638082
C3    C     C_R   0.487510 0.500000 0.259668 0.882995
C4    C     C_R   0.512272 0.500009 0.740476 0.883287
Zn1   Zn    Zn3+2 0.500000 0.581210 0.500000 1.029798
Zn2   Zn    Zn3+2 0.500000 0.418790 0.500000 1.036350
H1    H     H_    0.454986 0.249217 0.080626 0.206230
H2    H     H_    0.545734 0.750878 0.923465 0.172247
H3    H     H_    0.545323 0.249366 0.919525 0.206037
H4    H     H_    0.453104 0.750775 0.077297 0.171977
C5    C     C_R   0.450411 0.633443 0.099811 -0.127437
C6    C     C_R   0.548824 0.366667 0.900801 -0.048319
C7    C     C_R   0.548698 0.633558 0.900692 -0.125972
C8    C     C_R   0.451055 0.366509 0.099510 -0.046400
C9    C     C_R   0.473908 0.698986 0.046858 -0.160387
C10   C     C_R   0.525096 0.300970 0.952631 -0.163259
C11   C     C_R   0.525026 0.699045 0.953738 -0.159104
C12   C     C_R   0.474977 0.300891 0.047503 -0.162359
C13   C     C_R   0.519886 0.566791 0.944723 0.041815
C14   C     C_R   0.479477 0.433339 0.055410 0.008460
C15   C     C_R   0.479324 0.566739 0.055560 0.042311
C16   C     C_R   0.520085 0.433390 0.944797 0.008493
C17   C     C_R   0.527488 0.500071 0.878850 -0.116190
C18   C     C_R   0.471966 0.500008 0.121418 -0.115936
C19   C     C_R   0.745536 0.565701 0.470630 0.562189
C20   C     C_R   0.253963 0.566542 0.515508 0.566612
C21   C     C_R   0.253269 0.434347 0.498022 0.486478
C22   C     C_R   0.746766 0.434392 0.502530 0.486054
C23   C     C_R   0.817492 0.566725 0.466529 -0.123569
C24   C     C_R   0.181967 0.567680 0.515151 -0.123854
C25   C     C_R   0.181276 0.434148 0.495875 -0.111792
C26   C     C_R   0.818731 0.434154 0.500709 -0.110276
C27   C     C_R   0.853847 0.500747 0.483726 -0.007785
C28   C     C_R   0.145895 0.501200 0.503702 -0.007978
C29   C     C_R   0.710009 0.500041 0.490691 -0.335979
C30   C     C_R   0.289843 0.500287 0.505172 -0.339186
C31   C     C_R   0.962340 0.503762 0.607904 0.589829
C32   C     C_R   0.037424 0.499219 0.378864 0.591472
C33   C     C_R   0.033829 0.504674 0.612953 0.597277
C34   C     C_R   0.965898 0.499949 0.373711 0.600261
C35   C     C_R   0.071093 0.501792 0.498468 -0.327363
C36   C     C_R   0.928653 0.501592 0.488310 -0.328075
C37   C     C_R   0.543437 0.725853 0.420652 -0.067486
C38   C     C_R   0.460356 0.274134 0.585988 -0.016096
C39   C     C_R   0.456517 0.725910 0.579269 -0.067543
C40   C     C_R   0.539639 0.274075 0.414003 -0.017893
H5    H     H_    0.577093 0.695573 0.357724 0.218890
H6    H     H_    0.429523 0.304394 0.653793 0.189477
H7    H     H_    0.422845 0.695672 0.642163 0.215219
H8    H     H_    0.570475 0.304289 0.346205 0.187838
C41   C     C_R   0.544176 0.802068 0.418624 0.510310
C42   C     C_R   0.459447 0.197913 0.587666 0.526021
C43   C     C_R   0.455746 0.802127 0.581251 0.510567
C44   C     C_R   0.540527 0.197853 0.412294 0.525912
C45   C     C_R   0.499960 0.841513 0.499938 -0.204666
C46   C     C_R   0.499982 0.158597 0.499972 -0.186629
N1    N     N_R   0.500000 0.689440 0.500000 -0.170990
N2    N     N_R   0.500000 0.310560 0.500000 -0.158353
C47   C     C_R   0.437584 0.962091 0.494368 -0.088567
C48   C     C_R   0.562351 0.038312 0.505144 -0.087160
C49   C     C_R   0.562346 0.962010 0.505524 -0.088572
C50   C     C_R   0.437591 0.038393 0.494764 -0.086860
H9    H     H_    0.388714 0.933672 0.488021 0.203015
H10   H     H_    0.611166 0.066903 0.510727 0.198605
H11   H     H_    0.611212 0.933529 0.511866 0.202736
H12   H     H_    0.388781 0.067047 0.489189 0.198928
C51   C     C_R   0.499974 0.077399 0.499959 0.181182
C52   C     C_R   0.499962 0.922873 0.499942 0.180527
C53   C     C_2   0.390612 0.634996 0.189685 1.009797
O9    O     O_2   0.349310 0.584846 0.188838 -0.526427
O10   O     O_R   0.379353 0.692941 0.274240 -0.702917
H13   H     H_    0.418226 0.729575 0.277280 0.284816
C54   C     C_2   0.608837 0.364785 0.812890 0.979933
O11   O     O_2   0.619972 0.310879 0.747238 -0.567300
O12   O     O_R   0.654230 0.423812 0.809014 -0.755411
H14   H     H_    0.695349 0.414609 0.751900 0.386035
C55   C     C_2   0.608637 0.635232 0.811140 1.009272
O13   O     O_2   0.650023 0.585113 0.812061 -0.525060
O14   O     O_R   0.619936 0.693247 0.726808 -0.708300
H15   H     H_    0.581038 0.729892 0.723736 0.285138
C56   C     C_2   0.391310 0.364355 0.188056 0.978171
O15   O     O_2   0.380577 0.310334 0.253597 -0.570660
O16   O     O_R   0.345735 0.423250 0.192801 -0.756476
H16   H     H_    0.304929 0.413837 0.250566 0.382109
F1    F     F_    0.710408 0.629415 0.457379 -0.581710
F2    F     F_    0.288791 0.630681 0.522997 -0.576454
F3    F     F_    0.287452 0.369701 0.494591 -0.591866
F4    F     F_    0.712772 0.370031 0.514555 -0.593079
C57   C     C_2   0.853400 0.637488 0.445843 1.077211
O17   O     O_2   0.828393 0.682612 0.372557 -0.498969
O18   O     O_R   0.915005 0.653292 0.511118 -0.785887
H17   H     H_    0.933652 0.703266 0.489270 0.364618
C58   C     C_2   0.145692 0.639038 0.525220 1.075853
O19   O     O_2   0.169406 0.686905 0.594370 -0.499242
O20   O     O_R   0.085231 0.652212 0.454534 -0.783349
H18   H     H_    0.066200 0.702906 0.469126 0.364547
C59   C     C_2   0.144209 0.363252 0.485434 1.066193
O21   O     O_2   0.167786 0.314476 0.418876 -0.504163
O22   O     O_R   0.083090 0.351592 0.552855 -0.785581
H19   H     H_    0.063532 0.301059 0.538544 0.362900
C60   C     C_2   0.856084 0.363734 0.517068 1.064527
O23   O     O_2   0.833631 0.317443 0.590097 -0.504146
O24   O     O_R   0.916193 0.349665 0.447922 -0.784064
H20   H     H_    0.936075 0.299721 0.466751 0.362810
F5    F     F_    0.925760 0.505626 0.718627 -0.540914
F6    F     F_    0.074032 0.496679 0.268224 -0.540868
F7    F     F_    0.066914 0.507161 0.728540 -0.540489
F8    F     F_    0.932782 0.497857 0.258138 -0.539643
F9    F     F_    0.586426 0.836771 0.335272 -0.614142
F10   F     F_    0.420533 0.162977 0.676212 -0.621031
F11   F     F_    0.413471 0.836889 0.664563 -0.614871
F12   F     F_    0.579432 0.162859 0.323733 -0.621660

loop_
_geom_bond_atom_site_label_1
_geom_bond_atom_site_label_2
_geom_bond_distance
_ccdc_geom_bond_type
O14   H15   1.010557 S    
C58   O19   1.223300 D    
C13   C15   1.401032 A    
C21   C25   1.394347 A    
O24   H20   1.013667 S    
O3    C2    1.285950 A    
C23   C57   1.491699 S    
C54   O11   1.223377 D    
C33   C35   1.399077 A    
Zn1   N1    1.989152 S    
C53   O9    1.220728 D    
C48   C51   1.405856 A    
O5    C3    1.287537 A    
C59   O22   1.398039 S    
C32   C35   1.400135 A    
O1    C1    1.285837 A    
C10   C12   1.390537 A    
C24   C28   1.412267 A    
C15   C18   1.412771 A    
C60   O24   1.398011 S    
C16   C17   1.412520 A    
C47   H9    1.082791 S    
C43   F11   1.357125 S    
C45   C52   1.495309 S    
C49   C52   1.407233 A    
C43   C45   1.409514 A    
C37   N1    1.360250 A    
C31   C33   1.385242 A    
C5    C53   1.495272 S    
O7    Zn1   1.942464 S    
C44   C46   1.408125 A    
C38   C42   1.401091 A    
C57   O18   1.398045 S    
C39   C43   1.401009 A    
C46   C51   1.492323 S    
C6    C10   1.401806 A    
C48   C49   1.402351 A    
C50   H12   1.082992 S    
O22   H19   1.013675 S    
C42   F10   1.357195 S    
C56   O16   1.397482 S    
C39   N1    1.360261 A    
C44   F12   1.357198 S    
O3    Zn1   2.007078 S    
C48   H10   1.082991 S    
C34   F8    1.357918 S    
C55   O14   1.399393 S    
C7    C13   1.425662 A    
C58   O20   1.398048 S    
C8    C14   1.423937 A    
C6    C54   1.485853 S    
O4    Zn2   2.007082 S    
O2    C2    1.286241 A    
C54   O12   1.397565 S    
C57   O17   1.223304 D    
C25   C28   1.412433 A    
C32   C34   1.385931 A    
C53   O10   1.399383 S    
C7    C55   1.495362 S    
H3    C10   1.083293 S    
C32   F6    1.358005 S    
C13   C17   1.412883 A    
H4    C9    1.081853 S    
C19   C29   1.406027 A    
C14   C18   1.412573 A    
C20   C30   1.406302 A    
O8    Zn2   1.942464 S    
O16   H16   1.012153 S    
C39   H7    1.081860 S    
H1    C12   1.083292 S    
C6    C16   1.423662 A    
C40   C44   1.401093 A    
C55   O13   1.220716 D    
C19   C23   1.394828 A    
C5    C9    1.402478 A    
C22   F4    1.360417 S    
O12   H14   1.012043 S    
C22   C26   1.394119 A    
O6    C4    1.287603 A    
Zn2   N2    1.989152 S    
C49   H11   1.082791 S    
C21   C30   1.405701 A    
C33   F7    1.357987 S    
C26   C27   1.412405 A    
C1    C30   1.463711 S    
C3    C18   1.466503 S    
C2    C29   1.463180 S    
C4    C17   1.466534 S    
O1    Zn1   2.007479 S    
C5    C15   1.425561 A    
C27   C36   1.449290 S    
C50   C51   1.405866 A    
C38   N2    1.360516 A    
C40   H8    1.081918 S    
H2    C11   1.081836 S    
C25   C59   1.491497 S    
C7    C11   1.402525 A    
O6    Zn2   1.942360 S    
C20   C24   1.394557 A    
C20   F2    1.360337 S    
O4    C1    1.286717 A    
C19   F1    1.360354 S    
C26   C60   1.491380 S    
C40   N2    1.360514 A    
C21   F3    1.360441 S    
C24   C58   1.491595 S    
C59   O21   1.223355 D    
C41   C45   1.409508 A    
O18   H17   1.013700 S    
C42   C46   1.408120 A    
C47   C50   1.402363 A    
C14   C16   1.399598 A    
C60   O23   1.223343 D    
C31   C36   1.399975 A    
C34   C36   1.399230 A    
C8    C56   1.486051 S    
C37   H5    1.081839 S    
C9    C11   1.391365 A    
C23   C27   1.412463 A    
O2    Zn2   2.007476 S    
O7    C4    1.287247 A    
O8    C3    1.287471 A    
C28   C35   1.449335 S    
O10   H13   1.010584 S    
C31   F5    1.358081 S    
O5    Zn1   1.942360 S    
C37   C41   1.400987 A    
C41   F9    1.357125 S    
C8    C12   1.401963 A    
O20   H18   1.013700 S    
C22   C29   1.405453 A    
C47   C52   1.407233 A    
C56   O15   1.223406 D    
C38   H6    1.081920 S    
