data_mof_unit_12861.cif
_audit_creation_date              2012-12-10T17:38:50-0500
_audit_creation_method            fapswitch 2.2
_symmetry_space_group_name_H-M    P1
_symmetry_Int_Tables_number       1
_space_group_crystal_system       triclinic
_cell_length_a                    12.315158
_cell_length_b                    13.175373
_cell_length_c                    23.512043
_cell_angle_alpha                 77.767943
_cell_angle_beta                  101.18502
_cell_angle_gamma                 116.534713
_cell_volume                      3314.0530275

loop_
_atom_site_label
_atom_site_type_symbol
_atom_type_description
_atom_site_fract_x
_atom_site_fract_y
_atom_site_fract_z
_atom_type_partial_charge
C1    C     C_R   0.854869 0.286557 0.505034 0.780087
C2    C     C_R   0.810276 0.321390 0.032304 -0.230808
C3    C     C_R   0.808402 0.320929 0.972834 0.648827
C4    C     C_R   0.901440 0.408564 0.941004 -0.153499
C5    C     C_R   0.996398 0.496697 0.969977 -0.092955
C6    C     C_R   0.090146 0.585009 0.938939 0.017576
C7    C     C_R   0.184208 0.672348 0.968171 -0.149513
C8    C     C_R   0.185469 0.672175 0.027602 -0.157163
C9    C     C_R   0.903171 0.410934 0.881053 0.580078
C10   C     C_R   0.087387 0.583772 0.879227 0.537823
C11   C     C_R   0.905619 0.516088 0.749249 -0.100100
C12   C     C_R   0.999285 0.499513 0.608943 0.798813
C13   C     C_R   0.906574 0.516677 0.689973 -0.219380
C14   C     C_R   0.997764 0.498648 0.671504 -0.042914
C15   C     C_R   0.087509 0.479586 0.713416 -0.211244
C16   C     C_R   0.086315 0.479046 0.772619 -0.093541
C17   C     C_R   0.995570 0.497459 0.790742 0.339253
C18   C     C_R   0.091047 0.479775 0.250767 -0.103020
C19   C     C_R   0.091278 0.480617 0.309995 -0.217324
C20   C     C_R   0.000790 0.499515 0.328558 -0.039336
C21   C     C_R   0.910313 0.517655 0.286799 -0.220132
C22   C     C_R   0.910291 0.516718 0.227648 -0.099500
C23   C     C_R   0.145087 0.713421 0.491465 0.806067
C24   C     C_R   0.000527 0.497723 0.209422 0.349207
C25   C     C_R   0.275271 0.021407 0.422217 -0.180353
C26   C     C_R   0.227952 0.834529 0.479436 -0.050755
C27   C     C_R   0.815542 0.085212 0.543093 -0.181414
C28   C     C_R   0.736813 0.970321 0.554536 -0.135068
C29   C     C_R   0.613416 0.932620 0.534065 -0.175320
C30   C     C_R   0.566527 0.009380 0.499391 0.080860
C31   C     C_R   0.649948 0.123777 0.482063 0.080824
C32   C     C_R   0.439826 0.976093 0.480772 0.074583
C33   C     C_R   0.400024 0.053319 0.440928 0.162750
C34   C     C_R   0.000414 0.500078 0.391070 0.792919
C35   C     C_R   0.485248 0.160408 0.419045 -0.229562
C36   C     C_R   0.608423 0.194520 0.438527 -0.189781
C37   C     C_R   0.351051 0.868460 0.500940 -0.244243
C38   C     C_R   0.189539 0.912066 0.441072 -0.188389
C39   C     C_R   0.773026 0.163546 0.508269 -0.102785
C40   C     C_R   0.346695 0.328718 0.593209 -0.288602
C41   C     C_R   0.759698 0.645565 0.421152 0.072353
C42   C     C_R   0.663174 0.677285 0.404007 -0.245603
C43   C     C_R   0.559585 0.622321 0.433619 -0.191784
C44   C     C_R   0.551375 0.534481 0.481137 -0.007711
C45   C     C_R   0.091854 0.583092 0.118815 0.533421
C46   C     C_R   0.652975 0.505179 0.497243 0.287473
C47   C     C_R   0.446964 0.475053 0.513366 -0.036375
C48   C     C_R   0.446761 0.388200 0.560777 0.171301
C49   C     C_R   0.546526 0.361288 0.575810 -0.274383
C50   C     C_R   0.647268 0.418609 0.544924 -0.190223
C51   C     C_R   0.341942 0.497629 0.500943 0.017953
C52   C     C_R   0.246780 0.355306 0.578854 0.071696
C53   C     C_R   0.907592 0.410449 0.121161 0.571652
C54   C     C_R   0.904381 0.408731 0.061386 -0.109518
C55   C     C_R   0.997801 0.496672 0.030174 -0.019060
C56   C     C_R   0.092667 0.584683 0.059054 0.008143
Cu1   Cu    Cu3+1 0.098270 0.475410 0.513370 0.939487
Cu2   Cu    Cu3+1 0.901730 0.524590 0.486630 0.926115
H1    H     H_    0.737467 0.252886 0.055470 0.215010
H2    H     H_    0.162194 0.466488 0.341140 0.157620
H3    H     H_    0.839444 0.532462 0.299750 0.159440
H4    H     H_    0.840314 0.531049 0.195859 0.145918
H5    H     H_    0.094336 0.886742 0.423864 0.150368
H6    H     H_    0.456628 0.218238 0.386628 0.149530
H7    H     H_    0.244461 0.079937 0.391702 0.138860
H8    H     H_    0.375040 0.808145 0.533099 0.150312
H9    H     H_    0.909551 0.113188 0.562778 0.154590
H10   H     H_    0.558013 0.842355 0.545078 0.131282
H11   H     H_    0.770940 0.910488 0.581033 0.147519
H12   H     H_    0.670439 0.275944 0.417619 0.177514
H13   H     H_    0.169165 0.309801 0.603695 0.124987
H14   H     H_    0.547088 0.295178 0.612146 0.165482
H15   H     H_    0.345895 0.262199 0.629497 0.149497
H16   H     H_    0.333958 0.561887 0.465674 0.123906
H17   H     H_    0.839759 0.688711 0.397932 0.126929
H18   H     H_    0.487714 0.650420 0.418485 0.140346
H19   H     H_    0.668668 0.744721 0.367640 0.155344
H20   H     H_    0.718954 0.392071 0.560403 0.209204
H21   H     H_    0.257221 0.741122 0.945248 0.195956
H22   H     H_    0.259342 0.740813 0.048768 0.194296
H23   H     H_    0.835313 0.530566 0.762988 0.146254
H24   H     H_    0.836055 0.531284 0.658722 0.163252
H25   H     H_    0.158756 0.465228 0.700546 0.161832
H26   H     H_    0.155847 0.464182 0.804522 0.148052
H27   H     H_    0.160949 0.464826 0.236945 0.142899
N1    N     N_R   0.000206 0.496877 0.148501 -0.469176
N2    N     N_R   0.995138 0.497548 0.851689 -0.480577
N3    N     N_R   0.246280 0.438190 0.533650 -0.180667
N4    N     N_R   0.754320 0.561190 0.466710 -0.206686
O1    O     O_R   0.972510 0.318130 0.516820 -0.578213
O2    O     O_2   0.819385 0.326120 0.151856 -0.533223
O3    O     O_2   0.814672 0.327112 0.852289 -0.451026
O4    O     O_2   0.175751 0.668431 0.848735 -0.530113
O5    O     O_R   0.806530 0.359650 0.494230 -0.604003
O6    O     O_R   0.082990 0.479200 0.593420 -0.581881
O7    O     O_R   0.917010 0.520720 0.570830 -0.599332
O8    O     O_R   0.193470 0.640350 0.505770 -0.585221
O9    O     O_R   0.027490 0.681870 0.483180 -0.584532
O10   O     O_R   0.082990 0.479280 0.429170 -0.583679
O11   O     O_R   0.917010 0.520800 0.406580 -0.594937
O12   O     O_2   0.181192 0.667517 0.146948 -0.535269
F1    F     F_    0.715100 0.234354 0.946959 -0.605568

loop_
_geom_bond_atom_site_label_1
_geom_bond_atom_site_label_2
_ccdc_geom_bond_type
C41   N4    A    
C55   C56   A    
C1    O1    A    
C41   C42   A    
C35   C36   A    
Cu2   O9    S    
C51   H16   S    
C8    C56   A    
C7    C8    A    
C46   N4    A    
C53   C54   A    
C11   H23   S    
C18   C24   A    
C28   C29   A    
C5    C6    A    
C41   H17   S    
C15   C16   A    
Cu1   O10   S    
C16   H26   S    
C40   H15   S    
C18   C19   A    
C23   C26   S    
Cu2   O7    S    
C28   H11   S    
C45   C56   A    
C44   C46   A    
C1    O5    A    
C49   H14   S    
C53   O2    S    
C34   O11   A    
C12   O6    A    
C35   H6    S    
C21   H3    S    
C44   C47   A    
C20   C34   S    
C21   C22   A    
C50   H20   S    
C9    O3    S    
C36   H12   S    
C10   N2    A    
C18   H27   S    
Cu1   O1    S    
C52   N3    A    
C25   H7    S    
C2    C54   A    
C27   C39   A    
C2    H1    S    
C26   C38   A    
C47   C51   A    
C10   O4    S    
C40   C52   A    
C13   H24   S    
C43   C44   A    
C29   C30   A    
C25   C38   A    
C22   H4    S    
C29   H10   S    
C47   C48   A    
C14   C15   A    
C30   C31   A    
Cu1   O8    S    
C37   H8    S    
C34   O10   A    
Cu2   O11   S    
C32   C37   A    
C53   N1    A    
C45   O12   S    
C3    F1    S    
C48   C49   A    
C23   O8    A    
C12   C14   S    
C22   C24   A    
C42   C43   A    
C3    C4    A    
C7    H21   S    
C38   H5    S    
C43   H18   S    
C40   C48   A    
C54   C55   A    
C11   C17   A    
C17   N2    S    
C5    C55   A    
C4    C5    A    
C51   N3    A    
C6    C10   A    
C15   H25   S    
C26   C37   A    
C6    C7    A    
C19   H2    S    
C46   C50   A    
Cu1   N3    S    
C32   C33   A    
C19   C20   A    
C45   N1    A    
Cu2   O5    S    
C52   H13   S    
C9    N2    A    
C30   C32   A    
C11   C13   A    
Cu1   Cu2   S    
C16   C17   A    
C33   C35   A    
C31   C39   A    
C2    C3    A    
Cu2   N4    S    
C27   H9    S    
C1    C39   S    
C23   O9    A    
C20   C21   A    
C42   H19   S    
C49   C50   A    
Cu1   O6    S    
C27   C28   A    
C8    H22   S    
C31   C36   A    
C12   O7    A    
C4    C9    A    
C13   C14   A    
C24   N1    S    
C25   C33   A    
