data_mof_unit_26104.cif
_audit_creation_date              2012-12-11T14:23:08-0500
_audit_creation_method            fapswitch 2.2
_symmetry_space_group_name_H-M    P1
_symmetry_Int_Tables_number       1
_space_group_crystal_system       triclinic
_cell_length_a                    10.952045
_cell_length_b                    10.97747
_cell_length_c                    18.825871
_cell_angle_alpha                 91.053184
_cell_angle_beta                  90.1146
_cell_angle_gamma                 61.279719
_cell_volume                      1984.51217587

loop_
_atom_site_label
_atom_site_type_symbol
_atom_type_description
_atom_site_fract_x
_atom_site_fract_y
_atom_site_fract_z
_atom_type_partial_charge
C1    C     C_R   0.235995 0.646088 0.609641 0.534237
C2    C     C_R   0.579543 0.135337 0.705467 -0.101616
C3    C     C_R   0.582126 0.133461 0.777863 0.222564
C4    C     C_R   0.649948 0.617781 0.603034 0.523263
C5    C     C_R   0.931180 0.116981 0.807867 -0.152981
C6    C     C_R   0.044514 0.098119 0.766393 -0.112500
C7    C     C_R   0.039802 0.093285 0.692657 0.205297
C8    C     C_R   0.919264 0.107602 0.660014 -0.090903
C9    C     C_R   0.679512 0.148753 0.667057 -0.036950
C10   C     C_R   0.183728 0.661987 0.834708 0.019319
C11   C     C_R   0.179189 0.552562 0.795141 0.035341
C12   C     C_3   0.731142 0.514271 0.798081 0.187679
C13   C     C_R   0.172955 0.557856 0.719742 0.033496
C14   C     C_R   0.204975 0.760690 0.725700 -0.152607
C15   C     C_R   0.204440 0.760050 0.798749 -0.136024
C16   C     C_R   0.631753 0.221065 0.599601 0.537919
C17   C     C_R   0.170160 0.443354 0.828556 -0.023646
C18   C     C_R   0.126499 0.361718 0.791152 -0.072389
C19   C     C_R   0.110061 0.373588 0.718148 -0.117210
C20   C     C_R   0.138801 0.466142 0.682170 -0.099902
C21   C     C_R   0.192924 0.659851 0.684838 0.003308
C22   C     C_R   0.657009 0.685103 0.172696 -0.004878
C23   C     C_3   0.694825 0.666667 0.815243 0.048404
C24   C     C_R   0.702005 0.552269 0.199738 -0.061078
C25   C     C_R   0.748698 0.528885 0.270663 -0.009196
C26   C     C_R   0.634307 0.776807 0.293881 -0.182784
C27   C     C_R   0.626480 0.796899 0.220329 -0.167270
C28   C     C_R   0.225142 0.647158 0.400079 0.526712
C29   C     C_R   0.736619 0.438547 0.152560 0.258157
C30   C     C_R   0.860919 0.317072 0.163931 0.261570
C31   C     C_R   0.923692 0.298036 0.230057 -0.110734
C32   C     C_R   0.868480 0.398115 0.284399 0.190210
C33   C     C_R   0.683315 0.643655 0.320012 0.021730
C34   C     C_3   0.662719 0.640787 0.679618 0.010882
C35   C     C_R   0.645350 0.180145 0.170478 0.037746
C36   C     C_R   0.508361 0.267800 0.193070 0.023700
C37   C     C_R   0.481235 0.288791 0.266696 -0.004148
C38   C     C_R   0.731342 0.170051 0.288671 -0.150446
C39   C     C_R   0.753410 0.126989 0.219287 -0.152270
C40   C     C_R   0.647854 0.621072 0.393034 0.535135
C41   C     C_R   0.396961 0.320397 0.144571 -0.073564
C42   C     C_R   0.263347 0.359737 0.168051 -0.112619
C43   C     C_R   0.238905 0.357528 0.239922 -0.127776
C44   C     C_R   0.343150 0.332503 0.289423 -0.098871
C45   C     C_3   0.779942 0.677416 0.691017 -0.304879
C46   C     C_R   0.596109 0.252704 0.313529 -0.000505
C47   C     C_R   0.047667 0.746522 0.195522 -0.006264
C48   C     C_R   0.122439 0.811782 0.225412 0.032091
C49   C     C_R   0.206045 0.747836 0.282673 0.030831
C50   C     C_R   0.062660 0.640121 0.308805 -0.156727
C51   C     C_R   0.010809 0.667744 0.239557 -0.163088
C52   C     C_R   0.579510 0.292753 0.388151 0.543145
C53   C     C_R   0.126712 0.930425 0.198121 -0.092166
C54   C     C_R   0.224378 0.968139 0.220569 -0.126586
C55   C     C_R   0.317673 0.891281 0.271360 -0.094929
C56   C     C_3   0.693563 0.503967 0.719937 0.181860
C57   C     C_R   0.319237 0.771814 0.295384 -0.066173
C58   C     C_R   0.168150 0.670955 0.328618 0.002853
C59   C     C_R   0.706129 0.093380 0.893148 0.565149
C60   C     C_R   0.720893 0.684903 0.890241 0.562045
C61   C     C_R   0.119977 0.704337 0.906040 0.545438
C62   C     C_R   0.674718 0.110622 0.102231 0.553324
C63   C     C_R   0.698588 0.695198 0.099573 0.557856
C64   C     C_3   0.541403 0.764306 0.793588 -0.220844
C65   C     C_R   0.022682 0.751904 0.118628 0.547219
C66   C     C_3   0.528448 0.761531 0.712230 -0.210815
C67   C     C_R   0.697443 0.128050 0.816399 0.044382
C68   C     C_3   0.791170 0.704124 0.770468 -0.284197
C69   C     C_R   0.810510 0.124514 0.776346 0.002342
C70   C     C_R   0.802853 0.127996 0.700682 -0.010935
Cl1   Cl    Cl    0.429347 0.140899 0.813407 -0.664907
Cl2   Cl    Cl    0.982810 0.360683 0.357470 -0.664742
Cr1   Cr    Cr6+3 0.392940 0.397950 0.502230 1.030590
Cr2   Cr    Cr6+3 0.398400 0.708500 0.501260 1.023678
Cr3   Cr    Cr6+3 0.708640 0.393530 0.496460 1.057541
Cr4   Cr    Cr6+3 0.937880 0.938320 0.007620 1.022840
Cr5   Cr    Cr6+3 0.625560 0.937220 0.994510 1.052916
Cr6   Cr    Cr6+3 0.938080 0.625010 0.001190 1.006719
H1    H     H_    0.505983 0.872504 0.811404 0.194974
H2    H     H_    0.471805 0.730264 0.819118 0.179721
H3    H     H_    0.195035 0.420027 0.883896 0.165632
H4    H     H_    0.212079 0.842585 0.827252 0.136089
H5    H     H_    0.106328 0.289460 0.819901 0.125638
H6    H     H_    0.070767 0.315024 0.688999 0.167733
H7    H     H_    0.117979 0.474800 0.625890 0.140371
H8    H     H_    0.600742 0.864859 0.330254 0.131091
H9    H     H_    0.598511 0.899146 0.200746 0.145381
H10   H     H_    0.018512 0.205367 0.239650 0.154990
H11   H     H_    0.440331 0.745071 0.698394 0.179129
H12   H     H_    0.784304 0.411785 0.695506 0.119391
H13   H     H_    0.820443 0.130432 0.323634 0.169358
H14   H     H_    0.413947 0.321348 0.088007 0.151734
H15   H     H_    0.855361 0.047883 0.204296 0.134623
H16   H     H_    0.179762 0.387035 0.130469 0.152343
H17   H     H_    0.136430 0.381469 0.257021 0.173782
H18   H     H_    0.313773 0.339354 0.344259 0.193888
H19   H     H_    0.028057 0.587446 0.344900 0.184590
H20   H     H_    0.054570 0.997988 0.160127 0.208390
H21   H     H_    0.944760 0.626429 0.220174 0.138303
H22   H     H_    0.508378 0.862816 0.690063 0.157017
H23   H     H_    0.900834 0.642511 0.787041 0.139924
H24   H     H_    0.228015 0.056833 0.198591 0.134095
H25   H     H_    0.383585 0.929026 0.293248 0.134625
H26   H     H_    0.403474 0.701116 0.326679 0.151761
H27   H     H_    0.761529 0.815511 0.779458 0.141265
H28   H     H_    0.759793 0.771296 0.660644 0.132440
H29   H     H_    0.845541 0.445663 0.803786 0.071137
H30   H     H_    0.136660 0.069124 0.602659 0.330446
H31   H     H_    0.569763 0.534207 0.096122 0.325945
H32   H     H_    0.879341 0.253646 0.065093 0.375678
H33   H     H_    0.720913 0.425149 0.885037 0.325536
H34   H     H_    0.877699 0.590932 0.670491 0.129271
H35   H     H_    0.559799 0.467645 0.667489 0.330284
H36   H     H_    0.488872 0.140303 0.679366 0.193914
H37   H     H_    0.941454 0.127029 0.864130 0.153711
H38   H     H_    0.139563 0.081780 0.791926 0.151589
H39   H     H_    0.919969 0.095868 0.602839 0.128626
H40   H     H_    0.220084 0.839279 0.700852 0.188333
O1    O     O_R   0.507340 0.255690 0.581430 -0.509983
O2    O     O_R   0.837290 0.593240 0.915240 -0.537304
O3    O     O_R   0.065320 0.635310 0.931580 -0.521766
O4    O     O_R   0.280360 0.527380 0.578910 -0.502140
O5    O     O_R   0.068470 0.828620 0.091850 -0.519958
O6    O     O_R   0.799150 0.057200 0.079350 -0.499947
O7    O     O_R   0.585220 0.080180 0.076770 -0.533712
O8    O     O_R   0.627170 0.809480 0.067050 -0.503690
O9    O     O_R   0.816200 0.596410 0.076500 -0.496004
O10   O     O_R   0.045770 0.638240 0.081070 -0.504019
O11   O     O_3   0.833840 0.833520 0.001110 -0.291267
O12   O     O_R   0.524510 0.695820 0.424050 -0.527197
O13   O     O_R   0.260600 0.739610 0.584580 -0.516137
O14   O     O_R   0.532370 0.695050 0.573830 -0.499247
O15   O     O_R   0.744850 0.503430 0.576380 -0.528984
O16   O     O_R   0.699080 0.276500 0.571950 -0.518102
O17   O     O_R   0.498860 0.256520 0.419860 -0.528502
O18   O     O_R   0.272490 0.528150 0.429140 -0.526326
O19   O     O_R   0.252110 0.740440 0.423010 -0.512794
O20   O     O_3   0.156370 0.070153 0.654035 -0.721721
O21   O     O_3   0.662656 0.450840 0.091067 -0.708168
O22   O     O_3   0.927611 0.219065 0.110789 -0.726746
O23   O     O_R   0.736370 0.504260 0.414810 -0.436659
O24   O     O_3   0.659230 0.470223 0.844111 -0.639277
O25   O     O_3   0.577008 0.481708 0.717793 -0.639444
O26   O     O_R   0.691220 0.277270 0.422180 -0.483125
O27   O     O_3   0.499990 0.499990 0.499980 -0.292171
O28   O     O_R   0.089570 0.825450 0.930590 -0.514060
O29   O     O_R   0.818700 0.054260 0.929860 -0.528473
O30   O     O_R   0.606310 0.077010 0.915520 -0.441349
O31   O     O_R   0.646730 0.806540 0.917560 -0.493851

loop_
_geom_bond_atom_site_label_1
_geom_bond_atom_site_label_2
_ccdc_geom_bond_type
C24   C25   A    
C34   C56   S    
C12   H29   S    
Cr1   O1    S    
Cr2   O14   S    
C11   C13   A    
C41   C42   A    
Cr2   O27   S    
Cr6   O2    S    
C19   C20   A    
C61   O28   A    
C16   O16   A    
C34   C66   S    
C62   O6    A    
Cr3   O16   S    
C7    C8    A    
C32   Cl2   S    
C53   C54   A    
Cr3   O27   S    
C1    C21   S    
C12   C23   S    
C18   H5    S    
C26   C27   A    
C52   O26   A    
C14   C21   A    
C36   C37   A    
C9    C16   S    
C10   C15   A    
C30   C31   A    
C55   H25   S    
C49   C57   A    
C61   O3    A    
C18   C19   A    
C66   H22   S    
Cr6   O3    S    
C1    O4    A    
C39   H15   S    
C5    C69   A    
Cr3   O23   S    
H33   O24   S    
C59   C67   S    
C22   C63   S    
C24   C29   A    
C56   O25   S    
C11   C17   A    
Cr1   O17   S    
Cr4   O29   S    
C14   H40   S    
C43   H17   S    
Cr6   O11   S    
C66   H11   S    
Cr3   O26   S    
C59   O30   A    
C25   C32   A    
C56   H12   S    
Cr4   O28   S    
C28   O18   A    
C40   O23   A    
C5    H37   S    
C64   H2    S    
C36   C41   A    
C23   C60   S    
Cr6   O9    S    
C8    H39   S    
C50   C51   A    
C15   H4    S    
C51   H21   S    
C48   C53   A    
C29   O21   S    
Cr2   O19   S    
C4    C34   S    
C45   H34   S    
C33   C40   S    
C30   O22   S    
Cr4   O6    S    
C65   O10   A    
C38   C39   A    
C9    C70   A    
C4    O14   A    
C10   C11   A    
C16   O1    A    
Cr5   O31   S    
C47   C51   A    
C38   H13   S    
C49   C58   A    
H35   O25   S    
Cr1   O27   S    
C67   C69   A    
C35   C36   A    
C50   C58   A    
C23   C68   S    
C3    Cl1   S    
C43   C44   A    
C29   C30   A    
C44   H18   S    
C62   O7    A    
Cr4   O11   S    
C26   C33   A    
C47   C48   A    
Cr1   O18   S    
C26   H8    S    
C20   H7    S    
C45   C68   S    
C17   C18   A    
C13   C21   A    
C34   C45   S    
Cr5   O11   S    
C68   H23   S    
C27   H9    S    
Cr5   O30   S    
C6    H38   S    
C12   C56   S    
C23   C64   S    
C22   C27   A    
Cr2   O12   S    
C64   H1    S    
C22   C24   A    
C10   C61   S    
C42   C43   A    
C19   H6    S    
Cr5   O7    S    
C45   H28   S    
C57   H26   S    
C40   O12   A    
C54   C55   A    
C48   C49   A    
C50   H19   S    
C31   H10   S    
C13   C20   A    
C42   H16   S    
Cr4   O5    S    
C54   H24   S    
C31   C32   A    
C3    C67   A    
C28   O19   A    
C1    O13   A    
C7    O20   S    
Cr3   O15   S    
C6    C7    A    
C28   C58   S    
C53   H20   S    
C8    C70   A    
H31   O21   S    
C37   C44   A    
C55   C57   A    
C2    C3    A    
C46   C52   S    
H30   O20   S    
C2    H36   S    
C5    C6    A    
C35   C39   A    
H32   O22   S    
C12   O24   S    
C60   O2    A    
C35   C62   S    
C17   H3    S    
C60   O31   A    
C65   O5    A    
C69   C70   A    
C38   C46   A    
C63   O8    A    
Cr6   O10   S    
C41   H14   S    
Cr1   O4    S    
C68   H27   S    
C25   C33   A    
C52   O17   A    
C14   C15   A    
C37   C46   A    
Cr2   O13   S    
C2    C9    A    
C47   C65   S    
C63   O9    A    
Cr5   O8    S    
C64   C66   S    
C4    O15   A    
C59   O29   A    
