data_mof_unit_7874.cif
_audit_creation_date              2012-12-10T20:27:15-0500
_audit_creation_method            fapswitch 2.2
_symmetry_space_group_name_H-M    P1
_symmetry_Int_Tables_number       1
_space_group_crystal_system       triclinic
_cell_length_a                    10.84281
_cell_length_b                    10.712553
_cell_length_c                    9.909398
_cell_angle_alpha                 89.786109
_cell_angle_beta                  101.041807
_cell_angle_gamma                 90.693511
_cell_volume                      1129.62604229

loop_
_atom_site_label
_atom_site_type_symbol
_atom_type_description
_atom_site_fract_x
_atom_site_fract_y
_atom_site_fract_z
_atom_type_partial_charge
C1    C     C_R   0.512717 0.260897 0.501039 0.940361
C2    C     C_R   0.599460 0.549050 0.088203 0.475143
C3    C     C_R   0.600705 0.540604 0.946057 -0.148886
C4    C     C_R   0.261873 0.491387 0.445780 0.912906
C5    C     C_R   0.391405 0.478842 0.906917 0.235449
C6    C     C_3   0.305558 0.367622 0.886352 -0.443049
C7    C     C_3   0.301104 0.373605 0.039223 -0.408735
C8    C     C_R   0.495871 0.740333 0.498174 0.948432
C9    C     C_R   0.740499 0.499192 0.555842 0.939954
C10   C     C_2   0.140652 0.434200 0.427462 -0.217761
C11   C     C_2   0.044025 0.505306 0.446721 -0.099106
C12   C     C_R   0.542231 0.130356 0.499039 -0.193480
C13   C     C_2   0.877504 0.501288 0.583863 -0.249389
C14   C     C_2   0.933834 0.445716 0.490462 -0.101334
C15   C     C_R   0.558017 0.062531 0.620901 0.102051
C16   C     C_2   0.880492 0.326323 0.425335 1.052680
C17   C     C_2   0.044413 0.644058 0.418045 1.027038
C18   C     C_2   0.946993 0.580084 0.698487 0.991807
C19   C     C_2   0.149038 0.297280 0.452429 0.911153
C20   C     C_2   0.445510 0.881749 0.235470 1.103101
C21   C     C_2   0.361646 0.887332 0.735038 1.000179
C22   C     C_R   0.541559 0.064446 0.373533 0.326591
C23   C     C_R   0.504571 0.938468 0.369703 -0.162938
C24   C     C_R   0.506956 0.873642 0.495435 -0.204638
C25   C     C_R   0.545938 0.935702 0.619452 0.057903
C26   C     C_3   0.495412 0.934375 0.750479 -0.187050
C27   C     C_3   0.507669 0.076011 0.749946 -0.479576
C28   C     C_R   0.391143 0.480069 0.048508 0.118291
H1    H     H_    0.581208 0.112587 0.834649 0.232408
H2    H     H_    0.747547 0.794793 0.311884 0.408686
H3    H     H_    0.116075 0.789107 0.326336 0.390963
H4    H     H_    0.113834 0.633203 0.812964 0.368242
H5    H     H_    0.136604 0.153397 0.581207 0.377446
H6    H     H_    0.499561 0.173666 0.020102 0.359462
H7    H     H_    0.287803 0.811628 0.117589 0.367425
H8    H     H_    0.183999 0.889347 0.626787 0.362212
H9    H     H_    0.681965 0.570619 0.905556 0.227636
H10   H     H_    0.213842 0.387790 0.819189 0.278308
H11   H     H_    0.352253 0.283311 0.857227 0.199575
H12   H     H_    0.208330 0.403629 0.058797 0.239363
H13   H     H_    0.340292 0.292129 0.100773 0.267817
H14   H     H_    0.561495 0.890073 0.836720 0.215060
H15   H     H_    0.416536 0.125395 0.733014 0.217394
H16   H     H_    0.805913 0.157398 0.455388 0.370048
N1    N     N_R   0.499160 0.499140 0.142600 -0.155837
N2    N     N_R   0.499160 0.499180 0.856960 -0.150733
O1    O     O_R   0.500020 0.316790 0.614700 -0.635748
O2    O     O_R   0.823936 0.241124 0.502569 -0.809625
O3    O     O_2   0.835766 0.541388 0.214922 -0.287456
O4    O     O_2   0.771696 0.727195 0.081771 -0.268756
O5    O     O_3   0.710749 0.710484 0.318738 -0.509807
O6    O     O_2   0.969446 0.712351 0.457976 -0.604295
O7    O     O_R   0.126560 0.695654 0.339377 -0.773901
O8    O     O_2   0.889355 0.648360 0.762640 -0.571182
O9    O     O_R   0.078045 0.575788 0.733625 -0.809705
O10   O     O_2   0.183318 0.229701 0.367844 -0.573426
O11   O     O_R   0.125454 0.247177 0.575666 -0.800198
O12   O     O_R   0.500000 0.316760 0.385350 -0.570042
O13   O     O_2   0.643591 0.256346 0.236452 -0.279971
O14   O     O_2   0.697401 0.042593 0.196175 -0.233767
O15   O     O_3   0.474992 0.115605 0.088314 -0.569004
O16   O     O_2   0.508645 0.857605 0.149311 -0.539023
O17   O     O_R   0.317410 0.852006 0.210726 -0.766373
O18   O     O_2   0.334767 0.811677 0.817733 -0.613529
O19   O     O_R   0.269272 0.929064 0.626362 -0.801644
O20   O     O_R   0.317820 0.500020 0.571850 -0.605905
O21   O     O_R   0.317800 0.499980 0.342510 -0.586639
O22   O     O_R   0.500000 0.683240 0.614650 -0.613510
O23   O     O_R   0.499980 0.683210 0.385300 -0.581209
O24   O     O_R   0.682200 0.500020 0.657490 -0.612281
O25   O     O_R   0.682180 0.499980 0.428150 -0.537254
O26   O     O_2   0.893454 0.299403 0.309038 -0.510996
S1    S     S_3+6 0.731609 0.632858 0.178350 0.093814
S2    S     S_3+6 0.593847 0.124877 0.224122 0.037302
Zn1   Zn    Zn3+2 0.500010 0.500020 0.653140 1.013738
Zn2   Zn    Zn3+2 0.499990 0.499980 0.346860 1.097826

loop_
_geom_bond_atom_site_label_1
_geom_bond_atom_site_label_2
_ccdc_geom_bond_type
C19   O10   D    
C4    O21   A    
H16   O2    S    
C7    H12   S    
C20   C23   S    
C24   C25   A    
C6    C7    S    
C17   O7    S    
O15   S2    S    
C27   H1    S    
C5    C28   A    
C5    N2    A    
H4    O9    S    
C15   C27   S    
C16   O26   D    
C12   C15   A    
C10   C19   S    
H2    O5    S    
O12   Zn2   S    
C16   O2    S    
C20   O17   S    
C6    H10   S    
C2    C3    A    
C8    O23   A    
O1    Zn1   S    
C13   C14   D    
H3    O7    S    
O22   Zn1   S    
C4    O20   A    
C2    S1    S    
O13   S2    D    
C26   H14   S    
C26   C27   S    
C5    C6    S    
C1    C12   S    
C18   O9    S    
N1    Zn2   S    
O20   Zn1   S    
C13   C18   S    
C17   O6    D    
O14   S2    D    
N2    Zn1   S    
C8    C24   S    
C21   C26   S    
H5    O11   S    
C8    O22   A    
O3    S1    D    
C7    H13   S    
C2    N1    A    
C20   O16   D    
O25   Zn2   S    
C11   C14   S    
C14   C16   S    
C28   N1    A    
C15   C25   A    
C10   C11   D    
C18   O8    D    
C23   C24   A    
C4    C10   S    
C27   H15   S    
C22   S2    S    
C12   C22   A    
C9    O24   A    
C3    H9    S    
O23   Zn2   S    
C9    O25   A    
C22   C23   A    
O4    S1    D    
O24   Zn1   S    
C6    H11   S    
C9    C13   S    
H8    O19   S    
C1    O1    A    
C21   O18   D    
H7    O17   S    
O21   Zn2   S    
C3    N2    A    
C21   O19   S    
C25   C26   S    
C1    O12   A    
C19   O11   S    
H6    O15   S    
C11   C17   S    
C7    C28   S    
O5    S1    S    
