data_mof_unit_31525.cif
_audit_creation_date              2012-10-26T20:16:50-0400
_audit_creation_method            fapswitch 2.2
_symmetry_space_group_name_H-M    P1
_symmetry_Int_Tables_number       1
_space_group_crystal_system       triclinic
_cell_length_a                    10.823127
_cell_length_b                    10.880925
_cell_length_c                    10.437846
_cell_angle_alpha                 90.428196
_cell_angle_beta                  90.300681
_cell_angle_gamma                 87.74912
_cell_volume                      1228.22171922

loop_
_atom_site_label
_atom_site_type_symbol
_atom_type_description
_atom_site_fract_x
_atom_site_fract_y
_atom_site_fract_z
_atom_type_partial_charge
C1    C     C_R   0.495754 0.261657 0.499175 0.544990
C2    C     C_R   0.669288 0.816384 0.757538 -0.061147
C3    C     C_R   0.444445 0.118107 0.257721 0.050838
C4    C     C_R   0.555555 0.881893 0.742279 0.050838
C5    C     C_R   0.524447 0.104337 0.152636 -0.097621
C6    C     C_R   0.475553 0.895663 0.847364 -0.097620
C7    C     C_R   0.491112 0.155392 0.034226 -0.117367
C8    C     C_R   0.508888 0.844608 0.965774 -0.117367
C9    C     C_R   0.377376 0.219082 0.019435 -0.113858
C10   C     C_R   0.622623 0.780918 0.980565 -0.113858
C11   C     C_R   0.488819 0.933384 0.386290 -0.158758
C12   C     C_R   0.504246 0.738343 0.500825 0.544991
C13   C     C_R   0.511181 0.066615 0.613710 -0.158758
C14   C     C_R   0.507739 0.871873 0.502479 -0.010928
C15   C     C_R   0.492261 0.128127 0.497521 -0.010928
C16   C     C_R   0.261809 0.501221 0.499635 0.555201
C17   C     C_R   0.738191 0.498779 0.500365 0.555201
C18   C     C_R   0.522170 0.939288 0.617618 -0.042045
C19   C     C_R   0.477830 0.060712 0.382382 -0.042045
C20   C     C_1   0.500004 0.500023 0.071980 0.089247
C21   C     C_1   0.499996 0.499976 0.928020 0.089247
C22   C     C_R   0.194059 0.897866 0.342621 -0.098813
C23   C     C_R   0.871757 0.500252 0.501094 -0.002629
C24   C     C_R   0.805941 0.102134 0.657379 -0.098813
C25   C     C_R   0.148611 0.804625 0.419286 0.026620
C26   C     C_R   0.851389 0.195375 0.580714 0.026620
C27   C     C_R   0.123790 0.689533 0.362353 0.064708
C28   C     C_R   0.876210 0.310467 0.637647 0.064708
C29   C     C_R   0.149036 0.669384 0.231834 -0.074961
C30   C     C_R   0.850964 0.330616 0.768166 -0.074960
C31   C     C_R   0.196942 0.762317 0.157788 -0.124041
C32   C     C_R   0.803058 0.237683 0.842212 -0.124042
C33   C     C_R   0.217941 0.876830 0.212702 -0.132730
C34   C     C_R   0.128243 0.499748 0.498906 -0.002629
C35   C     C_R   0.782059 0.123170 0.787297 -0.132730
C36   C     C_R   0.930305 0.594366 0.435216 -0.039579
C37   C     C_R   0.069695 0.405634 0.564784 -0.039579
C38   C     C_3   0.125509 0.832651 0.558897 -0.407080
C39   C     C_3   0.874490 0.167349 0.441103 -0.407080
C40   C     C_3   0.853212 0.697063 0.371203 -0.379160
C41   C     C_3   0.146788 0.302937 0.628797 -0.379161
C42   C     C_R   0.940066 0.407111 0.566814 -0.031980
C43   C     C_R   0.059934 0.592889 0.433186 -0.031980
C44   C     C_R   0.297536 0.233816 0.123676 -0.107730
C45   C     C_R   0.702464 0.766184 0.876324 -0.107730
C46   C     C_R   0.330712 0.183615 0.242462 -0.061147
Cu1   Cu    Cu3+1 0.500000 0.500000 0.625300 0.974660
Cu2   Cu    Cu3+1 0.500000 0.500000 0.374700 0.974660
H1    H     H_    0.252968 0.949264 0.154349 0.116813
H2    H     H_    0.789073 0.012871 0.615924 0.108458
H3    H     H_    0.129680 0.581995 0.187111 0.104798
H4    H     H_    0.870320 0.418005 0.812889 0.104798
H5    H     H_    0.215912 0.746186 0.057206 0.106626
H6    H     H_    0.784088 0.253814 0.942793 0.106626
H7    H     H_    0.351478 0.257634 0.927371 0.110007
H8    H     H_    0.648522 0.742366 0.072628 0.110007
H9    H     H_    0.209835 0.283950 0.112407 0.099425
H10   H     H_    0.790165 0.716050 0.887593 0.099425
H11   H     H_    0.267839 0.195446 0.322358 0.087607
H12   H     H_    0.747032 0.050736 0.845651 0.116813
H13   H     H_    0.732161 0.804554 0.677642 0.087607
H14   H     H_    0.091981 0.752771 0.612004 0.137759
H15   H     H_    0.212867 0.860603 0.605050 0.136456
H16   H     H_    0.055280 0.909383 0.567832 0.118275
H17   H     H_    0.908019 0.247229 0.387996 0.137759
H18   H     H_    0.944719 0.090617 0.432168 0.118275
H19   H     H_    0.787132 0.139397 0.394950 0.136456
H20   H     H_    0.907522 0.774372 0.337261 0.130103
H21   H     H_    0.803995 0.660216 0.286601 0.151045
H22   H     H_    0.784813 0.737289 0.440155 0.119084
H23   H     H_    0.612328 0.054059 0.162454 0.100203
H24   H     H_    0.092478 0.225628 0.662738 0.130103
H25   H     H_    0.215187 0.262711 0.559845 0.119084
H26   H     H_    0.196004 0.339784 0.713399 0.151045
H27   H     H_    0.387672 0.945941 0.837546 0.100203
H28   H     H_    0.552974 0.144740 0.953564 0.110812
H29   H     H_    0.447026 0.855260 0.046436 0.110812
H30   H     H_    0.477102 0.881997 0.297954 0.139875
H31   H     H_    0.522898 0.118003 0.702046 0.139875
H32   H     H_    0.210926 0.987129 0.384076 0.108458
N1    N     N_1   0.500010 0.499990 0.186410 -0.194400
N2    N     N_1   0.499990 0.500010 0.813590 -0.194400
O1    O     O_R   0.499990 0.319650 0.605810 -0.506823
O2    O     O_R   0.500010 0.680350 0.394190 -0.506823
O3    O     O_R   0.499990 0.319640 0.394190 -0.483367
O4    O     O_R   0.500010 0.680360 0.605810 -0.483367
O5    O     O_R   0.319640 0.500010 0.605810 -0.504066
O6    O     O_R   0.680360 0.499990 0.394190 -0.504066
O7    O     O_R   0.319650 0.500010 0.394190 -0.494527
O8    O     O_R   0.680350 0.499990 0.605810 -0.494527

loop_
_geom_bond_atom_site_label_1
_geom_bond_atom_site_label_2
_ccdc_geom_bond_type
C13   H31   S    
C5    H23   S    
C46   H11   S    
C27   C29   A    
C17   O6    A    
C14   C18   A    
C6    H27   S    
C15   C19   A    
C11   C19   A    
C17   C23   S    
C23   C42   A    
C40   H22   S    
C13   C18   A    
C24   C26   A    
C11   C14   A    
C26   C39   S    
C33   H1    S    
C34   C37   A    
Cu2   N1    S    
C12   O2    A    
Cu1   N2    S    
C37   C42   A    
C16   C34   S    
C41   H26   S    
C22   C25   A    
C16   O5    A    
Cu2   O6    S    
C3    C19   S    
C9    H7    S    
Cu1   O1    S    
C10   H8    S    
C2    H13   S    
C4    C18   S    
C16   O7    A    
C20   N1    T    
C1    O3    A    
C39   H17   S    
C32   H6    S    
C44   C46   A    
C38   H16   S    
C2    C45   A    
C24   H2    S    
C45   H10   S    
C24   C35   A    
C40   H21   S    
C34   C43   A    
C32   C35   A    
C36   C40   S    
C4    C6    A    
C5    C7    A    
C6    C8    A    
Cu2   O2    S    
C35   H12   S    
Cu1   O5    S    
C2    C4    A    
Cu1   O4    S    
C11   H30   S    
C25   C38   S    
Cu1   Cu2   S    
C44   H9    S    
C10   C45   A    
C31   C33   A    
C31   H5    S    
C41   H24   S    
C1    C15   S    
C12   C14   S    
Cu2   O7    S    
C13   C15   A    
C8    H29   S    
C39   H18   S    
C25   C27   A    
C38   H15   S    
C29   H3    S    
C7    C9    A    
C22   C33   A    
C30   H4    S    
C9    C44   A    
C39   H19   S    
C17   O8    A    
C3    C5    A    
C7    H28   S    
C1    O1    A    
C3    C46   A    
C26   C28   A    
C12   O4    A    
C28   C30   A    
C22   H32   S    
C29   C31   A    
C30   C32   A    
C21   N2    T    
C28   C42   S    
Cu1   O8    S    
C37   C41   S    
C41   H25   S    
C27   C43   S    
C20   C21   S    
C8    C10   A    
C23   C36   A    
C40   H20   S    
Cu2   O3    S    
C36   C43   A    
C38   H14   S    
