data_mof_unit_46730.cif
_audit_creation_date              2012-12-10T17:10:58-0500
_audit_creation_method            fapswitch 2.2
_symmetry_space_group_name_H-M    P1
_symmetry_Int_Tables_number       1
_space_group_crystal_system       triclinic
_cell_length_a                    11.737065
_cell_length_b                    12.957516
_cell_length_c                    13.620337
_cell_angle_alpha                 92.88623
_cell_angle_beta                  78.841122
_cell_angle_gamma                 101.352707
_cell_volume                      1992.33778472

loop_
_atom_site_label
_atom_site_type_symbol
_atom_type_description
_atom_site_fract_x
_atom_site_fract_y
_atom_site_fract_z
_atom_type_partial_charge
C1    C     C_R   0.522043 0.700721 0.500996 0.781120
C2    C     C_R   0.471697 0.566338 0.967195 0.025111
C3    C     C_R   0.504573 0.553042 0.863271 -0.001426
C4    C     C_R   0.545984 0.538313 0.030671 -0.050249
C5    C     C_R   0.654671 0.507635 0.984067 -0.026435
C6    C     C_R   0.699195 0.530650 0.881923 0.186281
C7    C     C_R   0.626748 0.566982 0.825758 0.211401
C8    C     C_R   0.513915 0.533365 0.136652 0.182461
C9    C     C_R   0.687784 0.457250 0.145399 -0.104748
C10   C     C_R   0.417376 0.541179 0.801194 -0.081566
C11   C     C_R   0.470979 0.187101 0.487241 -0.135932
C12   C     C_R   0.441482 0.508611 0.694297 0.815705
C13   C     C_R   0.532413 0.814230 0.508028 -0.110033
C14   C     C_R   0.523339 0.963019 0.620057 -0.155473
C15   C     C_R   0.538471 0.860414 0.601594 -0.217896
C16   C     C_R   0.512228 0.871291 0.429731 -0.054810
C17   C     C_R   0.505406 0.979483 0.445397 0.054817
C18   C     C_R   0.507115 0.024010 0.543425 0.078659
C19   C     C_R   0.492100 0.128726 0.563689 0.178300
C20   C     C_R   0.474292 0.145852 0.390725 -0.277833
C21   C     C_R   0.496882 0.045114 0.367510 0.278724
C22   C     C_R   0.969505 0.635294 0.536275 -0.077300
C23   C     C_R   0.478198 0.299465 0.498950 0.862781
C24   C     C_R   0.847493 0.617066 0.533595 -0.046560
C25   C     C_R   0.842677 0.437782 0.495372 0.025473
C26   C     C_R   0.966988 0.452125 0.490197 -0.064872
C27   C     C_R   0.032449 0.551541 0.511877 0.002667
C28   C     C_R   0.157695 0.563516 0.506086 -0.022558
C29   C     C_R   0.150376 0.384302 0.457399 0.396247
C30   C     C_R   0.026842 0.368871 0.462394 0.083137
C31   C     C_R   0.560447 0.502924 0.304729 0.851860
C32   C     C_R   0.719787 0.460583 0.040739 0.224311
C33   C     C_R   0.589416 0.499752 0.194003 -0.183210
C34   C     C_R   0.306110 0.564507 0.841929 -0.289103
C35   C     C_R   0.284566 0.606026 0.938701 0.020389
C36   C     C_R   0.369544 0.610897 0.999288 -0.110143
Cu1   Cu    Cu3+1 0.386470 0.492430 0.492410 0.963000
Cu2   Cu    Cu3+1 0.613530 0.507570 0.507590 0.962265
H1    H     H_    0.470302 0.196132 0.330680 0.169562
H2    H     H_    0.522135 0.993244 0.695700 0.180379
H3    H     H_    0.545570 0.813912 0.662931 0.157314
H4    H     H_    0.209034 0.638431 0.522129 0.219438
H5    H     H_    0.802491 0.682863 0.547243 0.143527
H6    H     H_    0.792754 0.362509 0.477709 0.168960
H7    H     H_    0.239023 0.557874 0.796098 0.164908
H8    H     H_    0.356538 0.654829 0.068267 0.216210
N1    N     N_R   0.215880 0.481050 0.481000 -0.231309
N2    N     N_R   0.784100 0.518950 0.519000 -0.188747
O1    O     O_R   0.419710 0.645650 0.494620 -0.583153
O2    O     O_R   0.611450 0.658430 0.507430 -0.592427
O3    O     O_R   0.357340 0.490460 0.641450 -0.586541
O4    O     O_R   0.549080 0.503250 0.654260 -0.567348
O5    O     O_R   0.388550 0.341570 0.492570 -0.553630
O6    O     O_R   0.580290 0.354350 0.505380 -0.580428
O7    O     O_R   0.450920 0.496750 0.345740 -0.584407
O8    O     O_R   0.642660 0.509540 0.358550 -0.548574
C37   C     C_2   0.753574 0.401445 0.201857 0.387034
H9    H     H_    0.849497 0.416876 0.186788 0.059872
O9    O     O_2   0.700617 0.334384 0.262808 -0.582989
N3    N     N_2   0.522263 0.015754 0.264595 -0.380648
H10   H     H_    0.476268 0.047284 0.220042 0.262518
C38   C     C_3   0.647300 0.030203 0.222532 -0.693100
H11   H     H_    0.659500 0.999985 0.144210 0.229287
H12   H     H_    0.692602 0.986153 0.266008 0.221609
H13   H     H_    0.688412 0.115148 0.222595 0.247169
C39   C     C_2   0.488964 0.812938 0.336857 0.433117
H14   H     H_    0.547353 0.761029 0.301185 0.004203
O10   O     O_2   0.400810 0.817625 0.303429 -0.520325
N4    N     N_2   0.201997 0.293215 0.437365 -0.363021
H15   H     H_    0.155859 0.228541 0.478855 0.255800
C40   C     C_3   0.241146 0.267200 0.333333 -0.663687
H16   H     H_    0.176359 0.277629 0.287031 0.217603
H17   H     H_    0.252036 0.183759 0.326325 0.215909
H18   H     H_    0.328524 0.316469 0.304600 0.248022
C41   C     C_2   0.023975 0.743049 0.565047 0.326569
H19   H     H_    0.988165 0.809734 0.547946 0.076345
O11   O     O_2   0.102995 0.758468 0.613606 -0.552150
N5    N     N_2   0.963475 0.265901 0.444460 -0.447035
H20   H     H_    0.897652 0.234779 0.502877 0.243039
C42   C     C_3   0.932670 0.245736 0.346270 -0.663412
H21   H     H_    0.835040 0.230314 0.352703 0.245808
H22   H     H_    0.965521 0.174746 0.312938 0.233722
H23   H     H_    0.971918 0.313068 0.295089 0.225598
N6    N     N_2   0.821165 0.533249 0.841070 -0.401681
H24   H     H_    0.870283 0.607808 0.825908 0.252612
C43   C     C_3   0.844200 0.457188 0.761789 -0.652902
H25   H     H_    0.941110 0.464537 0.735836 0.227333
H26   H     H_    0.803241 0.469956 0.698144 0.220582
H27   H     H_    0.806959 0.376030 0.788540 0.244040
N7    N     N_2   0.811441 0.408114 0.991119 -0.390495
H28   H     H_    0.889893 0.427729 0.017065 0.241269
C44   C     C_3   0.774062 0.295938 0.976671 -0.691417
H29   H     H_    0.847135 0.264025 0.928434 0.223287
H30   H     H_    0.696016 0.279956 0.939345 0.228829
H31   H     H_    0.751055 0.254750 0.049427 0.229228
N8    N     N_2   0.406004 0.562468 0.185772 -0.427206
H32   H     H_    0.409208 0.620336 0.240263 0.286510
C45   C     C_3   0.298096 0.483873 0.194033 -0.620574
H33   H     H_    0.259140 0.469403 0.273763 0.241794
H34   H     H_    0.314183 0.409205 0.154972 0.215515
H35   H     H_    0.231490 0.513631 0.161423 0.237433
C46   C     C_2   0.172590 0.643752 0.975450 0.339859
H36   H     H_    0.108614 0.639813 0.926816 0.084862
O12   O     O_2   0.150018 0.679170 0.060267 -0.544487
N9    N     N_2   0.678629 0.644441 0.751309 -0.395352
H37   H     H_    0.761291 0.636721 0.714763 0.259452
C47   C     C_3   0.679525 0.751458 0.787674 -0.738784
H38   H     H_    0.587964 0.763880 0.816653 0.242038
H39   H     H_    0.720994 0.807095 0.725709 0.222265
H40   H     H_    0.731935 0.768812 0.848380 0.228779
N10   N     N_2   0.494956 0.174051 0.661394 -0.431114
H41   H     H_    0.439329 0.226973 0.682836 0.244644
C48   C     C_3   0.611896 0.211569 0.684107 -0.712193
H42   H     H_    0.656095 0.284234 0.642297 0.242148
H43   H     H_    0.668253 0.151253 0.665061 0.224730
H44   H     H_    0.603959 0.230031 0.765346 0.223845

loop_
_geom_bond_atom_site_label_1
_geom_bond_atom_site_label_2
_ccdc_geom_bond_type
C39   O10   D    
C28   N1    A    
C14   C18   A    
C35   C36   A    
C8    N8    S    
C4    C8    A    
C35   C46   S    
C37   H9    S    
N9    C47   S    
C11   C19   A    
C26   C27   A    
C38   H11   S    
C29   N1    A    
N6    C43   S    
C18   C19   A    
C3    C7    A    
C5    C6    A    
Cu1   O3    S    
N5    C42   S    
C37   O9    D    
Cu2   O4    S    
N3    C38   S    
C34   C35   A    
C11   C23   S    
N4    C40   S    
C9    C37   S    
C38   H12   S    
C9    C32   A    
C32   N7    S    
N10   H41   S    
C16   C17   A    
N8    C45   S    
C47   H38   S    
C7    N9    S    
C36   H8    S    
C31   O8    A    
Cu1   N1    S    
C29   C30   A    
C1    O2    A    
Cu2   N2    S    
C5    C32   A    
Cu1   O5    S    
C39   H14   S    
C9    C33   A    
C47   H39   S    
N4    H15   S    
C22   C41   S    
C42   H23   S    
C25   H6    S    
C44   H30   S    
C12   O4    A    
C23   O5    A    
C29   N4    S    
C11   C20   A    
C6    N6    S    
C24   N2    A    
N6    H24   S    
C15   H3    S    
C21   N3    S    
C42   H22   S    
C40   H17   S    
C20   H1    S    
C43   H25   S    
C42   H21   S    
C25   C26   A    
C44   H31   S    
C17   C21   A    
N3    H10   S    
C30   N5    S    
C1    C13   S    
C2    C4    A    
C41   H19   S    
Cu1   Cu2   S    
Cu1   O1    S    
N7    C44   S    
Cu2   O6    S    
N8    H32   S    
C31   C33   S    
C17   C18   A    
N10   C48   S    
C34   H7    S    
C46   O12   D    
C41   O11   D    
C25   N2    A    
C10   C12   S    
C10   C34   A    
C26   C30   A    
C45   H34   S    
C22   C27   A    
C13   C15   A    
C47   H40   S    
C22   C24   A    
C16   C39   S    
C12   O3    A    
C23   O6    A    
C48   H42   S    
C2    C36   A    
C38   H13   S    
N5    H20   S    
C4    C5    A    
C43   H27   S    
C40   H18   S    
C6    C7    A    
Cu2   O2    S    
C19   N10   S    
C45   H35   S    
N9    H37   S    
C48   H44   S    
C2    C3    A    
C40   H16   S    
C3    C10   A    
N7    H28   S    
C28   H4    S    
C44   H29   S    
C43   H26   S    
C8    C33   A    
C46   H36   S    
C14   H2    S    
Cu1   O7    S    
Cu2   O8    S    
C20   C21   A    
C45   H33   S    
C13   C16   A    
C27   C28   A    
C24   H5    S    
C14   C15   A    
C31   O7    A    
C1    O1    A    
C48   H43   S    
