data_mof_unit_21614.cif
_audit_creation_date              2012-12-11T16:21:01-0500
_audit_creation_method            fapswitch 2.2
_symmetry_space_group_name_H-M    P1
_symmetry_Int_Tables_number       1
_space_group_crystal_system       triclinic
_cell_length_a                    8.658308
_cell_length_b                    16.851575
_cell_length_c                    17.292345
_cell_angle_alpha                 108.403523
_cell_angle_beta                  82.947438
_cell_angle_gamma                 99.013061
_cell_volume                      2357.21345263

loop_
_atom_site_label
_atom_site_type_symbol
_atom_type_description
_atom_site_fract_x
_atom_site_fract_y
_atom_site_fract_z
_atom_type_partial_charge
Ba1   Ba    Ba6+2 0.638770 0.457640 0.528600 1.734586
Ba2   Ba    Ba6+2 0.171410 0.542370 0.471460 1.752244
C1    C     C_3   0.714274 0.235329 0.777132 0.385402
C2    C     C_3   0.803042 0.252048 0.699754 0.455222
C3    C     C_3   0.935626 0.281336 0.309343 0.341520
C4    C     C_3   0.875445 0.188176 0.275108 -0.270311
C5    C     C_3   0.511668 0.767760 0.341243 0.365140
C6    C     C_3   0.538759 0.854934 0.329538 -0.324819
C7    C     C_3   0.995217 0.760745 0.304023 0.293943
C8    C     C_3   0.057256 0.788101 0.228431 -0.052769
C9    C     C_2   0.699875 0.749954 0.503482 -0.268600
C10   C     C_R   0.095890 0.246796 0.466403 -0.298946
C11   C     C_2   0.527914 0.853643 0.575687 -0.099688
C12   C     C_3   0.331312 0.223223 0.645820 0.274610
C13   C     C_2   0.550934 0.772736 0.552398 -0.045002
C14   C     C_2   0.822378 0.807755 0.493199 -0.035400
C15   C     C_3   0.806559 0.901560 0.530065 -0.040119
C16   C     C_3   0.633771 0.916550 0.541526 0.247522
C17   C     C_2   0.913070 0.960656 0.488961 -0.132784
C18   C     C_2   0.879385 0.037631 0.490944 -0.057732
C19   C     C_R   0.139932 0.078756 0.423428 0.089900
C20   C     C_R   0.997480 0.102483 0.466248 -0.052842
C21   C     C_R   0.261618 0.138108 0.407002 -0.067966
C22   C     C_R   0.243664 0.223740 0.432223 0.051502
C23   C     C_3   0.247405 0.138229 0.653542 0.258529
C24   C     C_R   0.974821 0.188713 0.487117 -0.004378
C25   C     C_R   0.060113 0.450407 0.706128 -0.008078
C26   C     C_R   0.930222 0.497551 0.739332 0.163191
C27   C     C_R   0.870172 0.503040 0.820125 -0.132580
C28   C     C_R   0.950700 0.475001 0.870704 0.004889
C29   C     C_R   0.091775 0.440793 0.840117 -0.053177
C30   C     C_R   0.148769 0.429914 0.758608 0.014366
C31   C     C_R   0.906772 0.484868 0.161451 -0.149465
C32   C     C_R   0.855178 0.489023 0.242731 0.055787
C33   C     C_R   0.635884 0.561076 0.234352 -0.034461
C34   C     C_3   0.385698 0.687902 0.759290 0.618638
C35   C     C_R   0.689528 0.556924 0.153421 -0.138651
C36   C     C_R   0.822651 0.517377 0.116085 -0.013877
C37   C     C_1   0.864524 0.503436 0.029353 0.056691
C38   C     C_1   0.900715 0.490492 0.956839 0.078623
C39   C     C_R   0.717438 0.525089 0.278058 -0.111499
C40   C     C_3   0.435373 0.728451 0.849209 0.669234
C41   C     C_3   0.468454 0.331042 0.258496 0.260518
C42   C     C_3   0.467689 0.290675 0.164871 0.395769
C43   C     C_3   0.816333 0.729599 0.691620 0.379011
C44   C     C_3   0.846964 0.831013 0.725589 0.364959
H1    H     H_    0.802298 0.319689 0.706603 -0.097747
H2    H     H_    0.563434 0.743537 0.841307 -0.084774
H3    H     H_    0.590861 0.356774 0.273480 -0.058397
H4    H     H_    0.389089 0.380528 0.279106 0.025637
H5    H     H_    0.551787 0.243159 0.145064 0.058360
H6    H     H_    0.691075 0.716511 0.692494 -0.072397
H7    H     H_    0.596953 0.256549 0.785563 0.038003
H8    H     H_    0.889241 0.853318 0.671654 0.040293
H9    H     H_    0.778124 0.273816 0.831362 -0.055635
H10   H     H_    0.063125 0.288505 0.316753 0.049511
H11   H     H_    0.870901 0.305389 0.369806 0.025263
H12   H     H_    0.913966 0.164111 0.209227 0.208666
H13   H     H_    0.920575 0.151234 0.308528 0.056007
H14   H     H_    0.745272 0.178951 0.281488 0.098311
H15   H     H_    0.129251 0.125057 0.630925 0.039820
H16   H     H_    0.428803 0.770263 0.396156 0.084190
H17   H     H_    0.625502 0.752188 0.351605 -0.090996
H18   H     H_    0.425468 0.880700 0.338007 0.146240
H19   H     H_    0.617259 0.898168 0.375399 0.066295
H20   H     H_    0.594619 0.851531 0.267569 0.139262
H21   H     H_    0.880963 0.785129 0.326036 -0.051370
H22   H     H_    0.977650 0.690607 0.285550 0.003574
H23   H     H_    0.965865 0.766990 0.183752 0.086631
H24   H     H_    0.162762 0.757131 0.198787 0.141963
H25   H     H_    0.455010 0.218590 0.622731 0.137584
H26   H     H_    0.429659 0.873508 0.618377 0.208790
H27   H     H_    0.368895 0.116519 0.373843 0.099474
H28   H     H_    0.717648 0.685624 0.484435 0.059245
H29   H     H_    0.073571 0.310141 0.474737 0.044345
H30   H     H_    0.030067 0.944479 0.466729 0.142585
H31   H     H_    0.764424 0.055160 0.515753 0.172447
H32   H     H_    0.006501 0.452020 0.132322 0.124711
H33   H     H_    0.158159 0.423298 0.880063 0.115597
H34   H     H_    0.623313 0.581061 0.118396 0.129340
H35   H     H_    0.272271 0.239683 0.600639 -0.062751
H36   H     H_    0.769723 0.536093 0.846100 0.151436
H37   H     H_    0.235011 0.139885 0.718606 0.147518
O1    O     O_2   0.563480 0.287900 0.421550 -0.459842
O2    O     O_3   0.866745 0.681045 0.736521 -0.538334
O3    O     O_3   0.326351 0.282978 0.724026 -0.639481
O4    O     O_2   0.246830 0.712160 0.578490 -0.403088
O5    O     O_3   0.465730 0.603870 0.559050 -0.509635
O6    O     O_3   0.005180 0.659120 0.430820 -0.476104
O7    O     O_3   0.431802 0.741950 0.708820 -0.650447
O8    O     O_3   0.867570 0.455870 0.400730 -0.472519
O9    O     O_3   0.410870 0.615450 0.384100 -0.504755
O10   O     O_2   0.309020 0.554056 0.235306 -0.459797
O11   O     O_3   0.449137 0.707828 0.271653 -0.572046
O12   O     O_3   0.344560 0.396140 0.441010 -0.498151
O13   O     O_3   0.942720 0.544140 0.599330 -0.478257
O14   O     O_2   0.129060 0.458130 0.306750 -0.452273
O15   O     O_3   0.910190 0.322746 0.254099 -0.598439
O16   O     O_2   0.138604 0.808002 0.516113 -0.441933
O17   O     O_3   0.102104 0.793099 0.364695 -0.586719
O18   O     O_3   0.805120 0.340890 0.569250 -0.528927
O19   O     O_2   0.655591 0.193784 0.487404 -0.461347
O20   O     O_3   0.416650 0.267268 0.294227 -0.615929
O21   O     O_3   0.727852 0.199532 0.630480 -0.541654
O22   O     O_2   0.681260 0.541920 0.693290 -0.498746
O23   O     O_3   0.399420 0.384560 0.615960 -0.471689
O24   O     O_2   0.475571 0.433823 0.768926 -0.423407
P1    P     P_3+3 0.397200 0.301470 0.401420 1.006340
P2    P     P_3+3 0.862850 0.568080 0.686620 1.122413
P3    P     P_3+3 0.338048 0.385240 0.717104 0.994196
P4    P     P_3+3 0.413100 0.698540 0.598650 1.095008
P5    P     P_3+3 0.451850 0.607341 0.280330 0.968422
P6    P     P_3+3 0.793089 0.230912 0.542769 0.964852
P7    P     P_3+3 0.945269 0.432049 0.298545 1.028441
P8    P     P_3+3 0.015673 0.768464 0.452460 0.975686
S1    S     S_3+6 0.364298 0.825576 0.907272 0.031063
O25   O     O_2   0.342800 0.875332 0.852134 -0.202150
O26   O     O_2   0.212506 0.809948 0.955569 -0.233042
O27   O     O_3   0.500106 0.880304 0.972223 -0.495343
H38   H     H_    0.485596 0.940001 0.983836 0.375487
S2    S     S_3+6 0.421429 0.659296 0.913121 -0.010698
O28   O     O_2   0.505972 0.584997 0.869582 -0.292221
O29   O     O_2   0.503669 0.706940 0.989240 -0.253059
O30   O     O_3   0.238460 0.623129 0.942006 -0.473823
H39   H     H_    0.202986 0.668287 0.990489 0.366485
N1    N     N_3   0.515105 0.353282 0.121688 -0.460599
H40   H     H_    0.451418 0.404480 0.147692 0.180953
H41   H     H_    0.633466 0.374602 0.128925 0.131103
S3    S     S_3+6 0.278696 0.236607 0.134826 -0.017431
O31   O     O_2   0.167404 0.300103 0.147030 -0.264351
O32   O     O_2   0.290726 0.186272 0.045909 -0.216108
O33   O     O_3   0.209449 0.171167 0.190383 -0.528976
H42   H     H_    0.273336 0.123716 0.170146 0.350478
N2    N     N_3   0.876143 0.703119 0.606258 -0.527162
H43   H     H_    0.809275 0.647165 0.575910 0.153838
H44   H     H_    0.989511 0.690411 0.603634 0.272005
N3    N     N_3   0.704442 0.870060 0.758992 -0.426536
H45   H     H_    0.654767 0.852398 0.809274 0.215357
H46   H     H_    0.625034 0.856934 0.715318 0.186385
S4    S     S_3+6 0.991640 0.883031 0.797069 0.091603
O34   O     O_2   0.148765 0.890331 0.751422 -0.158410
O35   O     O_2   0.956681 0.971048 0.843006 -0.187525
O36   O     O_3   0.991623 0.830976 0.865343 -0.411945
H47   H     H_    0.901042 0.846291 0.905201 0.352805
N4    N     N_3   0.963298 0.233974 0.694656 -0.470120
H48   H     H_    0.012887 0.266321 0.749857 0.142999
H49   H     H_    0.027278 0.258654 0.651089 0.085065
S5    S     S_3+6 0.691572 0.126411 0.774513 0.034910
O37   O     O_2   0.773040 0.073081 0.698593 -0.232737
O38   O     O_2   0.760775 0.119679 0.847568 -0.239283
O39   O     O_3   0.498929 0.089860 0.778051 -0.429404
H50   H     H_    0.474379 0.075253 0.829561 0.388014
N5    N     N_3   0.096076 0.879650 0.248606 -0.450742
H51   H     H_    0.197891 0.897888 0.280025 0.213128
H52   H     H_    0.005851 0.909161 0.287612 0.180098
N6    N     N_3   0.115306 0.427617 0.621308 -0.416976
H53   H     H_    0.123883 0.363647 0.604082 0.094754
H54   H     H_    0.034109 0.428304 0.583221 0.223285
N7    N     N_3   0.655072 0.518357 0.356302 -0.461460
H55   H     H_    0.658048 0.578131 0.396589 0.170974
H56   H     H_    0.539419 0.490170 0.353996 0.178624
S6    S     S_3+6 0.345431 0.050936 0.598330 -0.075535
O40   O     O_2   0.333906 0.026794 0.507714 -0.360067
O41   O     O_2   0.513895 0.068387 0.615244 -0.214906
O42   O     O_3   0.257705 0.970668 0.632657 -0.454457
H57   H     H_    0.149506 0.960932 0.616069 0.349601
S7    S     S_3+6 0.191327 0.664470 0.752705 -0.062864
O43   O     O_2   0.139033 0.738321 0.739701 -0.211649
O44   O     O_2   0.181323 0.594628 0.674427 -0.389223
O45   O     O_3   0.094124 0.640850 0.833762 -0.557340
H58   H     H_    0.021776 0.683542 0.857598 0.391154
N8    N     N_3   0.457192 0.612174 0.728769 -0.460807
H59   H     H_    0.385607 0.554501 0.716867 0.228312
H60   H     H_    0.524254 0.615462 0.677332 0.200948

loop_
_geom_bond_atom_site_label_1
_geom_bond_atom_site_label_2
_ccdc_geom_bond_type
O6    P8    S    
C6    H20   S    
O42   H57   S    
O18   P6    S    
C12   H25   S    
C4    H12   S    
C3    H10   S    
C34   C40   S    
C17   C18   D    
S4    O36   S    
N4    H48   S    
C5    C6    S    
S7    O44   D    
C43   C44   S    
Ba1   O1    S    
N3    H46   S    
C42   N1    S    
C43   N2    S    
N1    H40   S    
C30   P3    S    
C18   H31   S    
Ba2   O12   S    
C33   C35   A    
C35   C36   A    
S5    O38   D    
S3    O31   D    
O2    P2    S    
O16   P8    D    
C3    C4    S    
C31   H32   S    
O15   P7    S    
O4    P4    D    
O45   H58   S    
O36   H47   S    
C40   H2    S    
S1    O25   D    
C8    H24   S    
Ba1   Ba2   S    
O11   P5    S    
S2    O30   S    
Ba1   P2    S    
C39   N7    S    
O5    P4    S    
C1    H9    S    
N7    H55   S    
Ba2   O14   S    
O33   H42   S    
C21   C22   A    
S5    O39   S    
Ba2   O5    S    
O20   P1    S    
C22   P1    S    
N5    H52   S    
C7    C8    S    
Ba1   O12   S    
Ba1   O23   S    
S3    O33   S    
Ba1   O5    S    
N3    H45   S    
C6    H19   S    
Ba1   O8    S    
C19   C20   A    
C17   H30   S    
O17   P8    S    
C9    C13   S    
O7    P4    S    
C21   H27   S    
C8    N5    S    
N4    H49   S    
N8    H60   S    
C31   C32   A    
S7    O45   S    
S6    O41   D    
C35   H34   S    
Ba2   P4    S    
C34   N8    S    
C13   P4    S    
S5    O37   D    
C12   O3    S    
S7    O43   D    
C41   H3    S    
N2    H44   S    
O10   P5    D    
C43   H6    S    
C42   S3    S    
C34   S7    S    
C10   C24   A    
Ba2   O6    S    
C43   O2    S    
C41   C42   S    
C7    H21   S    
C5    H16   S    
C32   C39   A    
C27   C28   A    
C4    H14   S    
S6    O42   S    
C9    C14   D    
C29   C30   A    
C11   C13   D    
C23   S6    S    
O39   H50   S    
C44   H8    S    
N7    H56   S    
C15   C16   S    
C28   C38   S    
Ba2   O4    S    
C23   H15   S    
S4    O34   D    
Ba2   O9    S    
C5    H17   S    
S2    O28   D    
C6    H18   S    
C44   N3    S    
C11   C16   S    
C42   H5    S    
C40   S1    S    
C18   C20   S    
C7    O17   S    
C19   C21   A    
O24   P3    D    
C15   C17   S    
C1    C2    S    
C26   C27   A    
C14   P8    S    
Ba1   O18   S    
C37   C38   T    
N8    H59   S    
C44   S4    S    
S6    O40   D    
O23   P3    S    
C34   O7    S    
C25   N6    S    
C5    O11   S    
O22   P2    D    
N6    H53   S    
N1    H41   S    
O3    P3    S    
C25   C30   A    
C4    H13   S    
O9    P5    S    
S4    O35   D    
C9    H28   S    
O27   H38   S    
O8    P7    S    
C41   H4    S    
C29   H33   S    
N2    H43   S    
C11   H26   S    
C26   P2    S    
C32   P7    S    
O13   P2    S    
C10   C22   A    
C31   C36   A    
S1    O27   S    
C3    H11   S    
Ba2   O13   S    
N5    H51   S    
C7    H22   S    
C27   H36   S    
O19   P6    D    
C1    H7    S    
C28   C29   A    
C36   C37   S    
Ba1   O13   S    
C2    N4    S    
C2    O21   S    
N6    H54   S    
O1    P1    D    
S1    O26   D    
C12   C23   S    
Ba2   O8    S    
C33   C39   A    
C41   O20   S    
S2    O29   D    
O12   P1    S    
Ba1   P1    S    
O21   P6    S    
C8    H23   S    
C1    S5    S    
C3    O15   S    
C40   S2    S    
C20   C24   A    
C10   H29   S    
C25   C26   A    
C23   H37   S    
C12   H35   S    
C24   P6    S    
O14   P7    D    
C33   P5    S    
C14   C15   S    
Ba1   O22   S    
O30   H39   S    
S3    O32   D    
C2    H1    S    
