data_mof_unit_62248.cif
_audit_creation_date              2012-12-10T18:39:50-0500
_audit_creation_method            fapswitch 2.2
_symmetry_space_group_name_H-M    P1
_symmetry_Int_Tables_number       1
_space_group_crystal_system       triclinic
_cell_length_a                    30.374505
_cell_length_b                    29.984308
_cell_length_c                    24.655687
_cell_angle_alpha                 90.115284
_cell_angle_beta                  128.178139
_cell_angle_gamma                 89.983059
_cell_volume                      17651.9612024

loop_
_atom_site_label
_atom_site_type_symbol
_atom_type_description
_atom_site_fract_x
_atom_site_fract_y
_atom_site_fract_z
_atom_type_partial_charge
C1    C     C_R   0.810761 0.811032 0.500219 0.936482
C2    C     C_R   0.189529 0.811021 0.500386 0.902944
C3    C     C_R   0.310778 0.311035 0.500255 0.936366
C4    C     C_R   0.689534 0.311030 0.500356 0.885243
C5    C     C_R   0.646598 0.752021 0.289666 -0.186528
C6    C     C_R   0.354901 0.751318 0.710067 -0.196139
C7    C     C_R   0.146359 0.252699 0.289499 -0.187058
C8    C     C_R   0.852337 0.253906 0.710227 -0.181646
C9    C     C_R   0.466527 0.756465 0.929939 0.366815
C10   C     C_R   0.536807 0.757118 0.069007 0.380941
C11   C     C_R   0.956072 0.263054 0.929823 0.372329
C12   C     C_R   0.029851 0.261917 0.068931 0.381346
C13   C     C_3   0.897995 0.864276 0.565148 -0.158914
C14   C     C_3   0.107062 0.868731 0.435387 -0.134567
C15   C     C_3   0.398324 0.363944 0.565122 -0.159698
C16   C     C_3   0.602519 0.364306 0.435020 -0.139782
C17   C     C_3   0.877345 0.911512 0.534385 -0.150085
C18   C     C_3   0.129326 0.913498 0.474911 -0.128883
C19   C     C_3   0.377834 0.411346 0.535053 -0.153204
C20   C     C_3   0.623166 0.411514 0.466301 -0.142690
C21   C     C_3   0.904634 0.905734 0.499444 -0.010025
C22   C     C_3   0.094921 0.905528 0.500134 0.011541
C23   C     C_3   0.404594 0.405779 0.499439 -0.012613
C24   C     C_3   0.595238 0.405686 0.500410 -0.014372
C25   C     C_3   0.925894 0.859167 0.530176 -0.188462
C26   C     C_3   0.071973 0.861426 0.460607 -0.176654
C27   C     C_3   0.425690 0.359045 0.529474 -0.188044
C28   C     C_3   0.573966 0.359146 0.469166 -0.183877
C29   C     C_3   0.871254 0.839584 0.464815 -0.135641
C30   C     C_3   0.121570 0.837300 0.525693 -0.158116
C31   C     C_3   0.370719 0.339813 0.464153 -0.133243
C32   C     C_3   0.628274 0.339514 0.534712 -0.151616
C33   C     C_3   0.850523 0.886736 0.434073 -0.119344
C34   C     C_3   0.143975 0.881981 0.565222 -0.174102
C35   C     C_3   0.350154 0.387135 0.434109 -0.114074
C36   C     C_3   0.649014 0.386638 0.565967 -0.110830
C37   C     C_3   0.822676 0.891880 0.469082 -0.111742
C38   C     C_3   0.179011 0.889317 0.540025 -0.155493
C39   C     C_3   0.322838 0.392065 0.469794 -0.107607
C40   C     C_3   0.677496 0.391831 0.531787 -0.124054
C41   C     C_3   0.843984 0.845252 0.499836 0.020672
C42   C     C_3   0.156078 0.845167 0.500489 0.015069
C43   C     C_3   0.343984 0.345267 0.499855 0.019069
C44   C     C_3   0.656200 0.345237 0.500525 0.010805
C45   C     C_R   0.682942 0.750255 0.365462 0.937189
C46   C     C_R   0.317263 0.750157 0.634436 0.903462
C47   C     C_R   0.182913 0.250333 0.365396 0.935795
C48   C     C_R   0.816811 0.250701 0.634541 0.896879
C49   C     C_R   0.838126 0.764398 0.746015 -0.193790
C50   C     C_R   0.164012 0.759111 0.254549 -0.171935
C51   C     C_R   0.337705 0.264313 0.745748 -0.194314
C52   C     C_R   0.662872 0.262816 0.254452 -0.193362
C53   C     C_R   0.873101 0.763271 0.817551 -0.139334
C54   C     C_R   0.129219 0.757722 0.183022 -0.125415
C55   C     C_R   0.372593 0.263596 0.817276 -0.140425
C56   C     C_R   0.628040 0.262046 0.182926 -0.138477
C57   C     C_R   0.929729 0.752284 0.854653 0.058931
C58   C     C_R   0.071712 0.750166 0.145543 0.057381
C59   C     C_R   0.429372 0.253117 0.854618 0.059235
C60   C     C_R   0.570988 0.252484 0.145430 0.058317
C61   C     C_R   0.951182 0.743336 0.819169 -0.179640
C62   C     C_R   0.049402 0.744372 0.180689 -0.180070
C63   C     C_R   0.451031 0.244098 0.819389 -0.179765
C64   C     C_R   0.549066 0.244235 0.180516 -0.179579
C65   C     C_R   0.916566 0.744759 0.747034 -0.046714
C66   C     C_R   0.083885 0.746124 0.252819 -0.043740
C67   C     C_R   0.416483 0.245070 0.747235 -0.047220
C68   C     C_R   0.583566 0.245258 0.252679 -0.047332
C69   C     C_R   0.858756 0.753935 0.709994 -0.100148
C70   C     C_R   0.142255 0.752477 0.290111 -0.097557
C71   C     C_R   0.358579 0.253930 0.709975 -0.100412
C72   C     C_R   0.641637 0.253453 0.290059 -0.103907
C73   C     C_R   0.034760 0.749777 0.069870 0.309705
C74   C     C_R   0.966634 0.751022 0.930297 0.308755
C75   C     C_R   0.534150 0.252078 0.069795 0.308224
C76   C     C_R   0.466198 0.252447 0.930244 0.308051
C77   C     C_3   0.591651 0.656553 0.457870 -0.019331
C78   C     C_3   0.409287 0.655075 0.546867 -0.011443
C79   C     C_3   0.091662 0.156744 0.458272 -0.019199
C80   C     C_3   0.908345 0.157725 0.540149 -0.021000
C81   C     C_3   0.600019 0.641252 0.523458 -0.255845
C82   C     C_3   0.403227 0.641971 0.481990 -0.228128
C83   C     C_3   0.100394 0.141167 0.523982 -0.254701
C84   C     C_3   0.898134 0.140761 0.474014 -0.252330
C85   C     C_3   0.595234 0.592891 0.499801 -0.049728
C86   C     C_3   0.404628 0.592821 0.500449 -0.070963
C87   C     C_3   0.095212 0.092905 0.499759 -0.050921
C88   C     C_3   0.905070 0.093032 0.500648 -0.049760
C89   C     C_R   0.688400 0.688904 0.497747 1.021753
C90   C     C_R   0.311826 0.688940 0.502788 0.949821
C91   C     C_R   0.188355 0.188911 0.497656 1.022509
C92   C     C_R   0.811877 0.188957 0.502811 1.019521
C93   C     C_3   0.585720 0.607880 0.433788 -0.252184
C94   C     C_3   0.411987 0.605665 0.565956 -0.255451
C95   C     C_3   0.085341 0.108175 0.433629 -0.250758
C96   C     C_3   0.916423 0.109707 0.567191 -0.255196
C97   C     C_3   0.649731 0.605303 0.473490 -0.099885
C98   C     C_3   0.347546 0.604636 0.522880 -0.090112
C99   C     C_3   0.149266 0.105434 0.472799 -0.099979
C100  C     C_3   0.852915 0.106148 0.530313 -0.098927
C101  C     C_3   0.658336 0.589651 0.538779 -0.104687
C102  C     C_3   0.340914 0.591174 0.457905 -0.118838
C103  C     C_3   0.158227 0.089496 0.538201 -0.105612
C104  C     C_3   0.842478 0.088808 0.464511 -0.101752
C105  C     C_3   0.663814 0.638313 0.562171 -0.088219
C106  C     C_3   0.338890 0.640674 0.439699 -0.077160
C107  C     C_3   0.164099 0.138057 0.562158 -0.088876
C108  C     C_3   0.834862 0.136822 0.438151 -0.088010
C109  C     C_3   0.655232 0.654135 0.496876 -0.166472
C110  C     C_3   0.345361 0.654194 0.504465 -0.165139
C111  C     C_3   0.155156 0.154158 0.496750 -0.166333
C112  C     C_3   0.845261 0.154297 0.503940 -0.169192
C113  C     C_R   0.438833 0.560220 0.500054 0.945915
C114  C     C_R   0.561078 0.560285 0.500019 0.949752
C115  C     C_R   0.939030 0.060356 0.500098 0.951953
C116  C     C_R   0.061074 0.060291 0.500013 0.950551
C117  C     C_R   0.938919 0.939210 0.499846 0.894812
C118  C     C_R   0.060893 0.939098 0.500021 0.887289
C119  C     C_R   0.438884 0.439247 0.499844 0.887456
C120  C     C_R   0.561015 0.439187 0.500072 0.892411
C121  C     C_R   0.818744 0.751503 0.634485 0.948534
C122  C     C_R   0.181645 0.751004 0.365538 0.901151
C123  C     C_R   0.318702 0.251477 0.634481 0.949031
C124  C     C_R   0.681346 0.251346 0.365536 0.954110
C125  C     C_R   0.639076 0.792843 0.256221 -0.087720
C126  C     C_R   0.355961 0.789615 0.744528 -0.075276
C127  C     C_R   0.139147 0.293894 0.257002 -0.084751
C128  C     C_R   0.857977 0.295308 0.741623 -0.075681
C129  C     C_R   0.602782 0.794760 0.183477 -0.081365
C130  C     C_R   0.393634 0.791693 0.817149 -0.073760
C131  C     C_R   0.100678 0.297159 0.184418 -0.082736
C132  C     C_R   0.891291 0.298500 0.814107 -0.081612
C133  C     C_R   0.575677 0.755435 0.144779 -0.090665
C134  C     C_R   0.428793 0.754946 0.854635 -0.110877
C135  C     C_R   0.070971 0.258758 0.144627 -0.091145
C136  C     C_R   0.917997 0.259875 0.854429 -0.093231
C137  C     C_R   0.584710 0.714334 0.178292 -0.077938
C138  C     C_R   0.427417 0.716399 0.820554 -0.073771
C139  C     C_R   0.080092 0.217127 0.177046 -0.077176
C140  C     C_R   0.911220 0.218262 0.823141 -0.073032
C141  C     C_R   0.619408 0.712956 0.250890 -0.108868
C142  C     C_R   0.391008 0.714911 0.747824 -0.084946
C143  C     C_R   0.117079 0.214440 0.249690 -0.108823
C144  C     C_R   0.878869 0.215431 0.750842 -0.087626
H1    H     H_    0.794254 0.772158 0.718661 0.182652
H2    H     H_    0.208312 0.764912 0.282286 0.169163
H3    H     H_    0.293735 0.271771 0.718212 0.182464
H4    H     H_    0.707036 0.269581 0.282129 0.182244
H5    H     H_    0.916433 0.854438 0.618707 0.181405
H6    H     H_    0.092985 0.862548 0.382407 0.175924
H7    H     H_    0.417058 0.353830 0.618669 0.181432
H8    H     H_    0.584488 0.354570 0.381502 0.179865
H9    H     H_    0.968911 0.846719 0.555056 0.150103
H10   H     H_    0.027393 0.850945 0.428221 0.150199
H11   H     H_    0.468557 0.346474 0.553775 0.149697
H12   H     H_    0.530814 0.346715 0.443645 0.148811
H13   H     H_    0.831762 0.896665 0.380427 0.177143
H14   H     H_    0.157859 0.888228 0.618097 0.169094
H15   H     H_    0.331106 0.397372 0.380491 0.176629
H16   H     H_    0.667378 0.396511 0.619570 0.186227
N1    N     N_R   0.484080 0.740773 0.034013 -0.121353
N2    N     N_R   0.449494 0.740317 0.965484 -0.108847
N3    N     N_R   0.977063 0.246045 0.035553 -0.123979
N4    N     N_R   0.940811 0.246366 0.967030 -0.112098
N5    N     N_R   0.518966 0.773258 0.964658 -0.102850
N6    N     N_R   0.553708 0.773428 0.033265 -0.114665
N7    N     N_R   0.008527 0.279455 0.962999 -0.110635
N8    N     N_R   0.044909 0.278833 0.031530 -0.116155
N9    N     N_R   0.023021 0.748931 0.967085 -0.156777
N10   N     N_R   0.978361 0.751614 0.033072 -0.156451
N11   N     N_R   0.522646 0.251819 0.967164 -0.156909
N12   N     N_R   0.477698 0.252505 0.032873 -0.157071
N13   N     N_R   0.056472 0.748400 0.035602 -0.156048
N14   N     N_R   0.944920 0.752272 0.964564 -0.156359
N15   N     N_R   0.556011 0.251715 0.035678 -0.156688
N16   N     N_R   0.444335 0.252753 0.964360 -0.156920
O1    O     O_R   0.822760 0.770240 0.499990 -0.615323
O2    O     O_R   0.177240 0.770240 0.500010 -0.621255
O3    O     O_R   0.322760 0.270240 0.499990 -0.614053
O4    O     O_R   0.677240 0.270240 0.500010 -0.613750
O5    O     O_R   0.482280 0.546460 0.557530 -0.625556
O6    O     O_R   0.517720 0.546460 0.442470 -0.629693
O7    O     O_R   0.982280 0.046460 0.557530 -0.629235
O8    O     O_R   0.017720 0.046460 0.442470 -0.628171
O9    O     O_R   0.924770 0.953450 0.442500 -0.609089
O10   O     O_R   0.075230 0.953450 0.557500 -0.606297
O11   O     O_R   0.424770 0.453450 0.442500 -0.608634
O12   O     O_R   0.575230 0.453450 0.557500 -0.607761
O13   O     O_R   0.982280 0.953430 0.557510 -0.628028
O14   O     O_R   0.017720 0.953430 0.442490 -0.630484
O15   O     O_R   0.482280 0.453430 0.557510 -0.627977
O16   O     O_R   0.517720 0.453430 0.442490 -0.628115
O17   O     O_R   0.770230 0.822760 0.499990 -0.628731
O18   O     O_R   0.229770 0.822760 0.500010 -0.603609
O19   O     O_R   0.270230 0.322760 0.499990 -0.631026
O20   O     O_R   0.729770 0.322760 0.500010 -0.631662
O21   O     O_R   0.725330 0.723740 0.398130 -0.607954
O22   O     O_R   0.274670 0.723740 0.601870 -0.583341
O23   O     O_R   0.225330 0.223740 0.398130 -0.605618
O24   O     O_R   0.774670 0.223740 0.601870 -0.612412
O25   O     O_R   0.672800 0.776260 0.398130 -0.590554
O26   O     O_R   0.327200 0.776260 0.601870 -0.563872
O27   O     O_R   0.172800 0.276260 0.398130 -0.591690
O28   O     O_R   0.827200 0.276260 0.601870 -0.557809
O29   O     O_R   0.729750 0.677220 0.500010 -0.566627
O30   O     O_R   0.270250 0.677220 0.499990 -0.563215
O31   O     O_R   0.229750 0.177220 0.500010 -0.566236
O32   O     O_R   0.770250 0.177220 0.499990 -0.563952
O33   O     O_R   0.677220 0.729740 0.500010 -0.589878
O34   O     O_R   0.322780 0.729740 0.499990 -0.575726
O35   O     O_R   0.177220 0.229740 0.500010 -0.590440
O36   O     O_R   0.822780 0.229740 0.499990 -0.590604
O37   O     O_R   0.827180 0.723730 0.601860 -0.587745
O38   O     O_R   0.172820 0.723730 0.398140 -0.594916
O39   O     O_R   0.327180 0.223730 0.601860 -0.586819
O40   O     O_R   0.672820 0.223730 0.398140 -0.584147
O41   O     O_R   0.774660 0.776250 0.601860 -0.627270
O42   O     O_R   0.225340 0.776250 0.398140 -0.620865
O43   O     O_R   0.274660 0.276250 0.601860 -0.628164
O44   O     O_R   0.725340 0.276250 0.398140 -0.626607
O45   O     O_R   0.424770 0.546480 0.442520 -0.586335
O46   O     O_R   0.575230 0.546480 0.557480 -0.580515
O47   O     O_R   0.924770 0.046480 0.442520 -0.582434
O48   O     O_R   0.075230 0.046480 0.557480 -0.581875
Zn1   Zn    Zn3+2 0.785070 0.714920 0.500000 1.090101
Zn2   Zn    Zn3+2 0.214930 0.714920 0.500000 1.090415
Zn3   Zn    Zn3+2 0.285070 0.214920 0.500000 1.091550
Zn4   Zn    Zn3+2 0.714930 0.214920 0.500000 1.087226
Zn5   Zn    Zn3+2 0.714920 0.785060 0.500000 1.055562
Zn6   Zn    Zn3+2 0.285080 0.785060 0.500000 1.090430
Zn7   Zn    Zn3+2 0.214920 0.285060 0.500000 1.053229
Zn8   Zn    Zn3+2 0.785080 0.285060 0.500000 1.067566
Zn9   Zn    Zn3+2 0.961630 0.999960 0.423200 1.043333
Zn10  Zn    Zn3+2 0.038370 0.999960 0.576800 1.043166
Zn11  Zn    Zn3+2 0.461630 0.499960 0.423200 1.036141
Zn12  Zn    Zn3+2 0.538370 0.499960 0.576800 1.045276
C145  C     C_2   0.669005 0.833639 0.297466 0.965251
O49   O     O_2   0.719916 0.833128 0.341242 -0.666505
O50   O     O_R   0.638972 0.872573 0.285814 -0.761556
H17   H     H_    0.664095 0.898032 0.316942 0.349569
C146  C     C_2   0.315508 0.826641 0.705314 0.921984
O51   O     O_2   0.313326 0.845969 0.660122 -0.603077
O52   O     O_R   0.281382 0.840337 0.722285 -0.787625
H18   H     H_    0.257591 0.867113 0.694542 0.337901
C147  C     C_2   0.171563 0.333748 0.299233 0.962456
O53   O     O_2   0.222582 0.331782 0.341114 -0.667028
O54   O     O_R   0.143753 0.373415 0.290779 -0.762729
H19   H     H_    0.170454 0.398088 0.322307 0.347329
C148  C     C_2   0.826418 0.334793 0.698417 0.943967
O55   O     O_2   0.785730 0.347887 0.692971 -0.650960
O56   O     O_R   0.844236 0.357486 0.665636 -0.729999
H20   H     H_    0.819958 0.384253 0.638586 0.340136
H21   H     H_    0.779724 0.904510 0.444157 0.172385
H22   H     H_    0.223400 0.900218 0.572206 0.195744
H23   H     H_    0.280026 0.404796 0.445433 0.169473
H24   H     H_    0.720436 0.404630 0.557184 0.163266
H25   H     H_    0.855630 0.770924 0.843710 0.168291
H26   H     H_    0.147424 0.762872 0.157157 0.163587
H27   H     H_    0.354970 0.271251 0.843256 0.167649
H28   H     H_    0.645902 0.269019 0.157068 0.168079
H29   H     H_    0.995318 0.736024 0.847738 0.185089
H30   H     H_    0.004736 0.739527 0.151847 0.185879
H31   H     H_    0.495261 0.237084 0.848171 0.185017
H32   H     H_    0.504674 0.237831 0.151616 0.185099
C149  C     C_2   0.942917 0.739200 0.712948 0.931065
O57   O     O_2   0.981463 0.712813 0.736298 -0.592548
O58   O     O_R   0.925392 0.765419 0.655969 -0.829271
H33   H     H_    0.946974 0.758899 0.637879 0.347699
C150  C     C_2   0.057043 0.744081 0.286678 0.931212
O59   O     O_2   0.016067 0.720278 0.262597 -0.593557
O60   O     O_R   0.077021 0.770693 0.344327 -0.825038
H34   H     H_    0.054822 0.766717 0.362138 0.346506
C151  C     C_2   0.442988 0.239399 0.713356 0.930782
O61   O     O_2   0.481750 0.213175 0.737131 -0.591548
O62   O     O_R   0.425367 0.265334 0.656091 -0.829635
H35   H     H_    0.447077 0.258759 0.638189 0.347769
C152  C     C_2   0.556896 0.240320 0.286451 0.929496
O63   O     O_2   0.517452 0.214706 0.262250 -0.592318
O64   O     O_R   0.575177 0.266241 0.344128 -0.827073
H36   H     H_    0.553278 0.260197 0.361898 0.347869
H37   H     H_    0.579062 0.655251 0.543956 0.185548
H38   H     H_    0.426680 0.656452 0.465181 0.184707
H39   H     H_    0.079786 0.155082 0.544980 0.190612
H40   H     H_    0.917240 0.154224 0.450922 0.190155
C153  C     C_2   0.550559 0.691849 0.410052 0.968421
O65   O     O_2   0.501999 0.689100 0.388383 -0.607443
O66   O     O_R   0.567156 0.726998 0.389264 -0.750496
H41   H     H_    0.535319 0.748192 0.356497 0.356864
C154  C     C_2   0.450216 0.689055 0.598746 0.957622
O67   O     O_2   0.499704 0.685603 0.624529 -0.592836
O68   O     O_R   0.432199 0.723842 0.618456 -0.782091
H42   H     H_    0.463990 0.744109 0.654413 0.362158
C155  C     C_2   0.050610 0.192218 0.410960 0.969762
O69   O     O_2   0.002209 0.189653 0.389925 -0.607148
O70   O     O_R   0.067040 0.227307 0.389875 -0.750542
H43   H     H_    0.035241 0.248632 0.357492 0.356201
C156  C     C_2   0.949079 0.194117 0.585224 0.962179
O71   O     O_2   0.996663 0.192522 0.603306 -0.609108
O72   O     O_R   0.933389 0.228887 0.607810 -0.745621
H44   H     H_    0.964906 0.250915 0.638439 0.358648
H45   H     H_    0.553002 0.594963 0.380913 0.189160
H46   H     H_    0.442703 0.590689 0.617783 0.181767
H47   H     H_    0.052355 0.095488 0.380690 0.190067
H48   H     H_    0.950552 0.098167 0.620336 0.187366
C157  C     C_2   0.674064 0.580567 0.444339 0.940909
O73   O     O_2   0.662663 0.541126 0.429504 -0.622726
O74   O     O_R   0.708856 0.602095 0.433677 -0.748367
H49   H     H_    0.721974 0.581567 0.413530 0.365386
C158  C     C_2   0.320464 0.578762 0.547523 0.984600
O75   O     O_2   0.333345 0.539697 0.563883 -0.640852
O76   O     O_R   0.280685 0.598456 0.551053 -0.715478
H50   H     H_    0.265929 0.577163 0.568345 0.354416
C159  C     C_2   0.173142 0.080925 0.442919 0.942050
O77   O     O_2   0.161741 0.041501 0.427936 -0.621755
O78   O     O_R   0.207467 0.102670 0.431677 -0.749327
H51   H     H_    0.220268 0.082302 0.411001 0.365729
C160  C     C_2   0.830992 0.082591 0.563100 0.941377
O79   O     O_2   0.843827 0.043649 0.580465 -0.621309
O80   O     O_R   0.796624 0.104652 0.574034 -0.746920
H52   H     H_    0.784892 0.084866 0.596407 0.368764
C161  C     C_2   0.696913 0.552221 0.583785 0.960242
O81   O     O_2   0.747316 0.556379 0.615173 -0.586933
O82   O     O_R   0.675259 0.512640 0.588501 -0.794108
H53   H     H_    0.705439 0.489847 0.619563 0.347439
C162  C     C_2   0.301477 0.555031 0.409456 0.978174
O83   O     O_2   0.251135 0.559636 0.378049 -0.568275
O84   O     O_R   0.322240 0.515906 0.401987 -0.795401
H54   H     H_    0.291524 0.493908 0.368945 0.343847
C163  C     C_2   0.196692 0.051868 0.582663 0.959758
O85   O     O_2   0.247045 0.055791 0.613497 -0.583828
O86   O     O_R   0.174978 0.012386 0.587549 -0.796031
H55   H     H_    0.205064 0.989434 0.618197 0.346375
C164  C     C_2   0.804458 0.050283 0.422397 0.955827
O87   O     O_2   0.754376 0.053325 0.393762 -0.589104
O88   O     O_R   0.826305 0.011040 0.417029 -0.798280
H56   H     H_    0.796524 0.987483 0.387962 0.342622
C165  C     C_2   0.593351 0.837912 0.147974 0.980091
O89   O     O_2   0.545655 0.851114 0.103447 -0.569217
O90   O     O_R   0.639127 0.863385 0.165727 -0.773915
H57   H     H_    0.627385 0.892024 0.138217 0.363671
C166  C     C_2   0.397386 0.832977 0.853717 0.978178
O91   O     O_2   0.397563 0.830568 0.903359 -0.568837
O92   O     O_R   0.400427 0.874652 0.830834 -0.762119
H58   H     H_    0.402574 0.900135 0.859481 0.366683
C167  C     C_2   0.091564 0.340822 0.150252 0.981997
O93   O     O_2   0.044089 0.355422 0.108663 -0.568025
O94   O     O_R   0.137397 0.365183 0.165936 -0.773671
H59   H     H_    0.125893 0.394319 0.139637 0.363835
C168  C     C_2   0.898458 0.342262 0.847663 0.953993
O95   O     O_2   0.896394 0.344403 0.895596 -0.574611
O96   O     O_R   0.907599 0.380992 0.824367 -0.756662
H60   H     H_    0.911698 0.408511 0.851122 0.366547
C169  C     C_2   0.706823 0.653067 0.635351 0.961078
O97   O     O_2   0.704074 0.639529 0.679906 -0.580296
O98   O     O_R   0.750525 0.681004 0.652771 -0.821131
H61   H     H_    0.778042 0.686484 0.704293 0.347745
C170  C     C_2   0.300353 0.662100 0.370117 0.924665
O99   O     O_2   0.262967 0.640429 0.320340 -0.576609
O100  O     O_R   0.308472 0.706785 0.362527 -0.786094
H62   H     H_    0.282126 0.716929 0.312752 0.340489
C171  C     C_2   0.207514 0.152495 0.635412 0.960611
O101  O     O_2   0.204996 0.138851 0.680108 -0.582341
O102  O     O_R   0.251334 0.180239 0.652721 -0.821099
H63   H     H_    0.279138 0.185491 0.704278 0.347818
C172  C     C_2   0.789810 0.149736 0.364669 0.958554
O103  O     O_2   0.791116 0.135190 0.319340 -0.582498
O104  O     O_R   0.745897 0.177097 0.347961 -0.821380
H64   H     H_    0.716987 0.181346 0.296337 0.348056
C173  C     C_2   0.557967 0.672724 0.137093 0.959815
O105  O     O_2   0.531563 0.648531 0.147638 -0.581277
O106  O     O_R   0.562640 0.661654 0.085708 -0.755027
H65   H     H_    0.542258 0.632996 0.060729 0.364256
C174  C     C_2   0.462665 0.676907 0.860950 0.973103
O107  O     O_2   0.512333 0.681584 0.909501 -0.568457
O108  O     O_R   0.438778 0.634302 0.842962 -0.771937
H66   H     H_    0.466801 0.610206 0.873923 0.359923
C175  C     C_2   0.051006 0.176329 0.134664 0.959054
O109  O     O_2   0.025591 0.152195 0.146801 -0.580372
O110  O     O_R   0.052365 0.165936 0.080391 -0.751718
H67   H     H_    0.030589 0.137824 0.054851 0.365135
C176  C     C_2   0.941050 0.178297 0.866625 0.931347
O111  O     O_2   0.992219 0.178041 0.907669 -0.578608
O112  O     O_R   0.910482 0.141404 0.861291 -0.730987
H68   H     H_    0.935434 0.116455 0.893818 0.357627
C177  C     C_2   0.624978 0.671057 0.286241 0.995116
O113  O     O_2   0.645951 0.638103 0.281179 -0.578851
O114  O     O_R   0.604055 0.669181 0.323080 -0.782304
H69   H     H_    0.604408 0.637843 0.338352 0.338491
C178  C     C_2   0.393681 0.676452 0.711713 0.957824
O115  O     O_2   0.351068 0.656444 0.666576 -0.579312
O116  O     O_R   0.445483 0.662573 0.730843 -0.768769
H70   H     H_    0.442135 0.635633 0.703627 0.338652
C179  C     C_2   0.122772 0.172084 0.284143 0.994124
O117  O     O_2   0.142628 0.139221 0.277036 -0.578310
O118  O     O_R   0.103130 0.169665 0.322386 -0.781058
H71   H     H_    0.103333 0.138112 0.336883 0.339433
C180  C     C_2   0.878405 0.173700 0.718245 0.955910
O119  O     O_2   0.858321 0.139565 0.721765 -0.552020
O120  O     O_R   0.901754 0.173736 0.684107 -0.786321
H72   H     H_    0.902779 0.142911 0.668176 0.335921
H73   H     H_    0.880721 0.941864 0.562627 0.187565
H74   H     H_    0.131533 0.945595 0.454307 0.189321
H75   H     H_    0.381638 0.441525 0.563864 0.186096
H76   H     H_    0.620176 0.441887 0.438505 0.186999
H77   H     H_    0.867877 0.809395 0.436298 0.166090
H78   H     H_    0.119258 0.805406 0.546621 0.164908
H79   H     H_    0.366918 0.309783 0.435096 0.167115
H80   H     H_    0.631262 0.309305 0.562783 0.165229

loop_
_geom_bond_atom_site_label_1
_geom_bond_atom_site_label_2
_ccdc_geom_bond_type
O9    Zn9   S    
C124  O44   A    
C133  C137  A    
C170  O99   D    
C55   C59   A    
C31   H79   S    
O18   Zn6   S    
C17   H73   S    
O68   H42   S    
C32   H80   S    
C104  C108  S    
C136  C140  A    
C15   H7    S    
C165  O89   D    
C118  O10   A    
C164  O87   D    
C135  C139  A    
O46   Zn12  S    
C85   C114  S    
C180  O120  S    
C20   C40   S    
C95   C99   S    
C46   O22   A    
C39   H23   S    
O60   H34   S    
C29   C33   S    
C100  C104  S    
C122  O38   A    
C22   C118  S    
C21   C117  S    
O47   Zn9   S    
C89   O29   A    
O62   H35   S    
C12   C135  S    
O30   Zn2   S    
C106  C170  S    
C16   C44   S    
C163  O85   D    
C131  C167  S    
C158  O76   S    
C65   C149  S    
C49   C69   A    
C147  O53   D    
C72   C124  S    
C11   N7    A    
C130  C134  A    
C51   C71   A    
C94   H46   S    
C120  O12   A    
C169  O98   S    
N1    N2    A    
C25   C29   S    
C24   C120  S    
C27   C31   S    
O82   H53   S    
C28   C32   S    
C76   N16   A    
C81   H37   S    
C62   C66   A    
O15   Zn12  S    
C98   C102  S    
C29   H77   S    
C17   C21   S    
C121  O37   A    
O28   Zn8   S    
C19   C23   S    
C52   C72   A    
C142  C178  S    
C105  C169  S    
C78   C82   S    
C15   C27   S    
O98   H61   S    
C16   C20   S    
C97   C101  S    
C80   C112  S    
C14   C26   S    
C113  O45   A    
C87   C103  S    
C1    C41   S    
C38   H22   S    
C101  C161  S    
C150  O60   S    
C178  O115  D    
C54   H26   S    
C30   H78   S    
O112  H68   S    
O16   Zn11  S    
N10   N14   A    
C4    O20   A    
C84   C88   S    
C77   C153  S    
O108  H66   S    
C57   C61   A    
C120  O16   A    
C179  O117  D    
C59   C63   A    
C128  C148  S    
C60   C64   A    
C50   C70   A    
C61   H29   S    
C153  O66   S    
C11   C136  S    
C79   C155  S    
C12   N3    A    
C66   C70   A    
C78   C94   S    
O36   Zn8   S    
C51   C55   A    
C18   C38   S    
C127  C131  A    
O7    Zn10  S    
O88   H56   S    
C40   H24   S    
C61   C65   A    
C21   C33   S    
O110  H67   S    
C161  O81   D    
O100  H62   S    
C66   C150  S    
C95   H47   S    
C103  C107  S    
C73   N10   A    
C172  O103  D    
O52   H18   S    
C177  O114  S    
C79   C83   S    
C168  O95   D    
O96   H60   S    
C7    C143  A    
C138  C174  S    
C148  O55   D    
O40   Zn4   S    
C31   C43   S    
C64   C68   A    
C71   C123  S    
C74   N14   A    
C23   C119  S    
C49   C53   A    
C159  O78   S    
C45   O21   A    
O120  H72   S    
C146  O51   D    
C162  O84   S    
C139  C143  A    
C8    C128  A    
C113  O5    A    
O20   Zn8   S    
C157  O74   S    
C87   C95   S    
C103  C163  S    
C51   H3    S    
C100  C160  S    
C10   N6    A    
O25   Zn5   S    
C52   H4    S    
C145  O49   D    
C156  O72   S    
C47   O23   A    
C105  C109  S    
C88   C104  S    
C151  O61   D    
C166  O92   S    
C32   C44   S    
C22   C34   S    
C81   C105  S    
C30   C34   S    
C130  C166  S    
C91   O35   A    
C99   C103  S    
C89   O33   A    
C155  O69   D    
C125  C129  A    
C97   C109  S    
C70   C122  S    
C132  C136  A    
C99   C111  S    
C154  O67   D    
O14   Zn9   S    
C14   C42   S    
C77   C109  S    
C149  O58   S    
C117  O13   A    
C80   C156  S    
C26   C30   S    
C92   O36   A    
C6    C142  A    
C86   C102  S    
C93   C97   S    
C178  O116  S    
C21   C25   S    
C140  C176  S    
C29   C41   S    
C18   C22   S    
C107  C111  S    
C24   C28   S    
O43   Zn7   S    
C91   O31   A    
O58   H33   S    
C48   O28   A    
C97   C157  S    
C13   C17   S    
C88   C115  S    
C145  O50   S    
C15   C43   S    
O70   H43   S    
C180  O119  D    
O32   Zn4   S    
O5    Zn12  S    
C2    C42   S    
C96   C100  S    
C151  O62   S    
O39   Zn3   S    
C82   C106  S    
C37   C41   S    
C119  O11   A    
C175  O110  S    
O37   Zn1   S    
O1    Zn1   S    
O22   Zn2   S    
C40   C44   S    
C5    C125  A    
C75   N12   A    
N9    N13   A    
C2    O2    A    
C7    C127  A    
C59   C76   S    
C81   C85   S    
N12   N16   A    
C173  O106  S    
C82   H38   S    
C58   C62   A    
C83   C87   S    
C88   C96   S    
C98   C110  S    
C123  O39   A    
O50   H17   S    
C10   C133  S    
O17   Zn5   S    
C80   C84   S    
C137  C173  S    
C13   C41   S    
C169  O97   D    
C107  C171  S    
O56   H20   S    
C56   H28   S    
C15   C19   S    
C171  O102  S    
C50   C54   A    
O35   Zn7   S    
C48   O24   A    
C86   C113  S    
C115  O47   A    
C137  C141  A    
C174  O108  S    
C106  C110  S    
C126  C130  A    
O106  H65   S    
O24   Zn4   S    
C102  C162  S    
C160  O80   S    
O48   Zn10  S    
O42   Zn6   S    
C74   N9    A    
C123  O43   A    
C90   O30   A    
N3    N4    A    
O102  H63   S    
O29   Zn1   S    
C167  O94   S    
C6    C46   S    
C50   H2    S    
O78   H51   S    
C170  O100  S    
C150  O59   D    
O45   Zn11  S    
C121  O41   A    
C4    O4    A    
C165  O90   S    
C33   H13   S    
C164  O88   S    
C27   H11   S    
C53   H25   S    
C75   N15   A    
O74   H49   S    
C99   C159  S    
C6    C126  A    
C138  C142  A    
N7    N8    A    
C53   C57   A    
C92   C112  S    
C68   C152  S    
C4    C44   S    
C82   C86   S    
C129  C165  S    
O4    Zn4   S    
C33   C37   S    
C56   C60   A    
C2    O18   A    
C7    C47   S    
C116  O48   A    
C35   C39   S    
O72   H44   S    
C8    C48   S    
C79   C95   S    
C153  O65   D    
C179  O118  S    
O90   H57   S    
C77   C81   S    
C14   H6    S    
C98   C158  S    
O34   Zn6   S    
C47   O27   A    
C16   H8    S    
C24   C36   S    
C114  O46   A    
C87   C116  S    
C139  C175  S    
O6    Zn11  S    
O31   Zn3   S    
C100  C112  S    
C10   N1    A    
C23   C35   S    
C147  O54   S    
C31   C35   S    
C32   C36   S    
O94   H59   S    
C125  C145  S    
C108  C172  S    
C78   C154  S    
C177  O113  D    
C141  C177  S    
C140  C144  A    
C63   H31   S    
C115  O7    A    
O118  H71   S    
C64   H32   S    
C60   C75   S    
C9    N5    A    
O64   H36   S    
O84   H54   S    
C25   H9    S    
C114  O6    A    
O27   Zn7   S    
C118  O14   A    
C159  O77   D    
C5    C45   S    
C65   C69   A    
C77   C93   S    
C84   C108  S    
C67   C71   A    
C162  O83   D    
C3    O19   A    
C83   H39   S    
O80   H52   S    
C108  C112  S    
C46   O26   A    
C157  O73   D    
C22   C26   S    
C176  O112  S    
C30   C42   S    
C104  C164  S    
O23   Zn3   S    
C132  C168  S    
O21   Zn1   S    
C16   C28   S    
O92   H58   S    
N5    N6    A    
C89   C109  S    
C156  O71   D    
C14   C18   S    
C1    O17   A    
O104  H64   S    
O86   H55   S    
C62   H30   S    
O33   Zn5   S    
O116  H70   S    
C158  O75   D    
C84   H40   S    
C3    C43   S    
C93   H45   S    
C119  O15   A    
C38   C42   S    
C131  C135  A    
C172  O104  S    
C116  O8    A    
C91   C111  S    
C3    O3    A    
C86   C94   S    
O41   Zn5   S    
C1    O1    A    
O66   H41   S    
C161  O82   S    
C127  C147  S    
C23   C27   S    
C80   C96   S    
C149  O57   D    
C55   H27   S    
O12   Zn12  S    
C68   C72   A    
O26   Zn6   S    
C9    C134  S    
C168  O96   S    
O3    Zn3   S    
C13   C25   S    
C160  O79   D    
C85   C93   S    
C128  C132  A    
C35   H15   S    
C101  C105  S    
C63   C67   A    
C148  O56   S    
O44   Zn8   S    
C49   H1    S    
C20   C24   S    
C36   C40   S    
C124  O40   A    
C90   O34   A    
C39   C43   S    
O76   H50   S    
C18   H74   S    
N11   N15   A    
C146  O52   S    
C57   C74   S    
C67   C151  S    
C76   N11   A    
C92   O32   A    
C5    C141  A    
C69   C121  S    
C126  C146  S    
C144  C180  S    
C163  O86   S    
O19   Zn7   S    
C78   C110  S    
C17   C37   S    
O13   Zn10  S    
C175  O109  D    
C19   C39   S    
C34   H14   S    
C152  O64   S    
C129  C133  A    
C26   H10   S    
C90   C110  S    
C85   C101  S    
C173  O105  D    
C54   C58   A    
C122  O42   A    
C34   C38   S    
C143  C179  S    
C134  C138  A    
O54   H19   S    
C20   H76   S    
C96   H48   S    
C171  O101  D    
C37   H21   S    
C79   C111  S    
O11   Zn11  S    
C13   H5    S    
C155  O70   S    
C174  O107  D    
C176  O111  D    
C11   N4    A    
C154  O68   S    
C83   C107  S    
C102  C106  S    
C94   C98   S    
C73   N13   A    
C9    N2    A    
O38   Zn2   S    
C117  O9    A    
O8    Zn9   S    
O2    Zn2   S    
C36   H16   S    
C8    C144  A    
C52   C56   A    
C45   O25   A    
C12   N8    A    
C28   H12   S    
C166  O91   D    
O10   Zn10  S    
C167  O93   D    
C152  O63   D    
C19   H75   S    
O114  H69   S    
C58   C73   S    
