data_mof_unit_41226.cif
_audit_creation_date              2012-10-26T21:05:38-0400
_audit_creation_method            fapswitch 2.2
_symmetry_space_group_name_H-M    P1
_symmetry_Int_Tables_number       1
_space_group_crystal_system       triclinic
_cell_length_a                    13.06584
_cell_length_b                    9.094596
_cell_length_c                    7.807073
_cell_angle_alpha                 90.00089
_cell_angle_beta                  96.007592
_cell_angle_gamma                 89.998524
_cell_volume                      922.608144477

loop_
_atom_site_label
_atom_site_type_symbol
_atom_type_description
_atom_site_fract_x
_atom_site_fract_y
_atom_site_fract_z
_atom_type_partial_charge
C1    C     C_R   0.499995 0.220118 0.499999 0.557119
C2    C     C_R   0.870868 0.510961 0.718816 0.059530
C3    C     C_R   0.135071 0.514699 0.592566 -0.117700
C4    C     C_R   0.864930 0.485329 0.407430 -0.117698
C5    C     C_R   0.028350 0.509739 0.580792 0.024994
C6    C     C_R   0.971650 0.490294 0.419204 0.024991
C7    C     C_1   0.499999 0.065392 0.499999 -0.017721
C8    C     C_1   0.500001 0.934608 0.500001 -0.017720
C9    C     C_2   0.823004 0.510522 0.881706 0.571746
C10   C     C_2   0.176995 0.489522 0.118289 0.571755
C11   C     C_R   0.500005 0.779882 0.500001 0.557117
C12   C     C_R   0.299904 0.502194 0.467311 0.548659
C13   C     C_R   0.700096 0.497812 0.532688 0.548659
C14   C     C_R   0.813227 0.496415 0.555050 -0.016116
C15   C     C_R   0.186774 0.503608 0.444948 -0.016117
C16   C     C_R   0.022238 0.478422 0.270981 -0.101255
C17   C     C_R   0.977761 0.521616 0.729014 -0.101251
C18   C     C_R   0.129132 0.489073 0.281180 0.059529
Cu1   Cu    Cu3+1 0.500010 0.500000 0.669080 1.082842
Cu2   Cu    Cu3+1 0.499990 0.500000 0.330920 1.082847
H1    H     H_    0.822088 0.473441 0.282403 0.160746
H2    H     H_    0.177913 0.526584 0.717593 0.160747
H3    H     H_    0.978528 0.463474 0.146753 0.150151
H4    H     H_    0.021471 0.536571 0.853241 0.150149
H5    H     H_    0.733043 0.400689 0.033881 0.335601
H6    H     H_    0.266951 0.599365 0.966114 0.335598
N1    N     N_1   0.499980 0.500000 0.076820 -0.073476
N2    N     N_1   0.500020 0.500000 0.923180 -0.073478
O1    O     O_R   0.500000 0.288400 0.642760 -0.486455
O2    O     O_R   0.770664 0.384982 0.928427 -0.669696
O3    O     O_2   0.170653 0.380960 0.025459 -0.523854
O4    O     O_R   0.229351 0.615054 0.071592 -0.669695
O5    O     O_R   0.500000 0.711600 0.357240 -0.486453
O6    O     O_R   0.500000 0.288400 0.357240 -0.498279
O7    O     O_R   0.500000 0.711600 0.642760 -0.498281
O8    O     O_R   0.349000 0.500000 0.619590 -0.522240
O9    O     O_R   0.651000 0.500000 0.380410 -0.522244
O10   O     O_R   0.348990 0.500000 0.334020 -0.464602
O11   O     O_R   0.651010 0.500000 0.665980 -0.464611
O12   O     O_2   0.829331 0.619099 0.974515 -0.523839

loop_
_geom_bond_atom_site_label_1
_geom_bond_atom_site_label_2
_ccdc_geom_bond_type
C15   C18   A    
H6    O4    S    
Cu2   O9    S    
Cu2   N1    S    
C12   O8    A    
Cu2   O10   S    
C13   O9    A    
Cu1   Cu2   S    
C12   C15   S    
Cu2   O6    S    
C1    O1    A    
C7    C8    T    
Cu1   O7    S    
C13   C14   S    
C2    C17   A    
C4    C14   A    
C4    H1    S    
Cu1   O11   S    
C9    O2    S    
C10   C18   S    
C8    C11   S    
Cu2   O5    S    
C11   O7    A    
C1    O6    A    
C16   H3    S    
Cu1   O8    S    
C12   O10   A    
C5    C6    A    
C2    C14   A    
C13   O11   A    
C17   H4    S    
C5    C17   A    
C6    C16   A    
Cu1   N2    S    
Cu1   O1    S    
C10   O4    S    
C11   O5    A    
C3    C15   A    
C16   C18   A    
C4    C6    A    
N1    N2    T    
H5    O2    S    
C3    H2    S    
C1    C7    S    
C2    C9    S    
C10   O3    D    
C9    O12   D    
C3    C5    A    
