data_mof_unit_45520.cif
_audit_creation_date              2012-10-26T18:43:50-0400
_audit_creation_method            fapswitch 2.2
_symmetry_space_group_name_H-M    P1
_symmetry_Int_Tables_number       1
_space_group_crystal_system       triclinic
_cell_length_a                    9.546047
_cell_length_b                    10.840217
_cell_length_c                    17.280211
_cell_angle_alpha                 90.355234
_cell_angle_beta                  86.048893
_cell_angle_gamma                 90.454691
_cell_volume                      1783.84240067

loop_
_atom_site_label
_atom_site_type_symbol
_atom_type_description
_atom_site_fract_x
_atom_site_fract_y
_atom_site_fract_z
_atom_type_partial_charge
C1    C     C_R   0.500194 0.737528 0.501771 0.550786
C2    C     C_R   0.525480 0.524048 0.266020 -0.041756
C3    C     C_R   0.374229 0.934551 0.503884 0.068804
C4    C     C_R   0.481857 0.499623 0.650102 0.549967
C5    C     C_R   0.499234 0.870440 0.509141 -0.003475
C6    C     C_R   0.621989 0.936711 0.523523 -0.157351
C7    C     C_R   0.621543 0.065499 0.522665 -0.153492
C8    C     C_R   0.498830 0.128909 0.506513 -0.015503
C9    C     C_R   0.374757 0.061413 0.500517 -0.021751
C10   C     C_3   0.266683 0.062108 0.441221 -0.123785
C11   C     C_3   0.265170 0.921524 0.445951 -0.080111
C12   C     C_R   0.343671 0.485640 0.777704 -0.121974
C13   C     C_R   0.934541 0.480722 0.432837 0.161989
C14   C     C_R   0.917994 0.531246 0.564692 0.006406
C15   C     C_R   0.066515 0.530725 0.564795 0.035427
C16   C     C_R   0.499643 0.262238 0.500542 0.543329
C17   C     C_R   0.082022 0.482354 0.432636 0.147628
C18   C     C_3   0.094601 0.371836 0.381407 -0.242347
C19   C     C_3   0.935719 0.368125 0.382798 -0.258216
C20   C     C_R   0.517965 0.504614 0.350030 0.538658
C21   C     C_R   0.473384 0.499101 0.734993 0.018857
C22   C     C_R   0.596866 0.511314 0.774066 -0.123605
C23   C     C_R   0.410767 0.589542 0.151952 0.023210
C24   C     C_R   0.590851 0.512110 0.854430 -0.099332
C25   C     C_R   0.461085 0.501193 0.897114 0.044732
C26   C     C_R   0.337874 0.485665 0.858530 -0.107318
C27   C     C_2   0.794041 0.506389 0.094836 0.249557
C28   C     C_2   0.321160 0.107754 0.362525 0.200485
C29   C     C_2   0.126481 0.870575 0.479145 0.233249
C30   C     C_2   0.284454 0.641614 0.118474 0.246310
C31   C     C_R   0.406297 0.565240 0.231286 -0.094570
C32   C     C_R   0.651747 0.509210 0.221262 -0.091163
C33   C     C_R   0.659184 0.529318 0.141131 0.028608
C34   C     C_R   0.536854 0.567275 0.106048 -0.031972
C35   C     C_2   0.453236 0.503482 0.981999 -0.142064
C36   C     C_2   0.539058 0.575117 0.021232 -0.182750
Cu1   Cu    Cu3+1 0.359330 0.500020 0.500000 0.974597
Cu2   Cu    Cu3+1 0.640670 0.499980 0.500000 0.950703
H1    H     H_    0.698531 0.520537 0.742696 0.118496
H2    H     H_    0.247133 0.474946 0.748811 0.120128
H3    H     H_    0.373727 0.446876 0.013154 0.149079
H4    H     H_    0.802024 0.516597 0.032344 0.100126
H5    H     H_    0.718422 0.114711 0.531420 0.143108
H6    H     H_    0.167389 0.106124 0.464099 0.127164
H7    H     H_    0.429010 0.139170 0.352143 0.121426
H8    H     H_    0.036474 0.871808 0.444113 0.113137
H9    H     H_    0.856988 0.555732 0.617389 0.117061
H10   H     H_    0.114861 0.554578 0.617615 0.133001
H11   H     H_    0.896364 0.385774 0.325093 0.153593
H12   H     H_    0.719268 0.889604 0.532221 0.153300
H13   H     H_    0.237221 0.475667 0.890969 0.117549
H14   H     H_    0.290151 0.676026 0.059554 0.123275
H15   H     H_    0.688020 0.519759 0.882997 0.104120
H16   H     H_    0.305086 0.872735 0.392062 0.121523
H17   H     H_    0.145933 0.393591 0.323345 0.172115
H18   H     H_    0.309982 0.581704 0.266644 0.174496
H19   H     H_    0.139403 0.293002 0.411063 0.161808
H20   H     H_    0.888280 0.286415 0.413479 0.145997
H21   H     H_    0.744099 0.480156 0.248744 0.166832
H22   H     H_    0.617123 0.634201 0.991156 0.126281
N1    N     N_R   0.852130 0.499070 0.499500 -0.238404
N2    N     N_R   0.148040 0.499110 0.499500 -0.235207
O1    O     O_R   0.381190 0.680360 0.500000 -0.466027
O2    O     O_2   0.244063 0.107770 0.309060 -0.494729
O3    O     O_2   0.113449 0.827763 0.544484 -0.501520
O4    O     O_2   0.172190 0.647911 0.156678 -0.470089
O5    O     O_R   0.618770 0.680320 0.499990 -0.502971
O6    O     O_R   0.367430 0.500040 0.613600 -0.513271
O7    O     O_R   0.605020 0.500000 0.613590 -0.518653
O8    O     O_R   0.381230 0.319680 0.500010 -0.503373
O9    O     O_R   0.618810 0.319640 0.500000 -0.508199
O10   O     O_R   0.394980 0.500000 0.386410 -0.513979
O11   O     O_R   0.632570 0.499960 0.386400 -0.503800
O12   O     O_2   0.898952 0.475208 0.126138 -0.474157

loop_
_geom_bond_atom_site_label_1
_geom_bond_atom_site_label_2
_ccdc_geom_bond_type
C35   C36   D    
Cu1   N2    S    
C7    C8    A    
C27   C33   S    
C1    C5    S    
C5    C6    A    
Cu1   O6    S    
C2    C32   A    
C18   C19   S    
C8    C9    A    
C7    H5    S    
C31   H18   S    
C27   O12   D    
C9    C10   S    
Cu2   N1    S    
Cu2   O7    S    
C8    C16   S    
Cu1   O8    S    
C16   O9    A    
C15   H10   S    
C1    O1    A    
C4    O7    A    
Cu1   O1    S    
C17   C18   S    
C6    C7    A    
C19   H20   S    
C28   H7    S    
C13   C19   S    
C10   H6    S    
C23   C30   S    
C16   O8    A    
C24   C25   A    
C4    O6    A    
C3    C5    A    
C25   C26   A    
C14   N1    A    
C2    C20   S    
C12   C21   A    
C12   C26   A    
C2    C31   A    
C23   C31   A    
C12   H2    S    
Cu1   Cu2   S    
C3    C9    A    
C17   N2    A    
C19   H11   S    
C18   H19   S    
C23   C34   A    
C33   C34   A    
C6    H12   S    
C30   O4    D    
C11   H16   S    
C18   H17   S    
C25   C35   S    
C29   O3    D    
C28   O2    D    
C22   C24   A    
C10   C28   S    
C30   H14   S    
Cu2   O9    S    
C36   H22   S    
C14   H9    S    
C13   C17   A    
C29   H8    S    
C32   C33   A    
C24   H15   S    
C26   H13   S    
C4    C21   S    
C27   H4    S    
C22   H1    S    
C1    O5    A    
C15   N2    A    
C20   O11   A    
C34   C36   S    
C35   H3    S    
C3    C11   S    
C10   C11   S    
C13   N1    A    
Cu2   O5    S    
C11   C29   S    
Cu1   O10   S    
C14   C15   A    
C20   O10   A    
C32   H21   S    
C21   C22   A    
Cu2   O11   S    
