data_mof_unit_50503.cif
_audit_creation_date              2012-12-11T14:10:56-0500
_audit_creation_method            fapswitch 2.2
_symmetry_space_group_name_H-M    P1
_symmetry_Int_Tables_number       1
_space_group_crystal_system       triclinic
_cell_length_a                    19.688642
_cell_length_b                    17.182666
_cell_length_c                    15.548745
_cell_angle_alpha                 90.000074
_cell_angle_beta                  52.622728
_cell_angle_gamma                 90.001724
_cell_volume                      4180.04098504

loop_
_atom_site_label
_atom_site_type_symbol
_atom_type_description
_atom_site_fract_x
_atom_site_fract_y
_atom_site_fract_z
_atom_type_partial_charge
C1    C     C_R   0.378547 0.197880 0.988783 -0.109570
C2    C     C_3   0.757186 0.775746 0.439895 0.050607
C3    C     C_1   0.540068 0.338181 0.656148 0.071913
C4    C     C_1   0.040097 0.161739 0.656125 0.071915
C5    C     C_1   0.959908 0.838258 0.343856 0.071917
C6    C     C_1   0.868362 0.211358 0.375673 0.068266
C7    C     C_1   0.131681 0.788722 0.624419 0.068252
C8    C     C_1   0.286685 0.224734 0.610011 0.046840
C9    C     C_1   0.713301 0.775269 0.390011 0.046839
C10   C     C_1   0.625788 0.278875 0.411942 0.063856
C11   C     C_1   0.374302 0.720975 0.587951 0.063878
C12   C     C_1   0.874204 0.778945 0.588065 0.063850
C13   C     C_3   0.666914 0.276809 0.465137 0.040589
C14   C     C_1   0.125819 0.221065 0.411915 0.063845
C15   C     C_1   0.213205 0.724782 0.390136 0.046835
C16   C     C_1   0.786711 0.275355 0.609965 0.046830
C17   C     C_3   0.333130 0.723119 0.534811 0.040572
C18   C     C_3   0.833090 0.776834 0.534854 0.040584
C19   C     C_3   0.166920 0.223172 0.465141 0.040586
C20   C     C_3   0.257129 0.724265 0.439971 0.050598
C21   C     C_3   0.742828 0.275795 0.560082 0.050612
C22   C     C_2   0.187939 0.744494 0.098071 -0.188036
C23   C     C_2   0.812045 0.255515 0.901949 -0.188033
C24   C     C_2   0.712285 0.686826 0.046807 -0.174417
C25   C     C_R   0.621445 0.802117 0.011227 -0.109567
C26   C     C_2   0.287702 0.313167 0.953211 -0.174433
C27   C     C_2   0.787731 0.186817 0.953164 -0.174419
C28   C     C_2   0.212269 0.813183 0.046832 -0.174413
C29   C     C_2   0.312021 0.244475 0.901986 -0.188027
C30   C     C_2   0.687967 0.755518 0.098030 -0.188039
C31   C     C_R   0.395660 0.801609 0.210926 0.054363
C32   C     C_R   0.604323 0.198395 0.789089 0.054358
C33   C     C_R   0.649567 0.826009 0.777005 0.069854
C34   C     C_R   0.350444 0.174003 0.222999 0.069850
C35   C     C_R   0.850407 0.326039 0.222987 0.069867
C36   C     C_R   0.661644 0.174187 0.950409 -0.109679
C37   C     C_R   0.149606 0.673953 0.777000 0.069858
C38   C     C_R   0.104291 0.301599 0.789109 0.054392
C39   C     C_R   0.895703 0.698400 0.210896 0.054392
C40   C     C_R   0.329611 0.913289 0.951193 -0.136730
C41   C     C_R   0.670391 0.086709 0.048803 -0.136728
C42   C     C_R   0.634081 0.889917 0.103697 -0.146042
C43   C     C_R   0.365914 0.110080 0.896309 -0.146039
C44   C     C_R   0.865924 0.389916 0.896296 -0.146033
C45   C     C_R   0.134071 0.610086 0.103711 -0.146027
C46   C     C_R   0.170381 0.413284 0.048821 -0.136740
C47   C     C_R   0.338358 0.825809 0.049584 -0.109671
C48   C     C_R   0.829616 0.586714 0.951183 -0.136734
C49   C     C_R   0.358498 0.080199 0.316670 -0.138880
C50   C     C_R   0.641509 0.919811 0.683336 -0.138881
C51   C     C_R   0.599706 0.105927 0.692225 -0.158474
C52   C     C_R   0.400267 0.894083 0.307795 -0.158458
C53   C     C_R   0.900337 0.605939 0.307748 -0.158486
C54   C     C_R   0.099655 0.394060 0.692257 -0.158475
C55   C     C_R   0.141524 0.580166 0.683339 -0.138870
C56   C     C_R   0.858471 0.419834 0.316653 -0.138885
C57   C     C_R   0.349617 0.186378 0.928868 0.139424
C58   C     C_R   0.838364 0.674195 0.049575 -0.109672
C59   C     C_R   0.650372 0.813617 0.071146 0.139423
C60   C     C_R   0.713313 0.147356 0.976274 0.142202
C61   C     C_R   0.286688 0.852641 0.023720 0.142197
C62   C     C_R   0.786697 0.647365 0.023703 0.142200
C63   C     C_R   0.213297 0.352631 0.976305 0.142212
C64   C     C_R   0.150353 0.686389 0.071175 0.139404
C65   C     C_R   0.849634 0.313615 0.928843 0.139419
C66   C     C_R   0.380511 0.817880 0.307516 0.029437
C67   C     C_R   0.619455 0.182129 0.692512 0.029443
C68   C     C_R   0.690245 0.859166 0.675565 0.011643
C69   C     C_R   0.161633 0.325802 0.950430 -0.109669
C70   C     C_R   0.309767 0.140847 0.324439 0.011650
C71   C     C_R   0.809718 0.359207 0.324423 0.011633
C72   C     C_R   0.190287 0.640786 0.675564 0.011628
C73   C     C_R   0.119376 0.317852 0.692558 0.029435
C74   C     C_R   0.880611 0.682145 0.307450 0.029437
C75   C     C_3   0.210143 0.150114 0.539971 -0.273483
C76   C     C_3   0.789861 0.849892 0.460029 -0.273480
C77   C     C_3   0.699702 0.202662 0.485501 -0.272485
C78   C     C_3   0.300361 0.797314 0.514505 -0.272470
C79   C     C_3   0.800351 0.702657 0.514469 -0.272467
C80   C     C_R   0.121426 0.697888 0.011255 -0.109543
C81   C     C_3   0.199650 0.297350 0.485540 -0.272469
C82   C     C_3   0.289832 0.650103 0.460027 -0.273483
C83   C     C_3   0.710105 0.349911 0.539967 -0.273498
C84   C     C_3   0.717703 0.745586 0.553230 0.042427
C85   C     C_3   0.282297 0.254424 0.446784 0.042425
C86   C     C_3   0.373411 0.693603 0.419486 0.039557
C87   C     C_3   0.626569 0.306352 0.580462 0.039564
C88   C     C_3   0.126579 0.193618 0.580461 0.039562
C89   C     C_3   0.873424 0.806384 0.419533 0.039560
C90   C     C_3   0.782323 0.245641 0.446741 0.042438
C91   C     C_R   0.878558 0.302115 0.988766 -0.109562
C92   C     C_3   0.217699 0.754394 0.553307 0.042436
C93   C     C_3   0.750059 0.818720 0.574796 0.055734
C94   C     C_3   0.249952 0.181291 0.425205 0.055732
C95   C     C_3   0.340165 0.766615 0.399601 0.052492
C96   C     C_3   0.659831 0.233388 0.600409 0.052485
C97   C     C_3   0.159783 0.266612 0.600443 0.052491
C98   C     C_3   0.840210 0.733390 0.399564 0.052491
C99   C     C_3   0.749920 0.318747 0.425194 0.055737
C100  C     C_3   0.250084 0.681241 0.574797 0.055748
C101  C     C_1   0.411050 0.725027 0.164763 -0.002591
C102  C     C_3   0.242808 0.224258 0.560118 0.050607
C103  C     C_1   0.588921 0.274971 0.835267 -0.002570
C104  C     C_1   0.666271 0.748935 0.796497 0.019966
C105  C     C_1   0.333743 0.251077 0.203503 0.019963
C106  C     C_1   0.833676 0.248973 0.203512 0.019980
C107  C     C_1   0.166405 0.750997 0.796474 0.019997
C108  C     C_1   0.088895 0.225025 0.835298 -0.002603
C109  C     C_1   0.911097 0.774975 0.164710 -0.002618
C110  C     C_1   0.631683 0.711256 0.624283 0.068272
C111  C     C_1   0.368315 0.288758 0.375741 0.068276
C112  C     C_1   0.459889 0.661732 0.343738 0.071926
H1    H     H_    0.209283 0.724723 0.144211 0.137513
H2    H     H_    0.605861 0.746495 0.995703 0.111416
H3    H     H_    0.673021 0.222656 0.899638 0.108727
H4    H     H_    0.326981 0.777334 0.100347 0.108721
H5    H     H_    0.826995 0.722673 0.100329 0.108731
H6    H     H_    0.173000 0.277323 0.899678 0.108731
H7    H     H_    0.105819 0.753509 0.995760 0.111410
H8    H     H_    0.894145 0.246495 0.004288 0.111413
H9    H     H_    0.309347 0.946834 0.911570 0.104772
H10   H     H_    0.690655 0.053165 0.088425 0.104771
H11   H     H_    0.638427 0.916601 0.163219 0.099880
H12   H     H_    0.790690 0.275294 0.855823 0.137521
H13   H     H_    0.361566 0.083397 0.836788 0.099879
H14   H     H_    0.861580 0.416602 0.836773 0.099881
H15   H     H_    0.138416 0.583399 0.163232 0.099872
H16   H     H_    0.190642 0.446826 0.088450 0.104772
H17   H     H_    0.809353 0.553170 0.911558 0.104772
H18   H     H_    0.348256 0.045752 0.381688 0.109046
H19   H     H_    0.651754 0.954261 0.618317 0.109047
H20   H     H_    0.594651 0.077542 0.634279 0.102788
H21   H     H_    0.405325 0.922468 0.365739 0.102781
H22   H     H_    0.905400 0.577553 0.365686 0.102791
H23   H     H_    0.689532 0.666602 0.002372 0.134572
H24   H     H_    0.094592 0.422445 0.634319 0.102787
H25   H     H_    0.151763 0.545717 0.618323 0.109050
H26   H     H_    0.848227 0.454284 0.381671 0.109063
H27   H     H_    0.214450 0.089622 0.561390 0.138707
H28   H     H_    0.785556 0.910384 0.438605 0.138702
H29   H     H_    0.696119 0.142564 0.462284 0.136162
H30   H     H_    0.303997 0.857395 0.537730 0.136155
H31   H     H_    0.803970 0.642565 0.537677 0.136152
H32   H     H_    0.196029 0.357442 0.462335 0.136150
H33   H     H_    0.285512 0.589621 0.438586 0.138701
H34   H     H_    0.310452 0.333389 0.997652 0.134568
H35   H     H_    0.714374 0.410409 0.561402 0.138723
H36   H     H_    0.810492 0.166587 0.997589 0.134567
H37   H     H_    0.189520 0.833403 0.002389 0.134577
H38   H     H_    0.290671 0.224701 0.855854 0.137524
H39   H     H_    0.709320 0.775294 0.144157 0.137522
H40   H     H_    0.394128 0.253503 0.004307 0.111416
N1    N     N_R   0.408680 0.130810 0.995780 -0.051214
N2    N     N_R   0.578590 0.132790 0.846380 -0.061910
N3    N     N_R   0.578590 0.867210 0.846380 -0.063784
N4    N     N_R   0.421410 0.132790 0.153620 -0.063782
N5    N     N_R   0.921410 0.367210 0.153620 -0.063787
N6    N     N_R   0.078590 0.632790 0.846380 -0.063788
N7    N     N_R   0.078590 0.367210 0.846380 -0.061909
N8    N     N_R   0.921410 0.632790 0.153620 -0.061909
N9    N     N_R   0.403840 0.921910 0.935760 -0.044548
N10   N     N_R   0.596160 0.078090 0.064240 -0.044548
N11   N     N_R   0.596160 0.921910 0.064240 -0.042672
N12   N     N_R   0.591320 0.869190 0.004220 -0.051215
N13   N     N_R   0.403840 0.078090 0.935760 -0.042670
N14   N     N_R   0.903840 0.421910 0.935760 -0.042669
N15   N     N_R   0.096160 0.578090 0.064240 -0.042669
N16   N     N_R   0.096160 0.421910 0.064240 -0.044546
N17   N     N_R   0.903840 0.578090 0.935760 -0.044546
N18   N     N_R   0.426250 0.076100 0.213650 -0.050159
N19   N     N_R   0.573750 0.923900 0.786350 -0.050160
N20   N     N_R   0.573750 0.076100 0.786350 -0.045615
N21   N     N_R   0.426250 0.923900 0.213650 -0.045615
N22   N     N_R   0.926250 0.576100 0.213650 -0.045616
N23   N     N_R   0.591320 0.130810 0.004220 -0.049807
N24   N     N_R   0.073750 0.423900 0.786350 -0.045617
N25   N     N_R   0.073750 0.576100 0.786350 -0.050164
N26   N     N_R   0.926250 0.423900 0.213650 -0.050164
N27   N     N_1   0.423516 0.663465 0.127745 -0.084458
N28   N     N_1   0.576443 0.336526 0.872302 -0.084456
N29   N     N_1   0.680516 0.686540 0.809724 -0.098565
N30   N     N_1   0.319500 0.313473 0.190273 -0.098564
N31   N     N_1   0.819401 0.186586 0.190303 -0.098574
N32   N     N_1   0.180745 0.813366 0.809672 -0.098592
N33   N     N_1   0.076423 0.163474 0.872342 -0.084468
N34   N     N_R   0.408680 0.869190 0.995780 -0.049806
N35   N     N_1   0.923567 0.836527 0.127670 -0.084470
N36   N     N_1   0.564008 0.684326 0.680179 -0.072955
N37   N     N_1   0.435989 0.315691 0.319853 -0.072953
N38   N     N_1   0.528033 0.636444 0.284099 -0.071373
N39   N     N_1   0.471907 0.363435 0.715735 -0.071363
N40   N     N_1   0.971950 0.136447 0.715698 -0.071373
N41   N     N_1   0.028057 0.863545 0.284273 -0.071368
N42   N     N_1   0.936053 0.184466 0.319766 -0.072957
N43   N     N_1   0.064006 0.815648 0.680359 -0.072968
N44   N     N_1   0.321327 0.225162 0.649122 -0.096712
N45   N     N_R   0.908680 0.630810 0.995780 -0.049805
N46   N     N_1   0.678653 0.774839 0.350907 -0.096713
N47   N     N_1   0.593406 0.280487 0.369958 -0.073641
N48   N     N_1   0.406724 0.719300 0.629889 -0.073620
N49   N     N_1   0.906580 0.780594 0.630061 -0.073637
N50   N     N_1   0.093454 0.219418 0.369906 -0.073634
N51   N     N_1   0.178525 0.725244 0.351071 -0.096679
N52   N     N_1   0.821359 0.274955 0.649067 -0.096724
N53   N     N_R   0.091320 0.369190 0.004220 -0.049806
N54   N     N_R   0.091320 0.630810 0.004220 -0.051220
N55   N     N_R   0.908680 0.369190 0.995780 -0.051219
N56   N     N_R   0.421410 0.867210 0.153620 -0.061909
Ni1   Ni    Ni4+2 0.500000 0.131570 0.000000 0.225312
Ni2   Ni    Ni4+2 0.500000 0.868430 0.000000 0.225310
Ni3   Ni    Ni4+2 0.000000 0.631570 0.000000 0.225304
Ni4   Ni    Ni4+2 0.000000 0.368430 0.000000 0.225309
Ni5   Ni    Ni4+2 0.488900 0.000000 0.862310 0.209694
Ni6   Ni    Ni4+2 0.511100 0.000000 0.137690 0.209697
Ni7   Ni    Ni4+2 0.988900 0.500000 0.862310 0.209689
Ni8   Ni    Ni4+2 0.011100 0.500000 0.137690 0.209688

loop_
_geom_bond_atom_site_label_1
_geom_bond_atom_site_label_2
_ccdc_geom_bond_type
C58   C62   A    
C31   C66   A    
C80   N54   A    
C58   N45   A    
C16   C21   S    
C20   C82   S    
C39   N8    A    
C33   C104  S    
C64   C80   A    
N25   Ni7   S    
C79   C98   S    
C2    C84   S    
C53   C74   A    
C10   N47   T    
C43   H13   S    
C52   C66   A    
C74   C98   S    
C56   N26   A    
C109  N35   T    
C73   C97   S    
C40   H9    S    
C20   C92   S    
C110  N36   T    
C33   C68   A    
C46   N16   A    
C101  N27   T    
C31   C101  S    
C46   H16   S    
C51   N20   A    
C70   C94   S    
N6    N25   A    
C38   N7    A    
C37   C107  S    
N2    Ni1   S    
C3    N39   T    
C27   C60   S    
C78   H30   S    
C72   C100  S    
C49   N18   A    
N11   Ni6   S    
C34   C105  S    
C25   N12   A    
C69   H6    S    
C1    H40   S    
C103  N28   T    
C39   C74   A    
C54   N24   A    
C26   H34   S    
C4    N40   T    
C11   N48   T    
C29   H38   S    
N54   Ni3   S    
C22   H1    S    
C79   H31   S    
C63   C69   A    
C31   N56   A    
N12   Ni2   S    
C18   C79   S    
C53   N22   A    
C75   C102  S    
C50   N19   A    
C23   C27   D    
C105  N30   T    
C34   C70   A    
C5    N41   T    
N22   Ni8   S    
C97   C102  S    
N14   Ni7   S    
N5    N26   A    
C28   C61   S    
C76   H28   S    
C104  N29   T    
C80   H7    S    
C35   C71   A    
C28   H37   S    
C22   C28   D    
C41   N10   A    
C87   C96   S    
C52   H21   S    
C55   N25   A    
C44   C65   A    
C15   C20   S    
N8    N22   A    
N15   Ni8   S    
C81   H32   S    
C42   H11   S    
C77   H29   S    
C21   C90   S    
C43   N13   A    
C5    C89   S    
C47   H4    S    
N17   Ni7   S    
C13   C77   S    
C77   C90   S    
C32   C103  S    
C3    C87   S    
C17   C86   S    
N5    Ni4   S    
N15   N54   A    
C21   C83   S    
C108  N33   T    
C19   C88   S    
C86   C95   S    
C19   C81   S    
C43   C57   A    
C42   N11   A    
C27   H36   S    
C44   N14   A    
N10   N23   A    
N53   Ni4   S    
C78   C92   S    
C82   C86   S    
C71   C99   S    
C58   H5    S    
C84   C110  S    
N7    Ni4   S    
C8    C102  S    
C41   H10   S    
C13   C99   S    
C86   C112  S    
C26   C63   S    
C35   N5    A    
N9    N34   A    
N45   Ni3   S    
C1    C57   A    
C76   C93   S    
C54   C73   A    
C56   H26   S    
C85   C94   S    
C48   C62   A    
C78   C95   S    
C56   C71   A    
C44   H14   S    
C30   C59   S    
C13   C87   S    
N24   Ni7   S    
N2    N20   A    
C51   C67   A    
C12   N49   T    
C47   N34   A    
C1    N1    A    
C45   N15   A    
C67   C96   S    
C19   C94   S    
C36   N23   A    
C32   C67   A    
C83   H35   S    
C24   H23   S    
N13   Ni5   S    
C20   C95   S    
C29   C57   S    
C111  N37   T    
N7    N24   A    
N34   Ni2   S    
N55   Ni4   S    
C32   N2    A    
C48   H17   S    
C37   C72   A    
N14   N55   A    
C7    N43   T    
N20   Ni5   S    
C90   C99   S    
C6    N42   T    
C82   H33   S    
C2    C76   S    
C9    N46   T    
C92   C100  S    
N17   N45   A    
N10   Ni6   S    
N6    Ni3   S    
C65   C91   A    
N8    Ni3   S    
N9    Ni5   S    
C11   C17   S    
C24   C62   S    
C45   C64   A    
N1    N13   A    
N4    Ni1   S    
C91   H8    S    
C18   C89   S    
C82   C100  S    
C14   C19   S    
N3    Ni2   S    
C53   H22   S    
C55   C72   A    
C41   C60   A    
C85   C111  S    
C10   C13   S    
C83   C87   S    
C47   C61   A    
C91   N55   A    
C51   H20   S    
C33   N3    A    
C23   H12   S    
N18   Ni6   S    
C21   C96   S    
C34   N4    A    
C49   H18   S    
C89   C98   S    
C77   C96   S    
C69   N53   A    
C68   C93   S    
C55   H25   S    
N26   Ni8   S    
C107  N32   T    
C49   C70   A    
N16   Ni8   S    
N21   Ni6   S    
C88   C97   S    
C40   N9    A    
C35   C106  S    
C75   H27   S    
C54   H24   S    
N1    Ni1   S    
C2    C9    S    
C23   C65   S    
C30   H39   S    
C79   C84   S    
C46   C63   A    
C81   C97   S    
C45   H15   S    
C7    C92   S    
C14   N50   T    
N4    N18   A    
C17   C78   S    
C8    N44   T    
N21   N56   A    
C25   H2    S    
C84   C93   S    
N23   Ni1   S    
C38   C108  S    
C17   C100  S    
C24   C30   D    
C106  N31   T    
N11   N12   A    
C50   H19   S    
C40   C61   A    
C112  N38   T    
C48   N17   A    
N19   Ni5   S    
N3    N19   A    
C75   C88   S    
C39   C109  S    
C6    C90   S    
C2    C98   S    
C26   C29   D    
N56   Ni2   S    
C42   C59   A    
C12   C18   S    
C18   C93   S    
C36   C60   A    
N16   N53   A    
C76   C89   S    
C83   C99   S    
C15   N51   T    
C25   C59   A    
C22   C64   S    
C16   N52   T    
C36   H3    S    
C50   C68   A    
C52   N21   A    
C38   C73   A    
C4    C88   S    
C81   C85   S    
C85   C102  S    
C75   C94   S    
C66   C95   S    
C37   N6    A    
