data_mof_unit_63349.cif
_audit_creation_date              2012-12-11T17:18:35-0500
_audit_creation_method            fapswitch 2.2
_symmetry_space_group_name_H-M    P1
_symmetry_Int_Tables_number       1
_space_group_crystal_system       triclinic
_cell_length_a                    27.479098
_cell_length_b                    22.367474
_cell_length_c                    20.945745
_cell_angle_alpha                 89.999586
_cell_angle_beta                  51.62793
_cell_angle_gamma                 90.078985
_cell_volume                      10093.1908035

loop_
_atom_site_label
_atom_site_type_symbol
_atom_type_description
_atom_site_fract_x
_atom_site_fract_y
_atom_site_fract_z
_atom_type_partial_charge
C1    C     C_R   0.897537 0.564967 0.736345 -0.249462
C2    C     C_1   0.886467 0.280581 0.837944 -0.064936
C3    C     C_R   0.291868 0.324603 0.046149 0.157594
C4    C     C_R   0.792603 0.175409 0.046436 0.157549
C5    C     C_R   0.207397 0.824591 0.953564 0.157549
C6    C     C_R   0.366192 0.259713 0.902627 0.159095
C7    C     C_R   0.633808 0.740287 0.097373 0.159095
C8    C     C_R   0.153728 0.816793 0.098064 -0.147402
C9    C     C_R   0.846272 0.183207 0.901936 -0.147402
C10   C     C_R   0.683159 0.729980 0.954349 -0.146264
C11   C     C_R   0.316841 0.270020 0.045651 -0.146263
C12   C     C_R   0.817504 0.230206 0.045679 -0.146300
C13   C     C_1   0.760131 0.651477 0.878331 -0.062459
C14   C     C_R   0.182496 0.769794 0.954321 -0.146300
C15   C     C_R   0.345805 0.316688 0.901611 -0.147315
C16   C     C_R   0.654195 0.683312 0.098389 -0.147315
C17   C     C_1   0.239869 0.348523 0.121669 -0.062459
C18   C     C_1   0.740596 0.151458 0.122063 -0.062485
C19   C     C_1   0.259404 0.848542 0.877936 -0.062485
C20   C     C_1   0.386453 0.219463 0.837839 -0.064770
C21   C     C_1   0.613546 0.780537 0.162161 -0.064770
C22   C     C_1   0.897971 0.316107 0.787554 0.073663
C23   C     C_1   0.102029 0.683892 0.212446 0.073663
C24   C     C_1   0.193252 0.366308 0.184097 0.076012
C25   C     C_R   0.102463 0.435033 0.263655 -0.249461
C26   C     C_1   0.806748 0.633692 0.815903 0.076012
C27   C     C_1   0.306085 0.866375 0.815496 0.075847
C28   C     C_1   0.693915 0.133625 0.184504 0.075847
C29   C     C_1   0.601798 0.816093 0.212608 0.073242
C30   C     C_1   0.398202 0.183907 0.787392 0.073242
C31   C     C_1   0.212585 0.631601 0.453005 -0.033349
C32   C     C_1   0.787415 0.368399 0.546995 -0.033349
C33   C     C_1   0.871877 0.684036 0.418045 -0.023686
C34   C     C_1   0.128120 0.315963 0.581958 -0.023686
C35   C     C_1   0.627849 0.184183 0.582361 -0.024005
C36   C     C_R   0.075309 0.581656 0.271057 -0.260466
C37   C     C_1   0.372151 0.815817 0.417639 -0.024004
C38   C     C_1   0.287806 0.131718 0.546137 -0.033115
C39   C     C_1   0.712196 0.868283 0.453860 -0.033115
C40   C     C_2   0.315124 0.681686 0.409932 -0.154448
C41   C     C_2   0.684875 0.318314 0.590068 -0.154448
C42   C     C_2   0.827739 0.764739 0.375820 -0.167697
C43   C     C_2   0.172255 0.235256 0.624184 -0.167696
C44   C     C_2   0.671484 0.264928 0.625410 -0.167741
C45   C     C_2   0.328516 0.735072 0.374589 -0.167740
C46   C     C_2   0.185627 0.181984 0.588670 -0.154577
C47   C     C_R   0.924691 0.418344 0.728943 -0.260466
C48   C     C_2   0.814374 0.818016 0.411321 -0.154581
C49   C     C_1   0.738741 0.348287 0.569423 0.049066
C50   C     C_1   0.261259 0.651713 0.430577 0.049066
C51   C     C_1   0.145531 0.279145 0.605078 0.055226
C52   C     C_1   0.854465 0.720852 0.394926 0.055227
C53   C     C_1   0.354993 0.778984 0.394143 0.055122
C54   C     C_1   0.645006 0.221016 0.605857 0.055122
C55   C     C_1   0.760701 0.848071 0.431721 0.049148
C56   C     C_1   0.239301 0.151930 0.568273 0.049147
C57   C     C_R   0.879600 0.435168 0.462455 -0.111827
C58   C     C_R   0.424988 0.081702 0.728775 -0.261125
C59   C     C_R   0.120400 0.564832 0.537544 -0.111828
C60   C     C_R   0.095143 0.417727 0.577366 -0.142229
C61   C     C_R   0.904856 0.582273 0.422635 -0.142230
C62   C     C_R   0.404842 0.917684 0.422637 -0.141007
C63   C     C_R   0.595157 0.082316 0.577363 -0.141008
C64   C     C_R   0.620280 0.935160 0.537820 -0.112478
C65   C     C_R   0.379720 0.064840 0.462179 -0.112479
C66   C     C_R   0.910486 0.651112 0.493182 0.007319
C67   C     C_R   0.089513 0.348887 0.506818 0.007320
C68   C     C_R   0.116461 0.633580 0.464092 -0.113404
C69   C     C_R   0.575012 0.918298 0.271225 -0.261126
C70   C     C_R   0.883539 0.366420 0.535908 -0.113404
C71   C     C_R   0.383668 0.133576 0.535654 -0.113672
C72   C     C_R   0.616332 0.866424 0.464345 -0.113672
C73   C     C_R   0.589544 0.151171 0.506845 0.005431
C74   C     C_R   0.410456 0.848829 0.493155 0.005432
C75   C     C_R   0.920885 0.348175 0.657355 0.685180
C76   C     C_R   0.079115 0.651825 0.342645 0.685180
C77   C     C_R   0.106857 0.363907 0.334398 0.732839
C78   C     C_R   0.893143 0.636093 0.665602 0.732839
C79   C     C_R   0.392984 0.863858 0.665342 0.733259
C80   C     C_R   0.602936 0.064782 0.263795 -0.249231
C81   C     C_R   0.607016 0.136142 0.334658 0.733260
C82   C     C_R   0.578909 0.848194 0.342761 0.685894
C83   C     C_R   0.421091 0.151806 0.657239 0.685895
C84   C     C_R   0.863527 0.613305 0.742954 -0.100270
C85   C     C_R   0.136473 0.386695 0.257046 -0.100271
C86   C     C_R   0.091410 0.640308 0.269251 -0.084770
C87   C     C_R   0.908590 0.359692 0.730749 -0.084770
C88   C     C_R   0.409020 0.140335 0.730498 -0.084620
C89   C     C_R   0.590980 0.859665 0.269502 -0.084620
C90   C     C_R   0.637014 0.113145 0.257358 -0.100774
C91   C     C_R   0.397064 0.935218 0.736205 -0.249232
C92   C     C_R   0.362986 0.886855 0.742642 -0.100774
C93   C     C_R   0.847209 0.388971 0.516693 0.060337
C94   C     C_R   0.152791 0.611029 0.483306 0.060337
C95   C     C_R   0.110416 0.359843 0.550877 0.032594
C96   C     C_R   0.889583 0.640157 0.449124 0.032594
C97   C     C_R   0.389573 0.859745 0.449074 0.033218
C98   C     C_R   0.610427 0.140255 0.550926 0.033218
C99   C     C_R   0.652588 0.888957 0.483753 0.059809
C100  C     C_R   0.347413 0.111044 0.516246 0.059809
C101  C     C_R   0.809200 0.150588 0.974055 -0.178333
C102  C     C_1   0.113533 0.719418 0.162056 -0.064936
C103  C     C_R   0.190800 0.849412 0.025944 -0.178333
C104  C     C_R   0.354167 0.237472 0.973612 -0.180276
C105  C     C_R   0.645833 0.762528 0.026388 -0.180276
C106  C     C_R   0.145365 0.737206 0.026460 -0.180200
C107  C     C_R   0.854635 0.262794 0.973540 -0.180201
C108  C     C_R   0.691468 0.650736 0.026368 -0.178404
C109  C     C_R   0.308532 0.349264 0.973632 -0.178404
C110  C     C_R   0.133471 0.759618 0.097279 0.159094
C111  C     C_R   0.866529 0.240382 0.902721 0.159094
C112  C     C_R   0.708132 0.675397 0.953850 0.157594
F1    F     F_    0.928705 0.292881 0.625743 -0.718675
F2    F     F_    0.071295 0.707119 0.374257 -0.718675
F3    F     F_    0.124375 0.314889 0.353307 -0.726412
F4    F     F_    0.875625 0.685111 0.646693 -0.726412
F5    F     F_    0.376037 0.814344 0.646397 -0.725948
F6    F     F_    0.623963 0.185656 0.353603 -0.725948
F7    F     F_    0.571579 0.792926 0.374256 -0.718851
F8    F     F_    0.428421 0.207074 0.625744 -0.718851
H1    H     H_    0.887144 0.536250 0.784896 0.152094
H2    H     H_    0.135276 0.536578 0.564357 0.106969
H3    H     H_    0.094850 0.438035 0.624484 0.108122
H4    H     H_    0.905148 0.561965 0.375517 0.108122
H5    H     H_    0.405210 0.937999 0.375461 0.107852
H6    H     H_    0.594790 0.062001 0.624539 0.107852
H7    H     H_    0.635111 0.963383 0.564756 0.107050
H8    H     H_    0.364890 0.036617 0.435242 0.107049
H9    H     H_    0.917404 0.694984 0.507982 0.184515
H10   H     H_    0.082595 0.305016 0.492019 0.184514
H11   H     H_    0.128162 0.669928 0.422889 0.164392
H12   H     H_    0.112856 0.463750 0.215104 0.152094
H13   H     H_    0.871838 0.330072 0.577111 0.164392
H14   H     H_    0.372010 0.169930 0.576772 0.165151
H15   H     H_    0.627990 0.830071 0.423227 0.165151
H16   H     H_    0.582569 0.195042 0.492171 0.185072
H17   H     H_    0.417430 0.804958 0.507829 0.185072
H18   H     H_    0.854642 0.166091 0.847494 0.137266
H19   H     H_    0.145358 0.833909 0.152506 0.137266
H20   H     H_    0.303371 0.250446 0.101888 0.136636
H21   H     H_    0.696628 0.749554 0.898112 0.136636
H22   H     H_    0.195924 0.750095 0.898190 0.136513
H23   H     H_    0.069121 0.561134 0.229756 0.142206
H24   H     H_    0.804076 0.249905 0.101810 0.136513
H25   H     H_    0.645728 0.666338 0.152961 0.137369
H26   H     H_    0.354272 0.333662 0.847039 0.137369
H27   H     H_    0.789322 0.108508 0.974654 0.126171
H28   H     H_    0.210678 0.891492 0.025346 0.126171
H29   H     H_    0.369139 0.192988 0.974864 0.124543
H30   H     H_    0.630861 0.807012 0.025136 0.124543
H31   H     H_    0.130486 0.692574 0.025391 0.124487
H32   H     H_    0.869514 0.307426 0.974609 0.124487
H33   H     H_    0.711391 0.608822 0.025974 0.126218
H34   H     H_    0.930879 0.438866 0.770243 0.142206
H35   H     H_    0.288609 0.391178 0.974026 0.126218
H36   H     H_    0.306696 0.750240 0.348455 0.143850
H37   H     H_    0.693304 0.249760 0.651545 0.143851
H38   H     H_    0.833143 0.831658 0.441975 0.148902
H39   H     H_    0.166865 0.168345 0.558007 0.148901
H40   H     H_    0.666119 0.332019 0.559441 0.148912
H41   H     H_    0.333881 0.667981 0.440559 0.148912
H42   H     H_    0.194061 0.250365 0.650388 0.143917
H43   H     H_    0.805926 0.749627 0.349626 0.143919
H44   H     H_    0.431182 0.061170 0.770055 0.142455
H45   H     H_    0.568817 0.938830 0.229945 0.142456
H46   H     H_    0.613558 0.035983 0.215217 0.152291
H47   H     H_    0.386442 0.964017 0.784783 0.152291
H48   H     H_    0.864724 0.463422 0.435643 0.106968
N1    N     N_R   0.945330 0.558420 0.657110 -0.070296
N2    N     N_R   0.067050 0.559540 0.548760 -0.046256
N3    N     N_R   0.067050 0.440460 0.548760 -0.052043
N4    N     N_R   0.932950 0.559540 0.451240 -0.052043
N5    N     N_R   0.432950 0.940460 0.451240 -0.051812
N6    N     N_R   0.567050 0.059540 0.548760 -0.051812
N7    N     N_R   0.567050 0.940460 0.548760 -0.046416
N8    N     N_R   0.432950 0.059540 0.451240 -0.046415
N9    N     N_R   0.935620 0.600470 0.495720 -0.064098
N10   N     N_R   0.064380 0.399530 0.504280 -0.064098
N11   N     N_R   0.064380 0.600470 0.504280 -0.047561
N12   N     N_R   0.054670 0.441580 0.342890 -0.070296
N13   N     N_R   0.935620 0.399530 0.495720 -0.047561
N14   N     N_R   0.435620 0.100470 0.495720 -0.047386
N15   N     N_R   0.564380 0.899530 0.504280 -0.047386
N16   N     N_R   0.564380 0.100470 0.504280 -0.064466
N17   N     N_R   0.435620 0.899530 0.495720 -0.064466
N18   N     N_R   0.942650 0.398400 0.612630 -0.111255
N19   N     N_R   0.057350 0.601600 0.387370 -0.111255
N20   N     N_R   0.057350 0.398400 0.387370 -0.111557
N21   N     N_R   0.942650 0.601600 0.612630 -0.111558
N22   N     N_R   0.442650 0.898400 0.612630 -0.111531
N23   N     N_R   0.054670 0.558420 0.342890 -0.066444
N24   N     N_R   0.557350 0.101600 0.387370 -0.111531
N25   N     N_R   0.557350 0.898400 0.387370 -0.111350
N26   N     N_R   0.442650 0.101600 0.612630 -0.111350
N27   N     N_R   0.945330 0.441580 0.657110 -0.066444
N28   N     N_R   0.445330 0.058420 0.657110 -0.066414
N29   N     N_R   0.554670 0.941580 0.342890 -0.066414
N30   N     N_R   0.554670 0.058420 0.342890 -0.070271
N31   N     N_R   0.445330 0.941580 0.657110 -0.070271
N32   N     N_R   0.932950 0.440460 0.451240 -0.046256
Ni1   Ni    Ni4+2 0.004930 0.500000 0.602010 0.194258
Ni2   Ni    Ni4+2 0.995070 0.500000 0.397990 0.194258
Ni3   Ni    Ni4+2 0.504930 0.000000 0.602010 0.194163
Ni4   Ni    Ni4+2 0.495070 0.000000 0.397990 0.194162
Ni5   Ni    Ni4+2 0.998800 0.599610 0.500000 0.277334
Ni6   Ni    Ni4+2 0.001200 0.400390 0.500000 0.277334
Ni7   Ni    Ni4+2 0.498800 0.099610 0.500000 0.276888
Ni8   Ni    Ni4+2 0.501200 0.900390 0.500000 0.276888

loop_
_geom_bond_atom_site_label_1
_geom_bond_atom_site_label_2
_ccdc_geom_bond_type
N4    N9    A    
C9    C111  A    
C48   C55   S    
N26   N28   A    
C43   C46   D    
N11   Ni5   S    
N15   Ni8   S    
C60   H3    S    
C36   N23   A    
C15   C109  A    
C62   H5    S    
N17   Ni8   S    
N1    N21   A    
C58   H44   S    
C71   H14   S    
C5    C103  A    
C25   N12   A    
C57   H48   S    
C20   C30   T    
C1    C84   A    
N8    N14   A    
C105  H30   S    
N20   Ni6   S    
C34   C51   T    
C82   C89   A    
C8    H19   S    
C47   N27   A    
C36   H23   S    
C63   C98   A    
N12   Ni2   S    
C69   N29   A    
C40   C50   S    
N7    Ni3   S    
C23   C102  T    
C62   C97   A    
C79   F5    S    
N29   Ni4   S    
N14   Ni7   S    
C80   H46   S    
N8    Ni4   S    
C82   N25   A    
N12   N20   A    
C6    C15   A    
C41   C49   S    
C64   C99   A    
C39   C55   T    
C108  H33   S    
N21   Ni5   S    
N2    Ni1   S    
C23   C86   S    
C2    C22   T    
C70   H13   S    
C76   F2    S    
C7    C105  A    
N3    N10   A    
C10   C112  A    
C11   C104  A    
C75   F1    S    
C59   C94   A    
C6    C104  A    
C4    C12   A    
C35   C98   S    
C19   C27   T    
C24   C85   S    
C9    C101  A    
N19   N23   A    
C74   N17   A    
C4    C18   S    
C59   H2    S    
C12   H24   S    
C83   C88   A    
C77   C85   A    
N25   Ni8   S    
C57   C93   A    
C35   C54   T    
C67   C95   A    
C44   H37   S    
C60   N3    A    
C71   N14   A    
C73   C98   A    
C78   N21   A    
C82   F7    S    
N31   Ni3   S    
C69   C89   A    
C32   C93   S    
C37   C97   S    
C66   N9    A    
N22   N31   A    
C91   H47   S    
C74   C97   A    
C1    H1    S    
C40   C45   D    
C74   H17   S    
C2    C111  S    
C61   C96   A    
C17   C24   T    
N18   Ni6   S    
C65   H8    S    
N18   N27   A    
C70   C93   A    
C18   C28   T    
C34   C95   S    
C72   N15   A    
C38   C100  S    
N6    N16   A    
C91   C92   A    
C61   N4    A    
C73   N16   A    
C29   C89   S    
C72   H15   S    
C104  H29   S    
C36   C86   A    
C7    C21   S    
C62   N5    A    
C48   H38   S    
C81   F6    S    
C79   N22   A    
C78   C84   A    
C68   C94   A    
C108  C112  A    
C16   H25   S    
C64   N7    A    
C10   H21   S    
C47   C87   A    
C83   F8    S    
N3    Ni1   S    
C68   H11   S    
C11   H20   S    
C43   H42   S    
C81   N24   A    
N26   Ni7   S    
C8    C110  A    
C15   H26   S    
C41   H40   S    
C9    H18   S    
C70   N13   A    
C39   C99   S    
C73   H16   S    
C64   H7    S    
C80   N30   A    
C4    C101  A    
N19   Ni5   S    
C25   C85   A    
C5    C14   A    
C27   C92   S    
C45   H36   S    
C42   C48   D    
C22   C87   S    
N28   Ni3   S    
N4    Ni2   S    
N16   Ni7   S    
C79   C92   A    
C76   N19   A    
N27   Ni1   S    
C107  H32   S    
C75   C87   A    
C7    C16   A    
N23   Ni2   S    
N24   N30   A    
C61   H4    S    
C57   N32   A    
N30   Ni4   S    
C14   H22   S    
C41   C44   D    
C13   C26   T    
C102  C110  S    
C75   N18   A    
C81   C90   A    
C31   C50   T    
C30   C88   S    
C59   N2    A    
C33   C96   S    
C76   C86   A    
N1    Ni1   S    
C63   N6    A    
C66   C96   A    
C106  C110  A    
N22   Ni8   S    
C91   N31   A    
C101  H27   S    
C26   C84   S    
C106  H31   S    
C42   H43   S    
N7    N15   A    
C107  C111  A    
C78   F4    S    
C65   C100  A    
C103  H28   S    
C67   N10   A    
C58   C88   A    
C12   C107  A    
C33   C52   T    
C58   N28   A    
C5    C19   S    
C47   H34   S    
C13   C112  S    
C31   C94   S    
C6    C20   S    
C71   C100  A    
C68   N11   A    
N2    N11   A    
N5    N17   A    
C66   H9    S    
C83   N26   A    
N13   Ni6   S    
C37   C53   T    
C40   H41   S    
C65   N8    A    
C25   H12   S    
C43   C51   S    
C21   C29   T    
C3    C109  A    
N25   N29   A    
C46   H39   S    
N10   Ni6   S    
C1    N1    A    
N6    Ni3   S    
N24   Ni7   S    
N9    Ni5   S    
C3    C17   S    
C80   C90   A    
C109  H35   S    
C8    C103  A    
C69   H45   S    
C32   C49   T    
C63   H6    S    
C3    C11   A    
C16   C108  A    
C45   C53   S    
C67   H10   S    
C60   C95   A    
C44   C54   S    
C14   C106  A    
C38   C56   T    
N32   Ni2   S    
C46   C56   S    
C77   N20   A    
N5    Ni4   S    
C10   C105  A    
C28   C90   S    
C77   F3    S    
N13   N32   A    
C42   C52   S    
C72   C99   A    
