data_mof_unit_64857.cif
_audit_creation_date              2012-12-10T20:25:29-0500
_audit_creation_method            fapswitch 2.2
_symmetry_space_group_name_H-M    P1
_symmetry_Int_Tables_number       1
_space_group_crystal_system       triclinic
_cell_length_a                    25.644776
_cell_length_b                    25.644666
_cell_length_c                    51.430114
_cell_angle_alpha                 89.999987
_cell_angle_beta                  89.999932
_cell_angle_gamma                 90.002669
_cell_volume                      33823.1026465

loop_
_atom_site_label
_atom_site_type_symbol
_atom_type_description
_atom_site_fract_x
_atom_site_fract_y
_atom_site_fract_z
_atom_type_partial_charge
C1    C     C_R   0.000167 0.500019 0.820847 0.886247
C2    C     C_R   0.532926 0.908932 0.013565 -0.152862
C3    C     C_R   0.783589 0.254963 0.771311 -0.174802
C4    C     C_R   0.748497 0.787048 0.230025 -0.174466
C5    C     C_R   0.252393 0.213841 0.770355 -0.174545
C6    C     C_R   0.784178 0.254375 0.228890 -0.174829
C7    C     C_R   0.216364 0.745083 0.771300 -0.173779
C8    C     C_R   0.754383 0.284170 0.271116 -0.173791
C9    C     C_R   0.245091 0.716356 0.728706 -0.174805
C10   C     C_R   0.712952 0.751503 0.269974 -0.174497
C11   C     C_R   0.286158 0.247607 0.729645 -0.174543
C12   C     C_R   0.247737 0.713709 0.270299 -0.174841
C13   C     C_R   0.910466 0.524680 0.986434 -0.154222
C14   C     C_R   0.754972 0.283581 0.728683 -0.173783
C15   C     C_R   0.286396 0.247845 0.270256 -0.174567
C16   C     C_R   0.712786 0.751337 0.730100 -0.174442
C17   C     C_R   0.751338 0.712786 0.730100 -0.174535
C18   C     C_R   0.247844 0.286396 0.270256 -0.174493
C19   C     C_R   0.716419 0.245028 0.728682 -0.173767
C20   C     C_R   0.286290 0.752262 0.270299 -0.174846
C21   C     C_R   0.247607 0.286159 0.729645 -0.174441
C22   C     C_R   0.751503 0.712951 0.269974 -0.174557
C23   C     C_R   0.283643 0.754909 0.728706 -0.174821
C24   C     C_R   0.091071 0.467073 0.013565 -0.152874
C25   C     C_R   0.715830 0.245617 0.271116 -0.173779
C26   C     C_R   0.288618 0.788610 0.750003 0.160231
C27   C     C_R   0.711389 0.211382 0.250003 0.160259
C28   C     C_R   0.211386 0.288614 0.750000 0.160280
C29   C     C_R   0.788614 0.711386 0.250000 0.160556
C30   C     C_R   0.711390 0.211382 0.749997 0.160223
C31   C     C_R   0.288618 0.788610 0.249997 0.160344
C32   C     C_R   0.788614 0.711386 0.750000 0.160530
C33   C     C_R   0.211386 0.288614 0.250000 0.160318
C34   C     C_R   0.288614 0.211387 0.250000 0.160539
C35   C     C_R   0.532926 0.908931 0.986435 -0.152871
C36   C     C_R   0.711386 0.788613 0.750000 0.160314
C37   C     C_R   0.211390 0.711382 0.249997 0.160346
C38   C     C_R   0.788618 0.288610 0.749997 0.160224
C39   C     C_R   0.711386 0.788613 0.250000 0.160340
C40   C     C_R   0.288614 0.211386 0.750000 0.160500
C41   C     C_R   0.788618 0.288610 0.250003 0.160261
C42   C     C_R   0.211389 0.711382 0.750003 0.160231
C43   C     C_1   0.328259 0.828252 0.750003 -0.071053
C44   C     C_1   0.671748 0.171742 0.250003 -0.071070
C45   C     C_1   0.171746 0.328254 0.750000 -0.071115
C46   C     C_R   0.475319 0.089537 0.013565 -0.154233
C47   C     C_1   0.828254 0.671746 0.250000 -0.070556
C48   C     C_1   0.671748 0.171742 0.749997 -0.071055
C49   C     C_1   0.328259 0.828252 0.249997 -0.071061
C50   C     C_1   0.828254 0.671746 0.750000 -0.070508
C51   C     C_1   0.171746 0.328254 0.250000 -0.071160
C52   C     C_1   0.328254 0.171746 0.250000 -0.070565
C53   C     C_1   0.671746 0.828254 0.750000 -0.071110
C54   C     C_1   0.171748 0.671742 0.249997 -0.071062
C55   C     C_1   0.828259 0.328252 0.749997 -0.071057
C56   C     C_1   0.671746 0.828254 0.250000 -0.071158
C57   C     C_R   0.091071 0.467073 0.986435 -0.152884
C58   C     C_1   0.328254 0.171746 0.750000 -0.070519
C59   C     C_1   0.828258 0.328252 0.250003 -0.071072
C60   C     C_1   0.171748 0.671742 0.750003 -0.071054
C61   C     C_1   0.138532 0.638528 0.750002 -0.133561
C62   C     C_1   0.861472 0.361467 0.250002 -0.133576
C63   C     C_1   0.361469 0.138532 0.750000 -0.134090
C64   C     C_1   0.638531 0.861468 0.250000 -0.130974
C65   C     C_1   0.861473 0.361467 0.749998 -0.133556
C66   C     C_1   0.138532 0.638528 0.249998 -0.133591
C67   C     C_1   0.638531 0.861468 0.750000 -0.130922
C68   C     C_R   0.910466 0.524680 0.013565 -0.154222
C69   C     C_1   0.361469 0.138532 0.250000 -0.134143
C70   C     C_1   0.138531 0.361469 0.250000 -0.130968
C71   C     C_1   0.861469 0.638532 0.750000 -0.134082
C72   C     C_1   0.361473 0.861467 0.249998 -0.133588
C73   C     C_1   0.638532 0.138528 0.749997 -0.133558
C74   C     C_1   0.861468 0.638532 0.250000 -0.134135
C75   C     C_1   0.138531 0.361468 0.750000 -0.130917
C76   C     C_1   0.638532 0.138528 0.250002 -0.133578
C77   C     C_1   0.361473 0.861467 0.750002 -0.133558
C78   C     C_R   0.518158 0.954797 0.945312 0.558736
C79   C     C_R   0.975082 0.589465 0.486434 -0.154221
C80   C     C_R   0.489698 0.043548 0.054691 0.563802
C81   C     C_R   0.045206 0.481841 0.945312 0.558734
C82   C     C_R   0.956455 0.510301 0.054691 0.563805
C83   C     C_R   0.489697 0.043547 0.945309 0.563804
C84   C     C_R   0.518159 0.954797 0.054687 0.558738
C85   C     C_R   0.956456 0.510302 0.945309 0.563809
C86   C     C_R   0.045205 0.481841 0.054687 0.558736
C87   C     C_R   0.018257 0.454840 0.445312 0.558724
C88   C     C_R   0.989579 0.543515 0.554691 0.563813
C89   C     C_R   0.545207 0.981846 0.445312 0.558732
C90   C     C_R   0.033140 0.409014 0.513565 -0.152904
C91   C     C_R   0.456455 0.010301 0.554691 0.563805
C92   C     C_R   0.989578 0.543515 0.445308 0.563815
C93   C     C_R   0.018258 0.454840 0.554688 0.558726
C94   C     C_R   0.456456 0.010301 0.445309 0.563809
C95   C     C_R   0.545207 0.981845 0.554688 0.558734
C96   C     C_R   0.489664 0.044549 0.972584 -0.041738
C97   C     C_R   0.518526 0.953902 0.027414 -0.041888
C98   C     C_R   0.955453 0.510335 0.972584 -0.041748
C99   C     C_R   0.046100 0.481473 0.027414 -0.041878
C100  C     C_R   0.518526 0.953902 0.972586 -0.041887
C101  C     C_R   0.410465 0.024678 0.486434 -0.154219
C102  C     C_R   0.489665 0.044550 0.027416 -0.041739
C103  C     C_R   0.046101 0.481474 0.972586 -0.041877
C104  C     C_R   0.955453 0.510334 0.027416 -0.041744
C105  C     C_R   0.989541 0.544516 0.472584 -0.041758
C106  C     C_R   0.018627 0.453946 0.527415 -0.041881
C107  C     C_R   0.455454 0.010335 0.472584 -0.041745
C108  C     C_R   0.546102 0.981478 0.527414 -0.041886
C109  C     C_R   0.018627 0.453946 0.472585 -0.041882
C110  C     C_R   0.989541 0.544516 0.527416 -0.041757
C111  C     C_R   0.546102 0.981479 0.472586 -0.041883
C112  C     C_R   0.000167 0.500019 0.179152 0.886260
C113  C     C_R   0.591073 0.967081 0.513565 -0.152876
C114  C     C_R   0.455453 0.010334 0.527416 -0.041742
C115  C     C_R   0.504145 0.999242 0.986275 -0.015133
C116  C     C_R   0.504145 0.999242 0.013725 -0.015134
C117  C     C_R   0.000761 0.495855 0.986275 -0.015133
C118  C     C_R   0.000761 0.495854 0.013725 -0.015134
C119  C     C_R   0.004133 0.499247 0.486275 -0.015105
C120  C     C_R   0.004134 0.499248 0.513725 -0.015105
C121  C     C_R   0.500762 0.995857 0.486275 -0.015134
C122  C     C_R   0.500761 0.995857 0.513725 -0.015133
C123  C     C_3   0.884537 0.470271 0.590565 -0.267604
C124  C     C_R   0.033140 0.409014 0.486435 -0.152902
C125  C     C_3   0.884537 0.470269 0.409434 -0.267602
C126  C     C_3   0.473275 0.879979 0.590552 -0.291638
C127  C     C_3   0.473278 0.879978 0.409448 -0.291579
C128  C     C_3   0.119951 0.526998 0.590550 -0.291647
C129  C     C_3   0.119950 0.526997 0.409449 -0.291584
C130  C     C_3   0.529468 0.115524 0.590559 -0.267641
C131  C     C_3   0.529467 0.115525 0.409440 -0.267630
C132  C     C_3   0.384479 0.970529 0.090559 -0.267543
C133  C     C_3   0.384479 0.970529 0.909441 -0.267626
C134  C     C_3   0.973273 0.379977 0.090553 -0.291662
C135  C     C_R   0.975082 0.589465 0.513566 -0.154229
C136  C     C_3   0.973267 0.379979 0.909447 -0.291668
C137  C     C_3   0.620020 0.026735 0.090553 -0.291641
C138  C     C_3   0.620020 0.026733 0.909447 -0.291644
C139  C     C_3   0.029470 0.615521 0.090559 -0.267526
C140  C     C_3   0.029476 0.615521 0.909441 -0.267597
C141  C     C_R   0.591073 0.967081 0.486435 -0.152876
C142  C     C_R   0.410465 0.024678 0.513566 -0.154229
C143  C     C_R   0.964847 0.470204 0.608928 0.536352
C144  C     C_R   0.964846 0.470203 0.391072 0.536362
C145  C     C_R   0.471958 0.959745 0.609685 0.478462
C146  C     C_R   0.471959 0.959745 0.390315 0.478463
C147  C     C_R   0.040187 0.528130 0.609686 0.478469
C148  C     C_R   0.499981 0.999833 0.820847 0.886242
C149  C     C_R   0.040186 0.528129 0.390314 0.478471
C150  C     C_R   0.529720 0.035215 0.608925 0.536361
C151  C     C_R   0.529720 0.035215 0.391074 0.536365
C152  C     C_R   0.464787 0.970281 0.108925 0.536365
C153  C     C_R   0.464787 0.970280 0.891075 0.536358
C154  C     C_R   0.971957 0.459744 0.109686 0.478471
C155  C     C_R   0.971955 0.459746 0.890314 0.478465
C156  C     C_R   0.540254 0.028047 0.109686 0.478470
C157  C     C_R   0.540253 0.028046 0.890314 0.478463
C158  C     C_R   0.029720 0.535213 0.108925 0.536361
C159  C     C_R   0.499981 0.999833 0.179152 0.886257
C160  C     C_R   0.029722 0.535212 0.891074 0.536351
C161  C     C_R   0.964082 0.469343 0.636183 -0.076366
C162  C     C_R   0.964082 0.469342 0.363817 -0.076373
C163  C     C_R   0.470122 0.962280 0.636986 -0.049276
C164  C     C_R   0.470123 0.962280 0.363014 -0.049326
C165  C     C_R   0.037653 0.529955 0.636988 -0.049297
C166  C     C_R   0.037653 0.529954 0.363012 -0.049349
C167  C     C_R   0.530582 0.035982 0.636180 -0.076351
C168  C     C_R   0.530582 0.035983 0.363820 -0.076356
C169  C     C_R   0.464020 0.969418 0.136180 -0.076394
C170  C     C_R   0.500167 0.000019 0.320848 0.886267
C171  C     C_R   0.464019 0.969418 0.863820 -0.076352
C172  C     C_R   0.970121 0.462280 0.136987 -0.049274
C173  C     C_R   0.970119 0.462282 0.863013 -0.049273
C174  C     C_R   0.537718 0.029882 0.136987 -0.049275
C175  C     C_R   0.537718 0.029881 0.863013 -0.049276
C176  C     C_R   0.030582 0.535980 0.136180 -0.076396
C177  C     C_R   0.030584 0.535980 0.863820 -0.076355
C178  C     C_R   0.000228 0.499867 0.650425 -0.194991
C179  C     C_R   0.000228 0.499866 0.349574 -0.194994
C180  C     C_R   0.500133 0.999771 0.650424 -0.195105
C181  C     C_R   0.500167 0.000019 0.679152 0.886246
C182  C     C_R   0.500133 0.999771 0.349576 -0.195110
C183  C     C_R   0.500229 0.999868 0.150424 -0.195124
C184  C     C_R   0.500228 0.999868 0.849576 -0.195104
C185  C     C_R   0.000132 0.499771 0.150424 -0.195124
C186  C     C_R   0.000133 0.499771 0.849575 -0.195102
C187  C     C_R   0.003184 0.498952 0.595680 0.022828
C188  C     C_R   0.003184 0.498951 0.404320 0.022824
C189  C     C_R   0.501056 0.996812 0.595679 0.022756
C190  C     C_R   0.501057 0.996812 0.404321 0.022752
C191  C     C_R   0.503189 0.998947 0.095679 0.022745
C192  C     C_R   0.999981 0.499832 0.320847 0.886285
C193  C     C_R   0.503188 0.998946 0.904321 0.022756
C194  C     C_R   0.001055 0.496810 0.095679 0.022748
C195  C     C_R   0.001056 0.496811 0.904321 0.022753
C196  C     C_R   0.099025 0.400975 0.750000 0.819833
C197  C     C_R   0.900975 0.599025 0.250000 0.829051
C198  C     C_R   0.599025 0.099022 0.749999 0.823413
C199  C     C_R   0.400978 0.900975 0.249999 0.823495
C200  C     C_R   0.900975 0.599025 0.750000 0.829052
C201  C     C_R   0.099025 0.400975 0.250000 0.819843
C202  C     C_R   0.400978 0.900975 0.750001 0.823416
C203  C     C_R   0.999981 0.499832 0.679153 0.886264
C204  C     C_R   0.599025 0.099022 0.250001 0.823430
C205  C     C_R   0.099025 0.599022 0.249999 0.823501
C206  C     C_R   0.900978 0.400975 0.749999 0.823406
C207  C     C_R   0.599024 0.900975 0.250000 0.819866
C208  C     C_R   0.400975 0.099025 0.750000 0.829020
C209  C     C_R   0.900978 0.400975 0.250001 0.823423
C210  C     C_R   0.099025 0.599022 0.750001 0.823422
C211  C     C_R   0.400975 0.099025 0.250000 0.829029
C212  C     C_R   0.599024 0.900975 0.750000 0.819866
C213  C     C_R   0.254917 0.783636 0.771300 -0.173764
C214  C     C_R   0.475319 0.089537 0.986434 -0.154235
C215  C     C_R   0.745625 0.215822 0.228890 -0.174835
C216  C     C_R   0.213842 0.252393 0.770355 -0.174449
C217  C     C_R   0.787048 0.748497 0.230025 -0.174598
C218  C     C_R   0.745036 0.216411 0.771311 -0.174820
C219  C     C_R   0.252271 0.786282 0.229694 -0.173750
C220  C     C_R   0.787214 0.748663 0.769900 -0.174543
C221  C     C_R   0.213605 0.252156 0.229743 -0.174469
C222  C     C_R   0.252156 0.213604 0.229743 -0.174600
C223  C     C_R   0.748662 0.787214 0.769900 -0.174443
C224  C     C_R   0.213718 0.747730 0.229694 -0.173760
H1    H     H_    0.190490 0.741550 0.787863 0.145528
H2    H     H_    0.815867 0.747911 0.785377 0.144853
H3    H     H_    0.946567 0.411826 0.338104 0.191488
H4    H     H_    0.398528 0.932438 0.644348 0.221366
H5    H     H_    0.448126 0.889230 0.647325 0.206950
H6    H     H_    0.448129 0.889229 0.352675 0.206967
H7    H     H_    0.398530 0.932436 0.355653 0.221484
H8    H     H_    0.110657 0.552098 0.647326 0.206948
H9    H     H_    0.067347 0.601606 0.644353 0.221390
H10   H     H_    0.067347 0.601605 0.355647 0.221503
H11   H     H_    0.110656 0.552097 0.352674 0.206966
H12   H     H_    0.540581 0.099831 0.658974 0.213487
H13   H     H_    0.253745 0.814215 0.213904 0.145366
H14   H     H_    0.588063 0.053627 0.661893 0.191575
H15   H     H_    0.540579 0.099832 0.341026 0.213482
H16   H     H_    0.588063 0.053629 0.338107 0.191588
H17   H     H_    0.400171 0.959416 0.158973 0.213478
H18   H     H_    0.446377 0.911934 0.161892 0.191661
H19   H     H_    0.400171 0.959416 0.841026 0.213487
H20   H     H_    0.446377 0.911935 0.838108 0.191576
H21   H     H_    0.898526 0.432439 0.144348 0.221396
H22   H     H_    0.948124 0.389230 0.147326 0.206947
H23   H     H_    0.948119 0.389233 0.852675 0.206948
H24   H     H_    0.741460 0.190579 0.787887 0.144461
H25   H     H_    0.898523 0.432444 0.855652 0.221377
H26   H     H_    0.610767 0.051881 0.147326 0.206948
H27   H     H_    0.567557 0.101477 0.144349 0.221387
H28   H     H_    0.567557 0.101476 0.855651 0.221363
H29   H     H_    0.610767 0.051879 0.852674 0.206951
H30   H     H_    0.040582 0.599830 0.158973 0.213480
H31   H     H_    0.088064 0.553625 0.161892 0.191652
H32   H     H_    0.040587 0.599828 0.841026 0.213490
H33   H     H_    0.088067 0.553621 0.838107 0.191559
H34   H     H_    0.815573 0.747617 0.214491 0.144820
H35   H     H_    0.186009 0.253965 0.786185 0.144973
H36   H     H_    0.742507 0.189532 0.212470 0.144445
H37   H     H_    0.258450 0.809510 0.787863 0.145534
H38   H     H_    0.689540 0.242500 0.287536 0.145490
H39   H     H_    0.309518 0.758442 0.712143 0.144457
H40   H     H_    0.752383 0.684427 0.285509 0.144842
H41   H     H_    0.810467 0.257493 0.212470 0.144450
H42   H     H_    0.246034 0.313991 0.713815 0.144980
H43   H     H_    0.314223 0.753737 0.286089 0.144424
H44   H     H_    0.690587 0.241453 0.712106 0.145535
H45   H     H_    0.246456 0.314413 0.286010 0.144939
H46   H     H_    0.752089 0.684132 0.714623 0.144861
H47   H     H_    0.684133 0.752089 0.714623 0.144952
H48   H     H_    0.314413 0.246457 0.286010 0.144850
H49   H     H_    0.758548 0.309413 0.712106 0.145525
H50   H     H_    0.246262 0.685777 0.286089 0.144426
H51   H     H_    0.313991 0.246035 0.713815 0.144876
H52   H     H_    0.253966 0.186009 0.786185 0.144874
H53   H     H_    0.684427 0.752383 0.285509 0.144919
H54   H     H_    0.241557 0.690482 0.712143 0.144459
H55   H     H_    0.757500 0.310460 0.287536 0.145482
H56   H     H_    0.464008 0.124868 0.976370 0.191931
H57   H     H_    0.544187 0.873585 0.023630 0.192536
H58   H     H_    0.875135 0.535991 0.976370 0.191940
H59   H     H_    0.126418 0.455813 0.023630 0.192528
H60   H     H_    0.544186 0.873584 0.976370 0.192533
H61   H     H_    0.464009 0.124868 0.023630 0.191932
H62   H     H_    0.126418 0.455813 0.976370 0.192523
H63   H     H_    0.747616 0.815573 0.214491 0.144932
H64   H     H_    0.875134 0.535990 0.023630 0.191940
H65   H     H_    0.963683 0.624766 0.476369 0.191948
H66   H     H_    0.044489 0.373698 0.523630 0.192523
H67   H     H_    0.375134 0.035986 0.476370 0.191940
H68   H     H_    0.626421 0.955823 0.523630 0.192533
H69   H     H_    0.044489 0.373698 0.476370 0.192524
H70   H     H_    0.963683 0.624766 0.523630 0.191946
H71   H     H_    0.626421 0.955823 0.476370 0.192532
H72   H     H_    0.375133 0.035986 0.523630 0.191935
H73   H     H_    0.893404 0.505497 0.578740 0.163241
H74   H     H_    0.809421 0.258539 0.787887 0.144466
H75   H     H_    0.865364 0.481692 0.609126 0.163122
H76   H     H_    0.856338 0.446307 0.579404 0.194961
H77   H     H_    0.865364 0.481690 0.390874 0.163113
H78   H     H_    0.893403 0.505495 0.421260 0.163234
H79   H     H_    0.856338 0.446304 0.420596 0.194964
H80   H     H_    0.448067 0.849096 0.582187 0.196142
H81   H     H_    0.492556 0.863384 0.608093 0.149562
H82   H     H_    0.503001 0.890060 0.575679 0.177535
H83   H     H_    0.492559 0.863384 0.391907 0.149530
H84   H     H_    0.448071 0.849095 0.417813 0.196162
H85   H     H_    0.185785 0.746255 0.213904 0.145362
H86   H     H_    0.503004 0.890060 0.424321 0.177512
H87   H     H_    0.136589 0.507751 0.608090 0.149558
H88   H     H_    0.150775 0.552277 0.582187 0.196155
H89   H     H_    0.109938 0.497254 0.575675 0.177539
H90   H     H_    0.150774 0.552276 0.417813 0.196173
H91   H     H_    0.136589 0.507750 0.391910 0.149531
H92   H     H_    0.109937 0.497252 0.424324 0.177518
H93   H     H_    0.517996 0.134673 0.609119 0.163087
H94   H     H_    0.494264 0.106571 0.578732 0.163219
H95   H     H_    0.553369 0.143779 0.579398 0.194960
H96   H     H_    0.747911 0.815868 0.785377 0.144951
H97   H     H_    0.494263 0.106572 0.421268 0.163217
H98   H     H_    0.517995 0.134674 0.390881 0.163080
H99   H     H_    0.553368 0.143780 0.420602 0.194960
H100  H     H_    0.393430 0.005733 0.078731 0.163186
H101  H     H_    0.365329 0.982000 0.109118 0.163064
H102  H     H_    0.356225 0.946626 0.079397 0.194983
H103  H     H_    0.365329 0.982000 0.890882 0.163084
H104  H     H_    0.393429 0.005733 0.921269 0.163216
H105  H     H_    0.356224 0.946626 0.920602 0.194966
H106  H     H_    0.948065 0.349094 0.082189 0.196146
H107  H     H_    0.253544 0.185587 0.213990 0.144833
H108  H     H_    0.992553 0.363382 0.108095 0.149545
H109  H     H_    0.003000 0.390057 0.075680 0.177530
H110  H     H_    0.992547 0.363383 0.891906 0.149552
H111  H     H_    0.948058 0.349097 0.917812 0.196147
H112  H     H_    0.002995 0.390058 0.924320 0.177529
H113  H     H_    0.636616 0.007454 0.108094 0.149551
H114  H     H_    0.650902 0.051945 0.082188 0.196141
H115  H     H_    0.609941 0.997008 0.075679 0.177530
H116  H     H_    0.650902 0.051942 0.917812 0.196141
H117  H     H_    0.636615 0.007452 0.891906 0.149564
H118  H     H_    0.185587 0.253544 0.213990 0.144946
H119  H     H_    0.609940 0.997006 0.924320 0.177534
H120  H     H_    0.017999 0.634671 0.109118 0.163069
H121  H     H_    0.994265 0.606570 0.078731 0.163192
H122  H     H_    0.053372 0.643776 0.079397 0.194979
H123  H     H_    0.994271 0.606571 0.921268 0.163222
H124  H     H_    0.018006 0.634672 0.890881 0.163090
H125  H     H_    0.053379 0.643775 0.920602 0.194959
H126  H     H_    0.900269 0.459213 0.658984 0.213460
H127  H     H_    0.946567 0.411826 0.661896 0.191470
H128  H     H_    0.900269 0.459213 0.341015 0.213452
N1    N     N_R   0.503875 0.999156 0.932274 -0.318862
N2    N     N_3   0.926918 0.436103 0.351169 -0.395084
N3    N     N_3   0.436646 0.927562 0.651138 -0.410586
N4    N     N_3   0.436648 0.927561 0.348862 -0.410497
N5    N     N_3   0.072303 0.563498 0.651141 -0.410701
N6    N     N_3   0.072303 0.563497 0.348859 -0.410617
N7    N     N_3   0.563745 0.073220 0.648825 -0.395055
N8    N     N_3   0.563744 0.073221 0.351175 -0.395034
N9    N     N_3   0.426783 0.936253 0.148824 -0.394912
N10   N     N_3   0.426783 0.936253 0.851175 -0.395051
N11   N     N_3   0.936644 0.427563 0.151139 -0.410568
N12   N     N_R   0.503876 0.999157 0.067725 -0.318866
N13   N     N_3   0.936641 0.427566 0.848861 -0.410582
N14   N     N_3   0.572435 0.063359 0.151139 -0.410575
N15   N     N_3   0.572435 0.063358 0.848861 -0.410590
N16   N     N_3   0.063746 0.573218 0.148824 -0.394918
N17   N     N_3   0.063750 0.573216 0.851175 -0.395059
N18   N     N_R   0.000846 0.496125 0.932274 -0.318863
N19   N     N_R   0.000846 0.496123 0.067725 -0.318865
N20   N     N_R   0.003866 0.499162 0.432274 -0.318843
N21   N     N_R   0.003867 0.499163 0.567726 -0.318840
N22   N     N_R   0.500847 0.996126 0.432275 -0.318865
N23   N     N_R   0.500846 0.996126 0.567725 -0.318863
N24   N     N_3   0.926918 0.436104 0.648830 -0.395109
O1    O     O_3   1.000000 0.500000 0.750000 -0.485479
O2    O     O_R   0.000000 0.542800 0.191710 -0.662390
O3    O     O_R   0.542800 0.000000 0.808290 -0.617588
O4    O     O_R   0.457200 1.000000 0.191710 -0.662397
O5    O     O_R   0.500000 0.042800 0.308290 -0.662394
O6    O     O_R   0.500000 0.957200 0.691710 -0.617588
O7    O     O_R   0.957200 0.500000 0.308290 -0.662338
O8    O     O_R   0.042800 0.500000 0.691710 -0.617639
O9    O     O_R   0.500000 0.957200 0.308290 -0.617592
O10   O     O_R   0.500000 0.042800 0.691710 -0.662398
O11   O     O_R   0.042800 0.500000 0.308290 -0.617637
O12   O     O_3   0.000000 0.500000 0.250000 -0.485453
O13   O     O_R   0.957200 0.500000 0.691710 -0.662337
O14   O     O_R   0.060260 0.397270 0.765470 -0.637595
O15   O     O_R   0.939740 0.602730 0.234530 -0.634803
O16   O     O_R   0.602730 0.060260 0.765470 -0.632438
O17   O     O_R   0.397270 0.939740 0.234530 -0.641516
O18   O     O_R   0.939740 0.602730 0.765470 -0.634761
O19   O     O_R   0.060260 0.397270 0.234530 -0.637599
O20   O     O_R   0.397270 0.939740 0.765470 -0.641465
O21   O     O_R   0.602730 0.060260 0.234530 -0.632450
O22   O     O_R   0.060260 0.602730 0.234530 -0.641530
O23   O     O_3   0.500000 0.000000 0.750000 -0.485473
O24   O     O_R   0.939740 0.397270 0.765470 -0.632418
O25   O     O_R   0.602730 0.939740 0.234530 -0.637604
O26   O     O_R   0.397270 0.060260 0.765470 -0.634745
O27   O     O_R   0.939740 0.397270 0.234530 -0.632438
O28   O     O_R   0.060260 0.602730 0.765470 -0.641487
O29   O     O_R   0.397270 0.060260 0.234530 -0.634791
O30   O     O_R   0.602730 0.939740 0.765470 -0.637605
O31   O     O_R   0.560260 0.897270 0.265470 -0.637648
O32   O     O_R   0.439740 0.102730 0.734530 -0.634745
O33   O     O_R   0.102730 0.560260 0.265470 -0.632472
O34   O     O_3   0.500000 0.000000 0.250000 -0.485447
O35   O     O_R   0.897270 0.439740 0.734530 -0.641489
O36   O     O_R   0.439740 0.102730 0.265470 -0.634749
O37   O     O_R   0.560260 0.897270 0.734530 -0.637606
O38   O     O_R   0.897270 0.439740 0.265470 -0.641500
O39   O     O_R   0.102730 0.560260 0.734530 -0.632418
O40   O     O_R   0.560260 0.102730 0.734530 -0.641465
O41   O     O_R   0.439740 0.897270 0.265470 -0.632486
O42   O     O_R   0.102730 0.439740 0.734530 -0.637592
O43   O     O_R   0.897270 0.560260 0.265470 -0.634741
O44   O     O_R   0.439740 0.897270 0.734530 -0.632440
O45   O     O_R   0.000000 0.542800 0.808290 -0.662382
O46   O     O_R   0.560260 0.102730 0.265470 -0.641484
O47   O     O_R   0.897270 0.560260 0.734530 -0.634742
O48   O     O_R   0.102730 0.439740 0.265470 -0.637638
O49   O     O_2   0.532365 0.911873 0.931889 -0.544766
O50   O     O_2   0.475212 0.086384 0.068109 -0.548582
O51   O     O_2   0.088129 0.467634 0.931889 -0.544797
O52   O     O_2   0.913619 0.524786 0.068109 -0.548566
O53   O     O_2   0.475212 0.086383 0.931891 -0.548589
O54   O     O_2   0.532366 0.911874 0.068111 -0.544748
O55   O     O_2   0.913619 0.524788 0.931891 -0.548558
O56   O     O_R   0.000000 0.457200 0.191710 -0.617595
O57   O     O_2   0.088129 0.467634 0.068111 -0.544771
O58   O     O_2   0.032569 0.411953 0.431888 -0.544822
O59   O     O_2   0.974990 0.586314 0.568110 -0.548582
O60   O     O_2   0.588132 0.967642 0.431889 -0.544772
O61   O     O_2   0.413618 0.024784 0.568109 -0.548583
O62   O     O_2   0.974989 0.586313 0.431890 -0.548567
O63   O     O_2   0.032570 0.411954 0.568112 -0.544828
O64   O     O_2   0.413619 0.024784 0.431891 -0.548558
O65   O     O_2   0.588131 0.967640 0.568111 -0.544766
O66   O     O_3   0.929682 0.440230 0.595072 -0.553971
O67   O     O_R   0.457200 0.000000 0.808290 -0.662397
O68   O     O_3   0.929682 0.440228 0.404928 -0.553961
O69   O     O_3   0.441822 0.923385 0.596690 -0.576811
O70   O     O_3   0.441824 0.923384 0.403310 -0.576773
O71   O     O_3   0.076475 0.558349 0.596691 -0.576822
O72   O     O_3   0.076474 0.558348 0.403309 -0.576787
O73   O     O_3   0.559615 0.070448 0.595069 -0.553934
O74   O     O_3   0.559615 0.070450 0.404931 -0.553928
O75   O     O_3   0.429556 0.940384 0.095068 -0.553890
O76   O     O_3   0.429555 0.940383 0.904932 -0.553931
O77   O     O_3   0.941820 0.423384 0.096691 -0.576797
O78   O     O_R   0.542800 1.000000 0.191710 -0.617586
O79   O     O_3   0.941817 0.423387 0.903309 -0.576801
O80   O     O_3   0.576613 0.058185 0.096691 -0.576802
O81   O     O_3   0.576612 0.058184 0.903309 -0.576813
O82   O     O_3   0.059616 0.570445 0.095068 -0.553899
O83   O     O_3   0.059620 0.570444 0.904931 -0.553940
O84   O     O_R   0.000000 0.457200 0.808290 -0.617603
Zn1   Zn    Zn3+2 0.061160 0.500000 0.728500 0.982957
Zn2   Zn    Zn3+2 0.438840 0.000000 0.771500 0.969041
Zn3   Zn    Zn3+2 0.000000 0.561160 0.228500 0.968992
Zn4   Zn    Zn3+2 0.000000 0.438840 0.771500 0.982951
Zn5   Zn    Zn3+2 0.438840 0.000000 0.228500 0.968994
Zn6   Zn    Zn3+2 0.561160 0.000000 0.771500 0.982949
Zn7   Zn    Zn3+2 0.000000 0.438840 0.228500 0.982943
Zn8   Zn    Zn3+2 0.000000 0.561160 0.771500 0.969036
Zn9   Zn    Zn3+2 0.938840 0.500000 0.271500 0.969059
Zn10  Zn    Zn3+2 0.500000 0.061160 0.728500 0.969041
Zn11  Zn    Zn3+2 0.500000 0.938840 0.271500 0.982905
Zn12  Zn    Zn3+2 0.938840 0.500000 0.728500 0.969064
Zn13  Zn    Zn3+2 0.061160 0.500000 0.271500 0.982910
Zn14  Zn    Zn3+2 0.500000 0.938840 0.728500 0.982949
Zn15  Zn    Zn3+2 0.500000 0.061160 0.271500 0.969033
Zn16  Zn    Zn3+2 0.561160 0.000000 0.228500 0.982945

loop_
_geom_bond_atom_site_label_1
_geom_bond_atom_site_label_2
_ccdc_geom_bond_type
C101  C107  A    
C28   C216  A    
C22   C29   A    
O26   Zn2   S    
C77   C202  S    
H6    N4    S    
C193  N1    S    
C129  H90   S    
C112  O2    A    
O12   Zn7   S    
C223  H96   S    
C60   C61   T    
C157  C193  A    
C112  O56   A    
C135  H70   S    
O29   Zn5   S    
O34   Zn5   S    
C168  N8    S    
C91   N23   A    
C13   H58   S    
C89   O60   S    
C142  H72   S    
C96   C214  A    
C35   H60   S    
C95   O65   S    
C7    C42   A    
C136  H112  S    
C36   C53   S    
C201  O19   A    
C202  O20   A    
C6    C215  A    
C22   H40   S    
C177  N17   S    
C69   C211  S    
C80   N12   A    
H29   N15   S    
C167  C180  A    
C204  O21   A    
C103  C117  A    
C100  C115  A    
C169  N9    S    
O47   Zn12  S    
O27   Zn7   S    
C48   C73   T    
C20   H43   S    
C55   C65   T    
C2    H57   S    
C173  C186  A    
C200  O47   A    
H3    N2    S    
C40   C58   S    
O1    Zn12  S    
C197  O15   A    
C203  O8    A    
C208  O32   A    
H19   N10   S    
C177  C186  A    
H10   N6    S    
C108  C113  A    
C134  O77   S    
C210  O28   A    
C203  O13   A    
C14   C38   A    
C39   C56   S    
C23   H39   S    
C12   C20   A    
C196  O14   A    
C148  O67   A    
C86   C99   A    
O23   Zn10  S    
C21   C28   A    
C63   C208  S    
C138  O81   S    
C9    H54   S    
C194  N19   S    
H20   N10   S    
C16   H47   S    
C129  H92   S    
O44   Zn14  S    
C132  H100  S    
O13   Zn12  S    
C14   C19   A    
C123  H75   S    
C47   C74   T    
O34   Zn11  S    
C212  O30   A    
H127  N24   S    
C7    H1    S    
C139  H121  S    
C219  H13   S    
C83   O53   S    
C199  O17   A    
H32   N17   S    
O43   Zn9   S    
H8    N5    S    
C156  O80   S    
C146  C164  A    
C137  H115  S    
C127  H84   S    
O67   Zn2   S    
O36   Zn15  S    
C61   C210  S    
C82   O52   S    
C188  N20   S    
C95   C108  A    
C130  H95   S    
C149  C188  A    
C140  O83   S    
C80   C102  A    
C17   C32   A    
C82   C104  A    
C205  O22   A    
H23   N13   S    
H7    N4    S    
C19   C30   A    
C143  C161  A    
C78   O49   S    
C209  O27   A    
C126  O69   S    
C150  O73   S    
C25   H38   S    
C1    O45   A    
C224  H85   S    
H30   N16   S    
C208  O26   A    
C71   C200  S    
C165  N5    S    
C87   N20   A    
C29   C47   S    
C26   C213  A    
C175  N15   S    
C30   C48   S    
C139  O82   S    
C91   O61   S    
C133  H105  S    
C158  O82   S    
C143  O66   S    
C131  O74   S    
O4    Zn5   S    
C128  H89   S    
C86   O57   S    
O12   Zn13  S    
C44   C76   T    
C149  O72   S    
C147  C165  A    
C145  O69   S    
C191  N12   S    
C27   C44   S    
O84   Zn4   S    
C24   C57   A    
C56   C64   T    
C52   C69   T    
C30   C218  A    
C128  O71   S    
C125  H77   S    
C75   C196  S    
C123  O66   S    
C132  H102  S    
O41   Zn11  S    
O31   Zn11  S    
C178  C203  S    
C170  C182  S    
C87   O58   S    
C123  H73   S    
C145  C163  A    
C160  O83   S    
C85   O55   S    
C64   C207  S    
C94   C107  A    
C4    H63   S    
C38   C55   S    
C154  C172  A    
C164  C182  A    
C8    C41   A    
C126  H81   S    
C187  N21   S    
C83   N1    A    
C137  H113  S    
C112  C185  S    
C66   C205  S    
C9    C23   A    
C209  O38   A    
C199  O41   A    
O19   Zn7   S    
O32   Zn10  S    
C11   C21   A    
C197  O43   A    
C213  H37   S    
H4    N3    S    
C202  O44   A    
C212  O37   A    
C221  C222  A    
C196  O42   A    
C93   C106  A    
C101  C142  A    
C130  H93   S    
C172  C185  A    
C11   H51   S    
C73   C198  S    
C220  H2    S    
C7    C213  A    
C210  O39   A    
C32   C220  A    
C21   H42   S    
C125  O68   S    
O16   Zn6   S    
O5    Zn15  S    
C85   N18   A    
C79   H65   S    
O42   Zn1   S    
C172  N11   S    
C189  N23   S    
C37   C54   S    
C35   C100  A    
C8    H55   S    
C81   C103  A    
C136  O79   S    
C181  O10   A    
C221  H118  S    
O78   Zn16  S    
C211  O29   A    
C171  N10   S    
C54   C66   T    
C91   C114  A    
O11   Zn13  S    
C192  O7    A    
C164  N4    S    
C117  C118  A    
C16   C36   A    
O23   Zn14  S    
H15   N8    S    
H26   N14   S    
C3    C218  A    
C83   C96   A    
C176  N16   S    
C113  C141  A    
C10   H53   S    
C11   C40   A    
C53   C67   T    
C18   C33   A    
C206  O35   A    
C131  H98   S    
C111  C141  A    
C125  H79   S    
C156  C191  A    
O6    Zn14  S    
C153  C193  A    
C154  O77   S    
C86   N19   A    
C216  H35   S    
C95   N23   A    
O34   Zn15  S    
C220  C223  A    
C15   H48   S    
C13   C68   A    
C33   C221  A    
C2    C35   A    
C134  H108  S    
C15   C18   A    
C137  O80   S    
C200  O18   A    
C176  C185  A    
C133  H103  S    
C10   C22   A    
O38   Zn9   S    
H17   N9    S    
C92   N20   A    
C156  C174  A    
C158  C194  A    
C128  H87   S    
C84   C97   A    
O30   Zn6   S    
O28   Zn8   S    
C190  N22   S    
O23   Zn2   S    
C161  N24   S    
C144  O68   S    
C23   C26   A    
C12   C37   A    
C211  O36   A    
C152  O75   S    
C84   N12   A    
H22   N11   S    
C151  C190  A    
C2    C97   A    
C16   C17   A    
C59   C62   T    
H128  N2    S    
C133  H104  S    
C15   C34   A    
O33   Zn13  S    
C88   C110  A    
C92   O62   S    
C27   C215  A    
C8    C25   A    
C93   O63   S    
H33   N17   S    
C31   C49   S    
C133  O76   S    
C195  N18   S    
C159  O4    A    
O39   Zn1   S    
H18   N9    S    
C31   C219  A    
C129  H91   S    
C57   C103  A    
C171  C184  A    
C89   N22   A    
C90   C106  A    
H11   N6    S    
C12   H50   S    
C146  O70   S    
C222  H107  S    
C147  C187  A    
C88   N21   A    
C1    O84   A    
C217  H34   S    
C10   C39   A    
C218  H24   S    
C136  H111  S    
C50   C71   T    
C104  C118  A    
O14   Zn4   S    
C80   O50   S    
C137  H114  S    
C130  O73   S    
C127  H83   S    
C67   C212  S    
O45   Zn8   S    
C97   C116  A    
C36   C223  A    
C121  C122  A    
C160  C195  A    
C163  N3    S    
C207  O31   A    
C134  H106  S    
C168  C182  A    
C78   C100  A    
C138  H119  S    
C25   C27   A    
C107  C121  A    
C129  O72   S    
C42   C60   S    
C101  H67   S    
C180  C181  S    
C109  C119  A    
O15   Zn3   S    
C127  H86   S    
C145  C189  A    
C198  O16   A    
C46   H61   S    
C90   C124  A    
O2    Zn3   S    
C204  O46   A    
C68   C104  A    
C147  O71   S    
C17   H46   S    
C128  H88   S    
C174  C183  A    
C119  C120  A    
C87   C109  A    
C33   C51   S    
C79   C135  A    
C34   C52   S    
H16   N8    S    
H5    N3    S    
C139  H120  S    
H31   N16   S    
C150  C189  A    
C152  C169  A    
O25   Zn16  S    
C93   N21   A    
C90   H66   S    
C150  C167  A    
O18   Zn8   S    
O37   Zn14  S    
O10   Zn10  S    
O35   Zn12  S    
C160  C177  A    
C155  C195  A    
H14   N7    S    
C92   C105  A    
C144  C162  A    
C5    C40   A    
C105  C119  A    
C205  O33   A    
C161  C178  A    
O46   Zn15  S    
C131  H99   S    
C115  C116  A    
H9    N5    S    
C175  C184  A    
C72   C199  S    
C167  N7    S    
C214  H56   S    
C111  C121  A    
C24   C99   A    
C123  H76   S    
O1    Zn1   S    
C78   N1    A    
C166  N6    S    
C1    C186  S    
C113  H68   S    
C46   C102  A    
C139  H122  S    
C9    C42   A    
C24   H59   S    
C201  O48   A    
C114  C142  A    
C138  H116  S    
C162  N2    S    
C126  H82   S    
C152  C191  A    
O21   Zn16  S    
H25   N13   S    
C141  H71   S    
C157  O81   S    
C181  O6    A    
H21   N11   S    
C151  C168  A    
O3    Zn6   S    
C155  O79   S    
C79   C105  A    
C88   O59   S    
O1    Zn8   S    
C13   C98   A    
C169  C183  A    
C85   C98   A    
C68   H64   S    
H126  N24   S    
C179  C192  S    
C130  H94   S    
C3    C38   A    
C46   C214  A    
C49   C72   T    
C138  H117  S    
C51   C70   T    
C206  O24   A    
O48   Zn13  S    
C140  H123  S    
C192  O11   A    
C155  C173  A    
C70   C201  S    
C29   C217  A    
C219  C224  A    
O40   Zn10  S    
C165  C178  A    
C94   N22   A    
C110  C135  A    
C153  O76   S    
C26   C43   S    
O23   Zn6   S    
C81   O51   S    
C173  N13   S    
C28   C45   S    
C127  O70   S    
C41   C59   S    
C110  C120  A    
O7    Zn9   S    
C148  O3    A    
C65   C206  S    
C170  O5    A    
C5    C216  A    
C6    C41   A    
O17   Zn5   S    
H12   N7    S    
C114  C122  A    
C215  H36   S    
O9    Zn11  S    
C3    H74   S    
C140  H124  S    
C74   C197  S    
C148  C184  S    
C153  C171  A    
C6    H41   S    
C126  H80   S    
C96   C115  A    
C5    H52   S    
O22   Zn3   S    
C136  H110  S    
C32   C50   S    
C162  C179  A    
C131  H97   S    
C157  C175  A    
C125  H78   S    
C151  O74   S    
C158  C176  A    
C132  H101  S    
C82   N19   A    
C170  O9    A    
C198  O40   A    
O34   Zn16  S    
C124  H69   S    
C98   C117  A    
C144  C188  A    
C58   C63   T    
C134  H109  S    
C106  C120  A    
C143  C187  A    
C159  O78   A    
C149  C166  A    
C37   C224  A    
C108  C122  A    
O20   Zn2   S    
C81   N18   A    
C132  O75   S    
C57   H62   S    
C76   C204  S    
C109  C124  A    
O12   Zn9   S    
C43   C77   T    
C89   C111  A    
C4    C39   A    
O1    Zn4   S    
O56   Zn7   S    
C45   C75   T    
H27   N14   S    
C207  O25   A    
C99   C118  A    
C14   H49   S    
C94   O64   S    
C84   O54   S    
C62   C209  S    
C174  N14   S    
C140  H125  S    
C102  C116  A    
C154  C194  A    
O12   Zn3   S    
C4    C217  A    
O8    Zn1   S    
C163  C180  A    
H28   N15   S    
C146  C190  A    
C166  C179  A    
C159  C183  S    
C18   H45   S    
C34   C222  A    
C19   H44   S    
O24   Zn4   S    
C20   C31   A    
