data_mof_unit_65454.cif
_audit_creation_date              2012-12-10T16:35:12-0500
_audit_creation_method            fapswitch 2.2
_symmetry_space_group_name_H-M    P1
_symmetry_Int_Tables_number       1
_space_group_crystal_system       triclinic
_cell_length_a                    10.832551
_cell_length_b                    10.862525
_cell_length_c                    10.881605
_cell_angle_alpha                 80.868956
_cell_angle_beta                  98.095535
_cell_angle_gamma                 90.013229
_cell_volume                      1251.28177691

loop_
_atom_site_label
_atom_site_type_symbol
_atom_type_description
_atom_site_fract_x
_atom_site_fract_y
_atom_site_fract_z
_atom_type_partial_charge
C1    C     C_R   0.834950 0.471138 0.528478 0.940529
C2    C     C_2   0.469458 0.029425 0.532731 -0.479716
C3    C     C_2   0.533144 0.967581 0.464132 0.520503
C4    C     C_2   0.029122 0.538525 0.461643 0.483940
C5    C     C_3   0.680561 0.293646 0.999358 0.067810
C6    C     C_3   0.744595 0.189355 0.097533 -0.626826
C7    C     C_2   0.968168 0.460517 0.538178 -0.434984
C8    C     C_2   0.474893 0.540147 0.024583 0.357369
C9    C     C_2   0.533388 0.455333 0.973924 0.199843
C10   C     C_R   0.163954 0.527519 0.472434 0.765552
C11   C     C_R   0.522913 0.472424 0.838379 0.815768
C12   C     C_R   0.477032 0.527280 0.160192 0.818587
C13   C     C_R   0.523523 0.834862 0.475791 0.791235
C14   C     C_R   0.476730 0.164089 0.523414 0.918766
F1    F     F_    0.605727 0.025380 0.380871 -0.634350
F2    F     F_    0.966565 0.628561 0.373440 -0.636630
F3    F     F_    0.415275 0.641688 0.950272 -0.662978
H1    H     H_    0.411179 0.979451 0.596836 0.133459
H2    H     H_    0.016003 0.387833 0.608981 0.132580
H3    H     H_    0.750854 0.366008 0.978045 0.138394
H4    H     H_    0.645916 0.253782 0.913137 0.134215
H5    H     H_    0.677484 0.114534 0.119646 0.285193
H6    H     H_    0.823797 0.149294 0.061114 0.188047
H7    H     H_    0.780594 0.226296 0.184934 0.267198
O1    O     O_3   0.500000 0.500000 0.500000 -0.527548
O2    O     O_R   0.597340 0.765700 0.560080 -0.628531
O3    O     O_R   0.548200 0.222430 0.451790 -0.564453
O4    O     O_R   0.441590 0.789440 0.401000 -0.633285
O5    O     O_R   0.412860 0.222430 0.587130 -0.651261
O6    O     O_3   0.580184 0.343376 0.047339 -0.597356
O7    O     O_R   0.441590 0.410520 0.779910 -0.630552
O8    O     O_R   0.548210 0.443940 0.230290 -0.603588
O9    O     O_R   0.787780 0.544200 0.591150 -0.625693
O10   O     O_R   0.222430 0.601350 0.398650 -0.591408
O11   O     O_R   0.767360 0.410530 0.454140 -0.628115
O12   O     O_R   0.222430 0.443930 0.556060 -0.668976
O13   O     O_R   0.597340 0.544190 0.781580 -0.647091
O14   O     O_R   0.412870 0.601350 0.208220 -0.600046
Zn1   Zn    Zn3+2 0.396020 0.396030 0.603970 0.987086
Zn2   Zn    Zn3+2 0.618560 0.587010 0.606350 1.021791
Zn3   Zn    Zn3+2 0.396030 0.620930 0.379070 1.057852
Zn4   Zn    Zn3+2 0.589390 0.396030 0.410610 1.047671

loop_
_geom_bond_atom_site_label_1
_geom_bond_atom_site_label_2
_ccdc_geom_bond_type
O1    Zn4   S    
C4    F2    S    
C13   O4    A    
C14   O3    A    
C2    H1    S    
C8    F3    S    
C3    C13   S    
C8    C12   S    
C6    H7    S    
O5    Zn1   S    
C2    C3    D    
C11   O7    A    
C10   O10   A    
C5    H3    S    
C12   O8    A    
C9    C11   S    
O3    Zn4   S    
O2    Zn2   S    
O10   Zn3   S    
C9    O6    S    
C4    C7    D    
C6    H6    S    
O7    Zn1   S    
O13   Zn2   S    
C7    H2    S    
O1    Zn2   S    
C12   O14   A    
C5    C6    S    
C2    C14   S    
C13   O2    A    
O9    Zn2   S    
C14   O5    A    
C1    O9    A    
C6    H5    S    
O4    Zn3   S    
C3    F1    S    
C1    O11   A    
O14   Zn3   S    
C5    O6    S    
O1    Zn3   S    
C11   O13   A    
O11   Zn4   S    
O8    Zn4   S    
C10   O12   A    
C1    C7    S    
C4    C10   S    
O12   Zn1   S    
O1    Zn1   S    
C8    C9    D    
C5    H4    S    
