data_mof_unit_36137.cif
_audit_creation_date              2013-03-05T15:41:32-0500
_audit_creation_method            fapswitch 2.2
_symmetry_space_group_name_H-M    P1
_symmetry_Int_Tables_number       1
_space_group_crystal_system       triclinic
_cell_length_a                    24.996602
_cell_length_b                    17.677448
_cell_length_c                    15.649074
_cell_angle_alpha                 90.02425
_cell_angle_beta                  129.896096
_cell_angle_gamma                 89.719441
_cell_volume                      5305.11575891

loop_
_atom_site_label
_atom_site_type_symbol
_atom_site_description
_atom_site_fract_x
_atom_site_fract_y
_atom_site_fract_z
_atom_type_partial_charge
C1    C     C_R   0.334137 0.390709 0.202642 -0.056734
C2    C     C_R   0.340821 0.626717 0.218244 0.012047
C3    C     C_R   0.833101 0.894437 0.198864 -0.115929
C4    C     C_R   0.839339 0.123530 0.213588 -0.027441
H1    H     H_    0.285064 0.387467 0.184868 0.146566
H2    H     H_    0.289949 0.633715 0.195062 0.132370
H3    H     H_    0.782886 0.893203 0.177611 0.146462
H4    H     H_    0.787601 0.127240 0.187325 0.169082
N1    N     N_R   0.389430 0.421450 0.294590 -0.060862
N2    N     N_R   0.389430 0.578550 0.294590 -0.067388
N3    N     N_R   0.889430 0.921450 0.294590 -0.062923
N4    N     N_R   0.889430 0.078550 0.294590 -0.063746
C5    C     C_R   0.657762 0.370422 0.772134 -0.204057
C6    C     C_R   0.644957 0.642150 0.744708 -0.236376
C7    C     C_R   0.168403 0.898101 0.802580 -0.282625
C8    C     C_R   0.144703 0.142092 0.745113 -0.246260
H5    H     H_    0.708084 0.362426 0.794506 0.152745
H6    H     H_    0.688199 0.659569 0.749903 0.146831
H7    H     H_    0.220806 0.899459 0.830808 0.149092
H8    H     H_    0.187531 0.160050 0.749572 0.173240
N5    N     N_R   0.612200 0.424040 0.705410 -0.061235
N6    N     N_R   0.612200 0.575960 0.705410 -0.054914
N7    N     N_R   0.112200 0.924040 0.705410 -0.060990
N8    N     N_R   0.112200 0.075960 0.705410 -0.056411
C9    C     C_R   0.611560 0.382068 0.411410 0.566640
C10   C     C_R   0.612241 0.603602 0.405732 0.598662
C11   C     C_R   0.089849 0.857650 0.409229 0.562541
C12   C     C_R   0.115344 0.107063 0.411323 0.528426
N9    N     N_R   0.581780 0.422390 0.443390 -0.108303
N10   N     N_R   0.581780 0.577610 0.443390 -0.101272
N11   N     N_R   0.081780 0.922390 0.443390 -0.108984
N12   N     N_R   0.081780 0.077610 0.443390 -0.111032
C13   C     C_R   0.396013 0.380113 0.593292 -0.161917
C14   C     C_R   0.388881 0.602495 0.593737 -0.065736
C15   C     C_R   0.895998 0.875799 0.591223 -0.138149
C16   C     C_R   0.892364 0.109486 0.594830 -0.097315
H9    H     H_    0.418009 0.379012 0.678333 0.164111
H10   H     H_    0.411623 0.596798 0.678880 0.198411
H11   H     H_    0.915033 0.872282 0.675502 0.195980
H12   H     H_    0.915539 0.107862 0.680424 0.211036
N13   N     N_R   0.419850 0.423100 0.556610 -0.058205
N14   N     N_R   0.419850 0.576900 0.556610 -0.064651
N15   N     N_R   0.919850 0.923100 0.556610 -0.060118
N16   N     N_R   0.919850 0.076900 0.556610 -0.067454
C17   C     C_R   0.685069 0.388166 0.597584 -0.181991
C18   C     C_R   0.687278 0.604765 0.590480 -0.248538
C19   C     C_R   0.163724 0.859922 0.595530 -0.105300
C20   C     C_R   0.187946 0.102738 0.594753 -0.092551
H13   H     H_    0.729518 0.389319 0.683819 0.201059
H14   H     H_    0.733611 0.608534 0.676740 0.187630
H15   H     H_    0.204675 0.850485 0.682577 0.172516
H16   H     H_    0.233846 0.096660 0.680454 0.179622
N17   N     N_R   0.627410 0.423100 0.556610 -0.081076
N18   N     N_R   0.627410 0.576900 0.556610 -0.071471
N19   N     N_R   0.127410 0.923100 0.556610 -0.073676
N20   N     N_R   0.127410 0.076900 0.556610 -0.086217
C21   C     C_R   0.322370 0.376105 0.407330 -0.065136
C22   C     C_R   0.313012 0.600874 0.410252 -0.016138
C23   C     C_R   0.829210 0.868061 0.406008 -0.032604
C24   C     C_R   0.816383 0.111578 0.409732 -0.029860
H17   H     H_    0.277843 0.367069 0.321080 0.174513
H18   H     H_    0.264755 0.596083 0.325563 0.170046
H19   H     H_    0.792620 0.854118 0.319613 0.161141
H20   H     H_    0.769494 0.116520 0.323829 0.181069
N21   N     N_R   0.374220 0.422390 0.443390 -0.069959
N22   N     N_R   0.374220 0.577610 0.443390 -0.072523
N23   N     N_R   0.874220 0.922390 0.443390 -0.072615
N24   N     N_R   0.874220 0.077610 0.443390 -0.067593
C25   C     C_R   0.570307 0.368641 0.778279 0.620079
C26   C     C_R   0.558031 0.642322 0.751028 0.659214
C27   C     C_R   0.076643 0.882903 0.795319 0.599409
C28   C     C_R   0.059193 0.140415 0.755141 0.650213
N25   N     N_R   0.555000 0.424040 0.705410 -0.103486
N26   N     N_R   0.555000 0.575960 0.705410 -0.118865
N27   N     N_R   0.055000 0.924040 0.705410 -0.105031
N28   N     N_R   0.055000 0.075960 0.705410 -0.124819
C29   C     C_R   0.418970 0.397036 0.192195 -0.157596
C30   C     C_R   0.429409 0.627402 0.214357 -0.118970
C31   C     C_R   0.918140 0.901235 0.189993 -0.063238
C32   C     C_R   0.929060 0.125339 0.212155 -0.099216
H21   H     H_    0.441777 0.406447 0.153756 0.119690
H22   H     H_    0.455836 0.634758 0.181616 0.171458
H23   H     H_    0.942491 0.910213 0.153520 0.146603
H24   H     H_    0.957895 0.131985 0.182953 0.160506
N29   N     N_R   0.446630 0.421450 0.294590 -0.055374
N30   N     N_R   0.446630 0.578550 0.294590 -0.054310
N31   N     N_R   0.946630 0.921450 0.294590 -0.059437
N32   N     N_R   0.946630 0.078550 0.294590 -0.059784
C33   C     C_R   0.349533 0.377654 0.134045 0.167307
C34   C     C_R   0.364720 0.658264 0.167470 0.169911
C35   C     C_R   0.848484 0.882739 0.129983 0.153086
C36   C     C_R   0.862751 0.154482 0.161734 0.176151
C37   C     C_R   0.633212 0.333252 0.817389 -0.137409
C38   C     C_R   0.611261 0.685829 0.771083 -0.182067
C39   C     C_R   0.148595 0.870787 0.860091 -0.085849
C40   C     C_R   0.111672 0.184390 0.774125 -0.176838
C41   C     C_R   0.677205 0.359093 0.510339 0.039778
C42   C     C_R   0.678442 0.625069 0.496621 0.081017
C43   C     C_R   0.146707 0.818929 0.506008 -0.011391
C44   C     C_R   0.181178 0.128074 0.505948 0.047231
C45   C     C_R   0.336476 0.346184 0.501437 0.129002
C46   C     C_R   0.322042 0.622438 0.503824 0.079714
C47   C     C_R   0.840034 0.837882 0.497399 0.081671
C48   C     C_R   0.828951 0.136462 0.505111 0.078286
Ni1   Ni    Ni4+2 0.382890 0.500000 0.370170 0.225573
Ni2   Ni    Ni4+2 0.882890 0.000000 0.370170 0.228535
Ni3   Ni    Ni4+2 0.618740 0.500000 0.629830 0.207211
Ni4   Ni    Ni4+2 0.118740 0.000000 0.629830 0.215031
Ni5   Ni    Ni4+2 0.514090 0.500000 0.370170 0.231613
Ni6   Ni    Ni4+2 0.014090 0.000000 0.370170 0.226761
Ni7   Ni    Ni4+2 0.487550 0.500000 0.629830 0.220377
Ni8   Ni    Ni4+2 0.987550 0.000000 0.629830 0.197791
C49   C     C_3   0.322613 0.278792 0.626013 0.200675
C50   C     C_3   0.315605 0.702056 0.632161 0.191425
C51   C     C_3   0.845322 0.713178 0.579265 0.177872
C52   C     C_3   0.826531 0.213125 0.639866 0.165315
H25   H     H_    0.379717 0.273769 0.684485 0.092127
H26   H     H_    0.361400 0.732060 0.652967 0.210832
H27   H     H_    0.880857 0.697133 0.562837 0.124280
H28   H     H_    0.879150 0.234326 0.678076 0.212140
C53   C     C_3   0.799484 0.643484 0.560518 0.703430
C54   C     C_3   0.789451 0.280180 0.649250 0.650855
C55   C     C_3   0.292829 0.205333 0.636433 0.678078
C56   C     C_3   0.272450 0.762732 0.638001 0.634972
H29   H     H_    0.212818 0.368754 0.443224 0.078270
H30   H     H_    0.216505 0.579016 0.500661 0.034039
H31   H     H_    0.796426 0.845029 0.615280 0.073320
H32   H     H_    0.709571 0.115296 0.464589 0.006580
H33   H     H_    0.758057 0.741932 0.644349 0.198947
H34   H     H_    0.670293 0.202403 0.521162 0.177473
H35   H     H_    0.172058 0.285812 0.502161 0.204254
H36   H     H_    0.168938 0.661095 0.551023 0.185673
C57   C     C_3   0.217659 0.309247 0.424263 0.455759
C58   C     C_3   0.205729 0.634261 0.459158 0.483907
C59   C     C_3   0.757971 0.815946 0.533504 0.499881
C60   C     C_3   0.713264 0.173001 0.441013 0.477471
C61   C     C_3   0.306659 0.208278 0.464606 1.062251
C62   C     C_3   0.259605 0.746839 0.433231 1.049818
C63   C     C_3   0.739543 0.748077 0.371187 1.019637
C64   C     C_3   0.796863 0.272019 0.461964 1.045106
C65   C     C_3   0.296605 0.286344 0.503413 -0.172828
C66   C     C_3   0.276067 0.673605 0.507187 -0.223635
C67   C     C_3   0.796227 0.779885 0.494231 -0.160293
C68   C     C_3   0.791350 0.196218 0.511786 -0.185633
C69   C     C_3   0.724288 0.676599 0.496671 -0.014029
C70   C     C_3   0.724475 0.301842 0.523365 0.009645
C71   C     C_3   0.227084 0.183490 0.512118 0.018389
C72   C     C_3   0.197894 0.766840 0.515956 0.067260
C73   C     C_3   0.726466 0.751095 0.553154 -0.533055
C74   C     C_3   0.679110 0.228972 0.467053 -0.548981
C75   C     C_3   0.181261 0.256122 0.449855 -0.519412
C76   C     C_3   0.166814 0.685541 0.483813 -0.574712
C77   C     C_3   0.692694 0.696042 0.375983 -0.632316
C78   C     C_3   0.749646 0.330743 0.460756 -0.665262
C79   C     C_3   0.252173 0.152907 0.449734 -0.679484
C80   C     C_3   0.206522 0.794297 0.430925 -0.695127
H37   H     H_    0.681362 0.644811 0.326320 0.237367
H38   H     H_    0.775165 0.386432 0.493173 0.241328
H39   H     H_    0.273656 0.094810 0.477395 0.218517
H40   H     H_    0.217745 0.855490 0.438101 0.221632
H41   H     H_    0.643304 0.726391 0.339615 0.248402
H42   H     H_    0.702863 0.341042 0.374218 0.246873
H43   H     H_    0.205300 0.148026 0.360930 0.248899
H44   H     H_    0.155779 0.787775 0.350251 0.240705
H45   H     H_    0.673203 0.767573 0.520662 0.212177
H46   H     H_    0.625448 0.239599 0.390767 0.187301
H47   H     H_    0.128637 0.243192 0.370471 0.224369
H48   H     H_    0.110818 0.684814 0.413358 0.192866
H49   H     H_    0.682294 0.212374 0.795686 0.178087
H50   H     H_    0.736355 0.732188 0.911531 0.136096
H51   H     H_    0.185823 0.746019 0.828769 0.168271
H52   H     H_    0.237042 0.231276 0.908095 0.124258
C81   C     C_2   0.676080 0.275651 0.903336 0.348656
C82   C     C_2   0.631068 0.763617 0.813202 0.456911
C83   C     C_2   0.190525 0.813085 0.945405 0.406377
C84   C     C_2   0.132247 0.260733 0.820160 0.456310
C85   C     C_2   0.702397 0.219646 0.880752 -0.427902
C86   C     C_2   0.699846 0.777930 0.888271 -0.510537
C87   C     C_2   0.208357 0.752499 0.915202 -0.467611
C88   C     C_2   0.200716 0.275585 0.890143 -0.466449
H53   H     H_    0.343693 0.762503 0.075909 0.151007
H54   H     H_    0.325354 0.324445 0.989025 0.109127
H55   H     H_    0.823423 0.259944 0.069064 0.148639
H56   H     H_    0.825511 0.824244 0.988174 0.118138
C89   C     C_2   0.322941 0.707083 0.070187 -0.320692
C90   C     C_2   0.301020 0.351205 0.019024 -0.346948
C91   C     C_2   0.818011 0.198904 0.059432 -0.374981
C92   C     C_2   0.800674 0.854500 0.015194 -0.309480
C93   C     C_2   0.255237 0.691737 0.988798 0.432206
C94   C     C_2   0.232258 0.341624 0.962809 0.503177
C95   C     C_2   0.760053 0.168883 0.965108 0.454753
C96   C     C_2   0.731462 0.846322 0.957175 0.507499
N33   N     N_R   0.799115 0.583657 0.492724 0.196475
O1    O     O_R   0.750526 0.532535 0.442333 -0.483274
O2    O     O_R   0.852838 0.573170 0.498159 -0.432437
N34   N     N_R   0.838021 0.345895 0.709209 0.185986
O3    O     O_R   0.876547 0.368847 0.685611 -0.401458
O4    O     O_R   0.848523 0.378074 0.793663 -0.474335
N35   N     N_R   0.345320 0.142034 0.689740 0.207623
O5    O     O_R   0.325766 0.071721 0.672436 -0.366947
O6    O     O_R   0.411893 0.155158 0.763938 -0.429302
N36   N     N_R   0.309966 0.837020 0.673969 0.209310
O7    O     O_R   0.376675 0.840037 0.757702 -0.359880
O8    O     O_R   0.279089 0.899900 0.620806 -0.394010
O9    O     O_3   0.270252 0.223381 0.698248 -0.627543
C97   C     C_3   0.322035 0.212974 0.814861 -0.188180
H57   H     H_    0.374250 0.232578 0.848750 0.149386
H58   H     H_    0.325575 0.152772 0.838052 0.152929
H59   H     H_    0.306707 0.246195 0.855877 0.139748
O10   O     O_3   0.261420 0.737166 0.712624 -0.665270
C98   C     C_3   0.316202 0.752855 0.826685 -0.092167
H60   H     H_    0.314544 0.812919 0.845643 0.128179
H61   H     H_    0.368553 0.738244 0.855018 0.206639
H62   H     H_    0.308627 0.717384 0.876307 0.139967
O11   O     O_3   0.823634 0.615853 0.666037 -0.693569
C99   C     C_3   0.848146 0.540415 0.692422 -0.059149
H63   H     H_    0.890615 0.531022 0.688793 0.187948
H64   H     H_    0.804428 0.500397 0.638424 0.195055
H65   H     H_    0.870469 0.528987 0.779379 0.171205
O12   O     O_3   0.762827 0.255789 0.703208 -0.665323
C100  C     C_3   0.813931 0.240947 0.819255 0.009995
H66   H     H_    0.807925 0.282360 0.865842 0.120127
H67   H     H_    0.868790 0.242656 0.852488 0.180148
H68   H     H_    0.804696 0.183983 0.836907 0.140169
O13   O     O_3   0.700818 0.810775 0.295454 -0.629500
C101  C     C_3   0.632040 0.797489 0.195070 -0.168101
H69   H     H_    0.594069 0.820059 0.203399 0.177366
H70   H     H_    0.619704 0.737493 0.169277 0.107487
H71   H     H_    0.624212 0.829549 0.126976 0.216234
O14   O     O_3   0.774442 0.256117 0.353252 -0.636167
C102  C     C_3   0.749663 0.317557 0.278078 -0.060418
H72   H     H_    0.692890 0.310537 0.209111 0.214495
H73   H     H_    0.776814 0.315659 0.243503 0.198782
H74   H     H_    0.758384 0.374687 0.313752 0.086974
O15   O     O_3   0.297854 0.222243 0.365540 -0.617653
C103  C     C_3   0.266462 0.164228 0.284509 -0.211013
H75   H     H_    0.209261 0.173806 0.222585 0.199540
H76   H     H_    0.277776 0.106274 0.319507 0.098988
H77   H     H_    0.286688 0.167748 0.238959 0.165110
O16   O     O_3   0.235514 0.722699 0.325457 -0.640518
C104  C     C_3   0.179360 0.761735 0.228780 -0.114664
H78   H     H_    0.128710 0.740575 0.201073 0.150642
H79   H     H_    0.179175 0.747146 0.159983 0.214879
H80   H     H_    0.183138 0.824068 0.238726 0.139126
O17   O     O_3   0.376517 0.184356 0.553712 -0.670373
C105  C     C_3   0.401740 0.126598 0.525340 -0.059805
H81   H     H_    0.406655 0.146623 0.463417 0.137188
H82   H     H_    0.370073 0.074494 0.497349 0.118388
H83   H     H_    0.455054 0.111066 0.601411 0.188922
O18   O     O_3   0.323423 0.787634 0.489887 -0.656854
C106  C     C_3   0.323397 0.840985 0.422759 0.018139
H84   H     H_    0.280977 0.883456 0.386034 0.082347
H85   H     H_    0.321687 0.812607 0.357770 0.187627
H86   H     H_    0.373188 0.872495 0.476429 0.172886
O19   O     O_3   0.778371 0.706751 0.347947 -0.659176
C107  C     C_3   0.742533 0.691871 0.234431 -0.151339
H87   H     H_    0.728654 0.744754 0.185823 0.157893
H88   H     H_    0.696885 0.654823 0.198104 0.123486
H89   H     H_    0.778349 0.660126 0.228355 0.170604
O20   O     O_3   0.869008 0.292647 0.536330 -0.637716
C108  C     C_3   0.887938 0.350435 0.498215 0.028113
H90   H     H_    0.857707 0.403264 0.477497 0.140416
H91   H     H_    0.885972 0.330279 0.429140 0.097687
H92   H     H_    0.943040 0.365306 0.566786 0.211603
O21   O     O_3   0.187285 0.300318 0.310887 -0.593712
C109  C     C_3   0.135003 0.355210 0.242503 -0.178015
H93   H     H_    0.104689 0.338203 0.154292 0.219463
H94   H     H_    0.159167 0.410721 0.253219 0.123141
H95   H     H_    0.097956 0.360094 0.259066 0.107826
O22   O     O_3   0.164243 0.623729 0.342389 -0.585271
C110  C     C_3   0.119911 0.560745 0.306019 -0.276578
H96   H     H_    0.083413 0.568144 0.323188 0.139223
H97   H     H_    0.150624 0.507757 0.345535 0.125209
H98   H     H_    0.088335 0.555057 0.214664 0.181263
O23   O     O_3   0.702695 0.864378 0.450153 -0.571230
C111  C     C_3   0.716822 0.940370 0.483876 -0.218861
H99   H     H_    0.671310 0.975184 0.417799 0.164394
H100  H     H_    0.762917 0.960254 0.494622 0.129714
H101  H     H_    0.723942 0.948297 0.561139 0.123174
O24   O     O_3   0.678570 0.176617 0.325201 -0.585160
C112  C     C_3   0.626762 0.120581 0.265260 -0.233715
H102  H     H_    0.594957 0.132409 0.174958 0.197879
H103  H     H_    0.591092 0.120829 0.284810 0.118763
H104  H     H_    0.651258 0.063947 0.282107 0.146798
N37   N     N_R   0.229548 0.615424 0.962607 0.250197
O25   O     O_R   0.162947 0.603405 0.901762 -0.354177
O26   O     O_R   0.270121 0.559826 0.980828 -0.384841
N38   N     N_R   0.195024 0.381024 0.991228 0.243763
O27   O     O_R   0.196511 0.454385 0.997063 -0.297955
O28   O     O_R   0.160786 0.343432 0.013919 -0.398147
N39   N     N_R   0.755235 0.089658 0.938620 0.258725
O29   O     O_R   0.697191 0.063356 0.848319 -0.333473
O30   O     O_R   0.810509 0.046633 0.993022 -0.419040
N40   N     N_R   0.693563 0.891010 0.980042 0.252103
O31   O     O_R   0.702317 0.963808 0.993090 -0.309003
O32   O     O_R   0.651681 0.858709 0.991210 -0.417882
N41   N     N_R   0.695387 0.285756 0.010929 0.222742
O33   O     O_R   0.692845 0.353202 0.041558 -0.439113
O34   O     O_R   0.700197 0.227423 0.066118 -0.448790
N42   N     N_R   0.578645 0.822403 0.764897 0.271523
O35   O     O_R   0.591674 0.889637 0.748597 -0.330815
O36   O     O_R   0.514442 0.805547 0.717483 -0.309406
N43   N     N_R   0.213132 0.826348 0.055256 0.225581
O37   O     O_R   0.266173 0.790813 0.142537 -0.470582
O38   O     O_R   0.184936 0.881337 0.069888 -0.458151
N44   N     N_R   0.080321 0.318244 0.783134 0.257630
O39   O     O_R   0.086952 0.385222 0.756486 -0.360051
O40   O     O_R   0.022946 0.301865 0.764320 -0.296292
O41   O     O_3   0.597179 0.395404 0.311426 -0.651184
C113  C     C_3   0.558612 0.335835 0.235476 -0.360664
H105  H     H_    0.525662 0.304535 0.248321 0.133262
H106  H     H_    0.593749 0.296159 0.237342 0.216589
H107  H     H_    0.524138 0.359710 0.149965 0.174153
O42   O     O_3   0.576755 0.619867 0.294933 -0.687317
C114  C     C_3   0.564521 0.552691 0.237164 -0.264699
H108  H     H_    0.528936 0.515085 0.236738 0.181349
H109  H     H_    0.614347 0.524048 0.271229 0.234375
H110  H     H_    0.538067 0.567268 0.149173 0.156739
O43   O     O_3   0.057984 0.845346 0.298185 -0.655716
C115  C     C_3   0.021996 0.775635 0.259801 -0.331066
H111  H     H_    0.007910 0.753630 0.309865 0.137639
H112  H     H_    0.051135 0.733384 0.251385 0.184997
H113  H     H_    0.972779 0.782702 0.173226 0.168345
O44   O     O_3   0.090815 0.109806 0.303249 -0.654315
C116  C     C_3   0.078616 0.035560 0.261956 -0.217796
H114  H     H_    0.032548 0.010843 0.246893 0.155103
H115  H     H_    0.125341 0.998536 0.318511 0.150772
H116  H     H_    0.067075 0.037605 0.180718 0.172115
O45   O     O_3   0.538920 0.362556 0.825316 -0.650883
C117  C     C_3   0.523574 0.286035 0.827044 -0.171851
H117  H     H_    0.570114 0.252561 0.891616 0.202329
H118  H     H_    0.495372 0.258604 0.744311 0.161316
H119  H     H_    0.490374 0.283912 0.850629 0.165912
O46   O     O_3   0.522350 0.659708 0.788436 -0.590109
C118  C     C_3   0.543045 0.608191 0.873740 -0.232089
H120  H     H_    0.600078 0.611905 0.944853 0.132333
H121  H     H_    0.528514 0.549105 0.842153 0.137015
H122  H     H_    0.515497 0.623123 0.905602 0.192873
O47   O     O_3   0.035783 0.825433 0.784312 -0.647829
C119  C     C_3   0.034305 0.765702 0.721505 -0.234013
H123  H     H_    0.061687 0.776431 0.687854 0.125976
H124  H     H_    0.980016 0.754020 0.648063 0.174167
H125  H     H_    0.057630 0.714014 0.773871 0.192778
O48   O     O_3   0.030150 0.152646 0.804977 -0.594645
C120  C     C_3   0.046238 0.090710 0.874992 -0.208447
H126  H     H_    0.103655 0.082207 0.939391 0.139551
H127  H     H_    0.020947 0.037882 0.826395 0.106938
H128  H     H_    0.025807 0.102921 0.918968 0.193115
O49   O     O_3   0.298661 0.343893 0.647708 -0.598792
C121  C     C_3   0.349278 0.376794 0.753681 -0.141865
H129  H     H_    0.396163 0.341806 0.813928 0.093875
H130  H     H_    0.324668 0.389482 0.791047 0.169997
H131  H     H_    0.366715 0.430967 0.743777 0.116865
O50   O     O_3   0.350133 0.649382 0.722878 -0.616878
C122  C     C_3   0.312582 0.585102 0.709473 -0.163887
H132  H     H_    0.311241 0.543006 0.655806 0.109130
H133  H     H_    0.260642 0.598639 0.682305 0.175356
H134  H     H_    0.341604 0.557820 0.792295 0.156617
O51   O     O_3   0.884740 0.741620 0.690262 -0.627588
C123  C     C_3   0.942544 0.695549 0.772436 -0.024490
H135  H     H_    0.957602 0.652906 0.738796 0.111774
H136  H     H_    0.932070 0.666792 0.823251 0.160921
H137  H     H_    0.987606 0.732037 0.832875 0.180145
O52   O     O_3   0.845322 0.151967 0.714558 -0.624383
C124  C     C_3   0.795848 0.094738 0.674882 -0.192095
H138  H     H_    0.795304 0.057679 0.617775 0.103314
H139  H     H_    0.743975 0.116720 0.639850 0.163565
H140  H     H_    0.813223 0.058643 0.746667 0.179402

loop_
_geom_bond_atom_site_label_1
_geom_bond_atom_site_label_2
_geom_bond_distance
_ccdc_geom_bond_type
C35   C92   1.468151 S    
C85   C95   1.474028 S    
C33   C90   1.460775 S    
H35   C75   1.112836 S    
N39   O29   1.301593 A    
C14   N14   1.309527 A    
C99   H65   1.108612 S    
C31   N31   1.349364 A    
C12   C44   1.385052 A    
C36   C91   1.458112 S    
N43   O38   1.301625 A    
C112  H104  1.110800 S    
C95   N39   1.443901 S    
C10   O42   1.378716 S    
C29   C33   1.391947 A    
C14   C46   1.369122 A    
C11   O43   1.388270 S    
N18   Ni3   1.878986 S    
H50   C86   1.089082 S    
N9    Ni5   1.884053 S    
C78   H38   1.106344 S    
C25   C37   1.412287 A    
C27   C39   1.402111 A    
C110  H96   1.111265 S    
C107  H89   1.108905 S    
C55   O9    1.433287 S    
H49   C85   1.087890 S    
C2    C34   1.382679 A    
C39   C83   1.455027 S    
C123  H135  1.112709 S    
C70   C74   1.566287 S    
O44   C116  1.408407 S    
C81   N41   1.434564 S    
C26   N26   1.349940 A    
C61   O15   1.440445 S    
C71   C79   1.555733 S    
C52   O52   1.430903 S    
C18   C42   1.385111 A    
N35   O5    1.301177 A    
O17   C105  1.410506 S    
C105  H82   1.108517 S    
C9    N9    1.336065 A    
C20   C44   1.363361 A    
C113  H106  1.106928 S    
N36   O7    1.303185 A    
N10   Ni5   1.895378 S    
C11   N11   1.331071 A    
C115  H113  1.106879 S    
C12   N12   1.330928 A    
C119  H123  1.116008 S    
N7    N27   1.429806 A    
C118  H121  1.113635 S    
C97   H57   1.105093 S    
N8    N28   1.429806 A    
O42   C114  1.403195 S    
C77   H41   1.108316 S    
C32   C36   1.396279 A    
O11   C99   1.411454 S    
C26   O46   1.378253 S    
C30   H22   1.072778 S    
C23   N23   1.302395 A    
C122  H132  1.106255 S    
C70   C78   1.552809 S    
C8    H8    1.076673 S    
C11   C43   1.418569 A    
C84   N44   1.441123 S    
N44   O39   1.301636 A    
C5    N5    1.323073 A    
C120  H128  1.109351 S    
C57   O21   1.422039 S    
C52   C54   1.565069 S    
N16   Ni8   1.875110 S    
H36   C76   1.106494 S    
C1    H1    1.071601 S    
C16   N16   1.297904 A    
N42   O35   1.301681 A    
C64   O20   1.432966 S    
C60   O24   1.422722 S    
C23   H19   1.068110 S    
C119  H124  1.098615 S    
N34   O3    1.299440 A    
C47   C67   1.481183 S    
C83   C87   1.354341 D    
C21   H17   1.077294 S    
N29   Ni5   1.906204 S    
C24   H20   1.080005 S    
C32   N32   1.346009 A    
C124  H138  1.100917 S    
C6    C38   1.383932 A    
C75   H47   1.110087 S    
C37   C81   1.461408 S    
N11   Ni6   1.884053 S    
C82   N42   1.443990 S    
C102  H74   1.106653 S    
C59   O23   1.421595 S    
C54   C70   1.598607 S    
C121  H129  1.104939 S    
C3    N3    1.324717 A    
C118  H120  1.113943 S    
C28   C40   1.386807 A    
N41   O33   1.301206 A    
C20   H16   1.073130 S    
H30   C58   1.105277 S    
N37   O26   1.302066 A    
N33   O1    1.302003 A    
O51   C123  1.417930 S    
C58   O22   1.421247 S    
N38   O28   1.302192 A    
C57   C75   1.531722 S    
O49   C121  1.415660 S    
C51   C53   1.580833 S    
C93   N37   1.438953 S    
C51   O51   1.431586 S    
C119  H125  1.108537 S    
N31   Ni6   1.906204 S    
N10   N18   1.359350 A    
N27   Ni8   1.861643 S    
C53   O11   1.431367 S    
C55   N35   1.500626 S    
N39   O30   1.301394 A    
C99   H64   1.109593 S    
C108  H90   1.107856 S    
N1    Ni1   1.896885 S    
N6    Ni3   1.863660 S    
C74   H46   1.096939 S    
N5    N25   1.429806 A    
C19   C43   1.380725 A    
O52   C124  1.401811 S    
C61   C79   1.572712 S    
C104  H78   1.109587 S    
C116  H115  1.114795 S    
N20   Ni4   1.878986 S    
N1    N29   1.429806 A    
C52   C68   1.618952 S    
C63   C67   1.593265 S    
N3    N31   1.429806 A    
C107  H88   1.108599 S    
H34   C74   1.107660 S    
C15   N15   1.329502 A    
C31   C35   1.388626 A    
C59   C67   1.564032 S    
C29   N29   1.346504 A    
N41   O34   1.300016 A    
H51   C87   1.087696 S    
O14   C102  1.416667 S    
N21   Ni1   1.888100 S    
O12   C100  1.421218 S    
C8    C40   1.386180 A    
N4    N32   1.429806 A    
C79   H39   1.107816 S    
C80   H40   1.106308 S    
C73   H45   1.115315 S    
O24   C112  1.411274 S    
C124  H140  1.108939 S    
O46   C118  1.410518 S    
C106  H86   1.109132 S    
C79   H43   1.106196 S    
C83   N43   1.443719 S    
C52   H28   1.106235 S    
C115  H112  1.106065 S    
C15   C47   1.391241 A    
C71   C75   1.569986 S    
H33   C73   1.113459 S    
C100  H66   1.108536 S    
C86   C96   1.471068 S    
C87   C93   1.452867 S    
C50   H26   1.106965 S    
C109  H94   1.109787 S    
N8    Ni4   1.863660 S    
C9    C41   1.410505 A    
C122  H133  1.101190 S    
C9    O41   1.382346 S    
C10   N10   1.310513 A    
C51   H27   1.107235 S    
C49   H25   1.098189 S    
C4    N4    1.327362 A    
N6    N26   1.429806 A    
N22   Ni1   1.885850 S    
C110  H97   1.110684 S    
C105  H81   1.110367 S    
N2    N30   1.429806 A    
C114  H110  1.109208 S    
C96   N40   1.441131 S    
C78   H42   1.096017 S    
C72   C76   1.559192 S    
C111  H100  1.111219 S    
O20   C108  1.410845 S    
C62   O18   1.430833 S    
C109  H95   1.113250 S    
C108  H92   1.106820 S    
C89   C93   1.341284 D    
C42   C69   1.467001 S    
C50   O50   1.431366 S    
C21   C45   1.380437 A    
C103  H77   1.109145 S    
C5    H5    1.076176 S    
N19   Ni4   1.876748 S    
C92   C96   1.351183 D    
C104  H80   1.108747 S    
C23   C47   1.380614 A    
C6    N6    1.334377 A    
C56   O10   1.434820 S    
O16   C104  1.415119 S    
C28   O48   1.380803 S    
C49   C65   1.587686 S    
C94   N38   1.439972 S    
C41   C70   1.463366 S    
C84   C88   1.340617 D    
C98   H62   1.105540 S    
O48   C120  1.411546 S    
N15   N23   1.359439 A    
C101  H69   1.109973 S    
N13   Ni7   1.886389 S    
C46   C66   1.486265 S    
C24   C48   1.385403 A    
C123  H137  1.104229 S    
C105  H83   1.109113 S    
C22   H18   1.081126 S    
C110  H98   1.109096 S    
C64   O14   1.437149 S    
O23   C111  1.404557 S    
C32   H24   1.079609 S    
C106  H84   1.108672 S    
C30   C34   1.385794 A    
C7    H7    1.081446 S    
C56   C72   1.599681 S    
N36   O8    1.300798 A    
C13   C45   1.380080 A    
C26   C38   1.390882 A    
H31   C59   1.119045 S    
C100  H68   1.108107 S    
C3    H3    1.073033 S    
H32   C60   1.109099 S    
C7    C39   1.364796 A    
N40   O31   1.300325 A    
C97   H58   1.109199 S    
C63   C77   1.531822 S    
C44   C71   1.467825 S    
H29   C57   1.119716 S    
C3    C35   1.372307 A    
H54   C90   1.085099 S    
C117  H119  1.104356 S    
N44   O40   1.299910 A    
O15   C103  1.416274 S    
C25   N25   1.357714 A    
C22   C46   1.384492 A    
C120  H127  1.112902 S    
C82   C86   1.346470 D    
C28   N28   1.345613 A    
N32   Ni6   1.894869 S    
H52   C88   1.087615 S    
C114  H108  1.109680 S    
C27   N27   1.349705 A    
C53   N33   1.493550 S    
C76   H48   1.093365 S    
N42   O36   1.300718 A    
N30   Ni5   1.894869 S    
C1    N1    1.315893 A    
N34   O4    1.301907 A    
C117  H117  1.100168 S    
N26   Ni7   1.872796 S    
C19   H15   1.068200 S    
C121  H131  1.105431 S    
O18   C106  1.411722 S    
O9    C97   1.416813 S    
C13   H9    1.065380 S    
C56   N36   1.501710 S    
C63   O19   1.433043 S    
N37   O25   1.301203 A    
H55   C91   1.086493 S    
C58   C66   1.567257 S    
N17   Ni3   1.876748 S    
O47   C119  1.426622 S    
C49   C55   1.559662 S    
C111  H101  1.112328 S    
C17   H13   1.064344 S    
C58   C76   1.545749 S    
C18   N18   1.323849 A    
N3    Ni2   1.896885 S    
C102  H73   1.106938 S    
C121  H130  1.109331 S    
C12   O44   1.381372 S    
C62   C66   1.603089 S    
C112  H103  1.112891 S    
C61   C65   1.589984 S    
C113  H105  1.114389 S    
C40   C84   1.461315 S    
C64   C68   1.600906 S    
C21   N21   1.318893 A    
C118  H122  1.109520 S    
N23   Ni2   1.888100 S    
C34   C89   1.451163 S    
C57   C65   1.565077 S    
C63   O13   1.445342 S    
C13   N13   1.305968 A    
C60   C68   1.561822 S    
C88   C94   1.461289 S    
N38   O27   1.299050 A    
C31   H23   1.080808 S    
N7    Ni4   1.865536 S    
C103  H76   1.108358 S    
C77   H37   1.106324 S    
C116  H114  1.108679 S    
O43   C115  1.416236 S    
C24   N24   1.320247 A    
C61   O17   1.429058 S    
N12   Ni6   1.895378 S    
C5    C37   1.368120 A    
N35   O6    1.302373 A    
O22   C110  1.412101 S    
C72   C80   1.556422 S    
N11   N19   1.359439 A    
N12   N20   1.359350 A    
C69   C73   1.567303 S    
C4    C36   1.383113 A    
C113  H107  1.108640 S    
N4    Ni2   1.898788 S    
C43   C72   1.497417 S    
C90   C94   1.349064 D    
O45   C117  1.412828 S    
C6    H6    1.077174 S    
C15   H11   1.079135 S    
C4    H4    1.078497 S    
C123  H136  1.108175 S    
O41   C113  1.410646 S    
C103  H75   1.110187 S    
C54   O12   1.437291 S    
C50   C66   1.605975 S    
C124  H139  1.102814 S    
C106  H85   1.109867 S    
C45   C65   1.470745 S    
C22   N22   1.324824 A    
N43   O37   1.299074 A    
N33   O2    1.302312 A    
C48   C68   1.458168 S    
C62   O16   1.445095 S    
C29   H21   1.074929 S    
O21   C109  1.410360 S    
C91   C95   1.350181 D    
C50   C56   1.561258 S    
C30   N30   1.345916 A    
C7    N7    1.322915 A    
C8    N8    1.331899 A    
C2    H2    1.081966 S    
N24   Ni2   1.885850 S    
C10   C42   1.375433 A    
N25   Ni7   1.861643 S    
C51   C67   1.599882 S    
C114  H109  1.110907 S    
C16   H12   1.065399 S    
C99   H63   1.110553 S    
C108  H91   1.108857 S    
H53   C89   1.087288 S    
N13   N21   1.359439 A    
C112  H102  1.109125 S    
C59   C73   1.532557 S    
H56   C92   1.087935 S    
C104  H79   1.104089 S    
C116  H116  1.109143 S    
N14   Ni7   1.875110 S    
C98   H60   1.110028 S    
C81   C85   1.352540 D    
N28   Ni8   1.872796 S    
C107  H87   1.109855 S    
O13   C101  1.420482 S    
C117  H118  1.113706 S    
C111  H99   1.107633 S    
N5    Ni3   1.865536 S    
C38   C82   1.468932 S    
C98   H61   1.108256 S    
C55   C71   1.593379 S    
O50   C122  1.404963 S    
C101  H70   1.107254 S    
C53   C69   1.566741 S    
N16   N24   1.359350 A    
N15   Ni8   1.886389 S    
O19   C107  1.409917 S    
C2    N2    1.325631 A    
C19   N19   1.312881 A    
C62   C80   1.547087 S    
C20   N20   1.304812 A    
C1    C33   1.372090 A    
C14   H10   1.066074 S    
C54   N34   1.501818 S    
C60   C74   1.520365 S    
C25   O45   1.382271 S    
C101  H71   1.107669 S    
C18   H14   1.078496 S    
C16   C48   1.359979 A    
C115  H111  1.115595 S    
C69   C77   1.547059 S    
C100  H67   1.112373 S    
C17   C41   1.350164 A    
N40   O32   1.301257 A    
C97   H59   1.102990 S    
C49   O49   1.432403 S    
N9    N17   1.359439 A    
C27   O47   1.374507 S    
C109  H93   1.109139 S    
C17   N17   1.294573 A    
C122  H134  1.108904 S    
C80   H44   1.078468 S    
O10   C98   1.416321 S    
C102  H72   1.109509 S    
N14   N22   1.359350 A    
N2    Ni1   1.898788 S    
C120  H126  1.113877 S    
C64   C78   1.558963 S    
