data_mof_unit_49928.cif
_audit_creation_date              2012-12-10T17:21:19-0500
_audit_creation_method            fapswitch 2.2
_symmetry_space_group_name_H-M    P1
_symmetry_Int_Tables_number       1
_space_group_crystal_system       triclinic
_cell_length_a                    9.616166
_cell_length_b                    10.785059
_cell_length_c                    13.881759
_cell_angle_alpha                 92.491664
_cell_angle_beta                  84.849798
_cell_angle_gamma                 90.039627
_cell_volume                      1432.51453285

loop_
_atom_site_label
_atom_site_type_symbol
_atom_type_description
_atom_site_fract_x
_atom_site_fract_y
_atom_site_fract_z
_atom_type_partial_charge
C1    C     C_R   0.499551 0.737392 0.503450 0.787761
C2    C     C_1   0.463666 0.499967 0.786031 -0.178052
C3    C     C_R   0.329664 0.879312 0.655723 -0.186400
C4    C     C_R   0.246917 0.948099 0.726354 -0.140788
C5    C     C_R   0.246581 0.077005 0.726142 -0.132249
C6    C     C_R   0.328995 0.137953 0.655299 -0.170427
C7    C     C_R   0.411833 0.070151 0.581720 0.099078
C8    C     C_R   0.412074 0.938952 0.581918 0.097915
C9    C     C_R   0.498827 0.871594 0.510183 -0.100892
C10   C     C_R   0.587935 0.932820 0.443101 -0.193193
C11   C     C_R   0.587804 0.060740 0.442936 -0.206802
C12   C     C_R   0.477319 0.500320 0.682824 0.795491
C13   C     C_R   0.498555 0.129485 0.509850 -0.088141
C14   C     C_R   0.872604 0.334606 0.371872 -0.136637
C15   C     C_R   0.952569 0.252980 0.309782 -0.213115
C16   C     C_R   0.095829 0.252632 0.309934 -0.201366
C17   C     C_R   0.160071 0.333940 0.372152 -0.130165
C18   C     C_R   0.082777 0.418385 0.437248 0.206856
C19   C     C_R   0.933327 0.418573 0.437178 0.210529
C20   C     C_R   0.918511 0.577601 0.559737 -0.054464
C21   C     C_R   0.066271 0.577585 0.559705 -0.055609
C22   C     C_R   0.499538 0.262920 0.503012 0.762768
C23   C     C_R   0.522657 0.499617 0.317178 0.799175
C24   C     C_1   0.536181 0.498925 0.213940 -0.173657
C25   C     C_2   0.557438 0.497928 0.023296 -0.161307
C26   C     C_2   0.442149 0.499341 0.976626 -0.163149
C27   C     C_1   0.452905 0.499637 0.872917 0.002741
C28   C     C_1   0.546772 0.498376 0.127026 0.003183
Cu1   Cu    Cu3+1 0.359340 0.500010 0.500010 0.929314
Cu2   Cu    Cu3+1 0.640660 0.499990 0.499990 0.938253
H1    H     H_    0.902698 0.189720 0.260929 0.145639
H2    H     H_    0.270500 0.326397 0.365623 0.195437
H3    H     H_    0.115000 0.641276 0.608692 0.133406
H4    H     H_    0.655648 0.881056 0.389030 0.153456
H5    H     H_    0.330242 0.779669 0.661115 0.138122
H6    H     H_    0.183718 0.130134 0.781959 0.136133
H7    H     H_    0.328839 0.238170 0.660360 0.154817
H8    H     H_    0.655431 0.106346 0.388734 0.137916
H9    H     H_    0.857231 0.641314 0.608741 0.139082
N1    N     N_R   0.852210 0.498790 0.499090 -0.198421
N2    N     N_R   0.148080 0.498710 0.499060 -0.198085
O1    O     O_R   0.381190 0.680360 0.500010 -0.576233
O2    O     O_R   0.618760 0.680340 0.500000 -0.574122
O3    O     O_R   0.364420 0.499990 0.637850 -0.586825
O4    O     O_R   0.601990 0.499960 0.637840 -0.566388
O5    O     O_R   0.381240 0.319660 0.500000 -0.602934
O6    O     O_R   0.618810 0.319640 0.499990 -0.588896
O7    O     O_R   0.398010 0.500040 0.362160 -0.585325
O8    O     O_R   0.635580 0.500010 0.362150 -0.590099
H10   H     H_    0.339225 0.500580 0.016018 0.156696
H11   H     H_    0.763883 0.327733 0.365159 0.190711
H12   H     H_    0.158048 0.189107 0.261177 0.150109
H13   H     H_    0.660354 0.496766 0.983896 0.156400
H14   H     H_    0.184319 0.901186 0.782329 0.132754

loop_
_geom_bond_atom_site_label_1
_geom_bond_atom_site_label_2
_ccdc_geom_bond_type
C11   H8    S    
C23   C24   S    
C15   H1    S    
Cu1   Cu2   S    
C12   O4    A    
Cu1   O1    S    
C9    C10   A    
Cu2   O6    S    
Cu2   O4    S    
C14   H11   S    
C3    H5    S    
Cu1   O5    S    
C2    C12   S    
C22   O6    A    
C6    H7    S    
Cu2   N1    S    
C7    C8    A    
C12   O3    A    
C25   C28   S    
C11   C13   A    
C26   C27   S    
C2    C27   T    
Cu1   N2    S    
C21   N2    A    
C4    C5    A    
C22   O5    A    
Cu2   O8    S    
C25   H13   S    
C13   C22   S    
C17   C18   A    
C6    C7    A    
C26   H10   S    
Cu1   O3    S    
C5    C6    A    
C20   N1    A    
Cu2   O2    S    
C23   O8    A    
C21   H3    S    
C19   N1    A    
Cu1   O7    S    
C15   C16   A    
C5    H6    S    
C24   C28   T    
C1    O1    A    
C7    C13   A    
C1    C9    S    
C20   C21   A    
C3    C8    A    
C10   H4    S    
C18   C19   A    
C10   C11   A    
C18   N2    A    
C20   H9    S    
C17   H2    S    
C14   C15   A    
C16   C17   A    
C23   O7    A    
C4    H14   S    
C25   C26   D    
C14   C19   A    
C1    O2    A    
C3    C4    A    
C16   H12   S    
C8    C9    A    
