data_mof_unit_13712.cif
_audit_creation_date              2013-03-05T16:49:18-0500
_audit_creation_method            fapswitch 2.2
_symmetry_space_group_name_H-M    P1
_symmetry_Int_Tables_number       1
_space_group_crystal_system       triclinic
_cell_length_a                    8.096119
_cell_length_b                    8.935219
_cell_length_c                    16.739466
_cell_angle_alpha                 89.542977
_cell_angle_beta                  94.165983
_cell_angle_gamma                 90.022445
_cell_volume                      1207.70493631

loop_
_atom_site_label
_atom_site_type_symbol
_atom_site_description
_atom_site_fract_x
_atom_site_fract_y
_atom_site_fract_z
_atom_type_partial_charge
O1    O     O_R   0.636850 0.285340 0.500000 -0.614417
O2    O     O_R   0.363150 0.714660 0.500000 -0.614681
O3    O     O_R   0.363100 0.285350 0.500000 -0.611085
O4    O     O_R   0.636900 0.714650 0.500000 -0.611137
C1    C     C_R   0.499962 0.217944 0.500030 0.930039
C2    C     C_R   0.500039 0.782056 0.499972 0.930137
O5    O     O_R   0.652140 0.498630 0.616140 -0.571521
O6    O     O_R   0.347860 0.501370 0.383860 -0.572044
O7    O     O_R   0.378390 0.498650 0.616130 -0.613990
O8    O     O_R   0.621610 0.501350 0.383870 -0.613938
C3    C     C_R   0.520949 0.502987 0.654020 0.919263
C4    C     C_R   0.479035 0.496608 0.345977 0.919497
Zn1   Zn    Zn3+2 0.682780 0.499990 0.500010 1.071843
Zn2   Zn    Zn3+2 0.317220 0.500010 0.499990 1.071680
N1    N     N_1   0.073640 0.500030 0.499990 0.012794
N2    N     N_1   0.926360 0.499970 0.500010 0.012714
C5    C     C_R   0.530169 0.530928 0.739699 -0.219067
C6    C     C_R   0.469641 0.466400 0.260471 -0.221674
C7    C     C_R   0.402122 0.615677 0.769183 -0.268810
C8    C     C_R   0.599181 0.383074 0.231271 -0.268659
C9    C     C_R   0.392362 0.635654 0.851117 0.308826
C10   C     C_R   0.607295 0.359657 0.149515 0.308075
C11   C     C_R   0.510894 0.564561 0.903788 0.171645
C12   C     C_R   0.485614 0.425770 0.096638 0.171726
C13   C     C_R   0.646502 0.489744 0.874395 -0.188800
C14   C     C_R   0.348821 0.498959 0.125855 -0.185835
C15   C     C_R   0.658288 0.473569 0.792508 0.293996
C16   C     C_R   0.338717 0.518629 0.207629 0.295486
N3    N     N_2   0.485597 0.558558 0.985797 -0.098771
N4    N     N_2   0.510134 0.430933 0.014555 -0.099056
C17   C     C_1   0.499964 0.065177 0.500011 -0.141500
C18   C     C_1   0.500037 0.934824 0.499994 -0.141786
H1    H     H_    0.695503 0.336852 0.272595 0.225016
H2    H     H_    0.308080 0.665498 0.727877 0.223297
H3    H     H_    0.740820 0.440330 0.915692 0.226892
H4    H     H_    0.252515 0.544915 0.084416 0.226101
N5    N     N_R   0.744055 0.277107 0.120967 0.231117
O9    O     O_R   0.731107 0.213322 0.051166 -0.310566
O10   O     O_R   0.878918 0.256395 0.166943 -0.319658
N6    N     N_R   0.257138 0.720114 0.879846 0.231792
O11   O     O_R   0.268976 0.778899 0.950924 -0.309830
O12   O     O_R   0.125051 0.747615 0.832965 -0.319669
N7    N     N_R   0.795197 0.392126 0.764811 0.219266
O13   O     O_R   0.829761 0.259504 0.794009 -0.320794
O14   O     O_R   0.906028 0.462521 0.726345 -0.332029
N8    N     N_R   0.200434 0.598460 0.235037 0.220294
O15   O     O_R   0.162994 0.729874 0.204983 -0.320340
O16   O     O_R   0.091253 0.527051 0.274079 -0.331837

loop_
_geom_bond_atom_site_label_1
_geom_bond_atom_site_label_2
_geom_bond_distance
_ccdc_geom_bond_type
C2    C18   1.365014 S    
O7    Zn2   1.970977 S    
N3    N4    1.244645 D    
C13   C15   1.389629 A    
O7    C3    1.276680 A    
C14   C16   1.389774 A    
C17   C18   1.164737 T    
O6    C4    1.276764 A    
N7    O13   1.300985 A    
N6    O12   1.301936 A    
N5    O10   1.301742 A    
O5    C3    1.276715 A    
N7    O14   1.300934 A    
C16   N8    1.432901 S    
O2    C2    1.261129 A    
O3    Zn2   1.953810 S    
O8    C4    1.276938 A    
C13   H3    1.083809 S    
O1    C1    1.261130 A    
C8    H1    1.083759 S    
C11   N3    1.403231 S    
C14   H4    1.083902 S    
N6    O11   1.301566 A    
C7    C9    1.392429 A    
N5    O9    1.301459 A    
C8    C10   1.392361 A    
C6    C8    1.405021 A    
C11   C13   1.406654 A    
C9    C11   1.403718 A    
O2    Zn2   1.953517 S    
C10   C12   1.402986 A    
C1    C17   1.365008 S    
C12   N4    1.402888 S    
O1    Zn1   1.953515 S    
N1    N2    1.192421 T    
C5    C15   1.407124 A    
N8    O16   1.300927 A    
C15   N7    1.433122 S    
O5    Zn1   1.977456 S    
C6    C16   1.407595 A    
O4    C2    1.261333 A    
Zn1   N2    1.972053 S    
C4    C6    1.455219 S    
O4    Zn1   1.953810 S    
Zn2   N1    1.972053 S    
C3    C5    1.454321 S    
O6    Zn2   1.977456 S    
C5    C7    1.404511 A    
N8    O15   1.300947 A    
C10   N5    1.442746 S    
C7    H2    1.083888 S    
C12   C14   1.406327 A    
O3    C1    1.261333 A    
O8    Zn1   1.970977 S    
C9    N6    1.443020 S    
