data_mof_unit_21244.cif
_audit_creation_date              2012-12-10T18:58:47-0500
_audit_creation_method            fapswitch 2.2
_symmetry_space_group_name_H-M    P1
_symmetry_Int_Tables_number       1
_space_group_crystal_system       triclinic
_cell_length_a                    12.927301
_cell_length_b                    10.873198
_cell_length_c                    9.625197
_cell_angle_alpha                 89.109769
_cell_angle_beta                  96.342041
_cell_angle_gamma                 90.283578
_cell_volume                      1344.47919937

loop_
_atom_site_label
_atom_site_type_symbol
_atom_type_description
_atom_site_fract_x
_atom_site_fract_y
_atom_site_fract_z
_atom_type_partial_charge
C1    C     C_R   0.503568 0.262490 0.501514 0.822467
C2    C     C_R   0.020185 0.441844 0.505733 -0.002965
C3    C     C_R   0.981471 0.563915 0.510968 -0.066687
C4    C     C_R   0.878771 0.584735 0.541765 0.336799
C5    C     C_R   0.848198 0.363533 0.533599 -0.351882
C6    C     C_R   0.952954 0.340914 0.522236 0.388064
C7    C     C_R   0.493537 0.061084 0.624977 0.074958
C8    C     C_R   0.503771 0.128630 0.502269 -0.161799
C9    C     C_R   0.498134 0.065957 0.374833 -0.093002
C10   C     C_R   0.493528 0.938048 0.372879 -0.026420
C11   C     C_R   0.491553 0.870720 0.497803 -0.096587
C12   C     C_R   0.300996 0.506689 0.473692 0.899203
C13   C     C_R   0.481259 0.934392 0.620902 0.057075
C14   C     C_3   0.534384 0.911577 0.763758 0.187680
C15   C     C_3   0.566107 0.047354 0.758331 0.121235
C16   C     C_R   0.569900 0.570540 0.081935 0.183950
C17   C     C_R   0.420857 0.444259 0.059227 0.452175
C18   C     C_R   0.421622 0.448471 0.911932 0.014563
C19   C     C_R   0.571112 0.567464 0.935971 0.257454
C20   C     C_3   0.686383 0.559909 0.945233 -0.493439
C21   C     C_3   0.686533 0.567435 0.103020 0.199668
C22   C     C_R   0.498841 0.737383 0.499229 0.944519
C23   C     C_R   0.699034 0.498734 0.526470 0.900186
C24   C     C_R   0.811036 0.483361 0.541333 -0.193484
C25   C     C_R   0.188725 0.525421 0.460608 -0.167114
C26   C     C_R   0.045340 0.662774 0.480183 -0.061050
C27   C     C_R   0.146132 0.644543 0.448497 0.306085
C28   C     C_R   0.125393 0.425017 0.486054 -0.196603
Cu1   Cu    Cu3+1 0.499990 0.499980 0.640670 1.073207
Cu2   Cu    Cu3+1 0.500010 0.500020 0.359330 1.097305
N1    N     N_R   0.500660 0.500930 0.148010 -0.284248
N2    N     N_R   0.500660 0.500890 0.852110 -0.192732
O1    O     O_R   0.500000 0.319640 0.618810 -0.534700
O2    O     O_R   0.500010 0.319680 0.381230 -0.561918
O3    O     O_R   0.348990 0.499960 0.599490 -0.587988
O4    O     O_R   0.349000 0.500000 0.361910 -0.491282
O5    O     O_R   0.499990 0.680320 0.618770 -0.547550
O6    O     O_R   0.500000 0.680360 0.381190 -0.533787
O7    O     O_R   0.651000 0.500000 0.638090 -0.572065
O8    O     O_R   0.651010 0.500040 0.400510 -0.588166
S1    S     S_3+6 0.840411 0.733260 0.595776 0.029847
O9    O     O_2   0.842161 0.826018 0.478867 -0.149959
O10   O     O_2   0.733756 0.732633 0.643061 -0.362787
O11   O     O_3   0.926256 0.778683 0.729317 -0.473099
H1    H     H_    0.919380 0.717385 0.805004 0.358728
H2    H     H_    0.601563 0.848175 0.767829 0.140922
S2    S     S_3+6 0.540477 0.144254 0.898677 0.071570
O12   O     O_2   0.428552 0.182593 0.882189 -0.182759
O13   O     O_2   0.566221 0.079572 0.037005 -0.257638
O14   O     O_3   0.616322 0.269457 0.894632 -0.561262
H3    H     H_    0.688488 0.238097 0.911706 0.336743
H4    H     H_    0.648698 0.057653 0.737011 0.071063
S3    S     S_3+6 0.306977 0.368984 0.110280 0.071577
O15   O     O_2   0.259019 0.288963 0.994186 -0.223501
O16   O     O_2   0.327714 0.288589 0.238033 -0.247056
O17   O     O_3   0.218508 0.476825 0.136176 -0.555435
H5    H     H_    0.155957 0.430263 0.157464 0.382649
H6    H     H_    0.359652 0.407049 0.843762 0.202002
H7    H     H_    0.714636 0.470197 0.911694 0.202244
H8    H     H_    0.720801 0.640088 0.894390 0.265624
H9    H     H_    0.718726 0.484272 0.160602 0.122013
S4    S     S_3+6 0.740352 0.709790 0.169388 0.063249
O18   O     O_2   0.687418 0.745460 0.293651 -0.243288
O19   O     O_2   0.854835 0.693191 0.211919 -0.262196
O20   O     O_3   0.722768 0.822648 0.047545 -0.502682
H10   H     H_    0.748306 0.898334 0.096238 0.405810
H11   H     H_    0.793959 0.287303 0.534616 0.177447
H12   H     H_    0.017417 0.755913 0.477766 0.257289
S5    S     S_3+6 0.994186 0.185637 0.519414 0.076649
O21   O     O_2   0.033782 0.160987 0.381499 -0.189019
O22   O     O_2   0.080670 0.163000 0.634650 -0.225769
O23   O     O_3   0.895318 0.088294 0.540261 -0.447932
H13   H     H_    0.886505 0.090693 0.641131 0.364061
S6    S     S_3+6 0.216268 0.776169 0.403695 0.055638
O24   O     O_2   0.142939 0.875139 0.343475 -0.184057
O25   O     O_2   0.275277 0.823102 0.535146 -0.234492
O26   O     O_3   0.298426 0.743460 0.286006 -0.522218
H14   H     H_    0.253143 0.726007 0.198657 0.384250
H15   H     H_    0.160271 0.334674 0.492596 0.223943
H16   H     H_    0.499938 0.115398 0.276808 0.238097
H17   H     H_    0.495267 0.892149 0.274629 0.242877
S7    S     S_3+6 0.438130 0.863724 0.876919 0.114339
O27   O     O_2   0.490489 0.841946 0.022094 -0.263933
O28   O     O_2   0.354059 0.958145 0.879732 -0.139287
O29   O     O_3   0.380766 0.732325 0.819644 -0.504503
H18   H     H_    0.333157 0.709873 0.889930 0.363116

loop_
_geom_bond_atom_site_label_1
_geom_bond_atom_site_label_2
_ccdc_geom_bond_type
C6    S5    S    
C16   C21   S    
C1    C8    S    
S1    O9    D    
C19   C20   S    
C15   S2    S    
C5    H11   S    
C1    O1    A    
C7    C8    A    
C14   H2    S    
S3    O15   D    
C16   N1    A    
C26   C27   A    
S4    O18   D    
S6    O25   D    
Cu1   N2    S    
C5    C6    A    
C4    C24   A    
C4    S1    S    
C23   O8    A    
C22   O6    A    
Cu1   O1    S    
O17   H5    S    
Cu2   O6    S    
S5    O22   D    
C28   H15   S    
S4    O19   D    
C18   H6    S    
C8    C9    A    
S6    O26   S    
C23   C24   S    
C12   O4    A    
C27   S6    S    
C9    C10   A    
C21   H9    S    
O26   H14   S    
C7    C15   S    
C13   C14   S    
S1    O10   D    
C2    C6    A    
C19   N2    A    
C1    O2    A    
O14   H3    S    
S2    O14   S    
S3    O16   D    
S6    O24   D    
Cu2   O2    S    
S2    O13   D    
O29   H18   S    
C22   O5    A    
C20   H7    S    
C9    H16   S    
S5    O23   S    
Cu1   Cu2   S    
S2    O12   D    
Cu1   O7    S    
C17   C18   A    
Cu2   O8    S    
C15   H4    S    
C12   O3    A    
C21   S4    S    
O20   H10   S    
S7    O28   D    
C17   N1    A    
S1    O11   S    
C18   N2    A    
C14   S7    S    
C3    C4    A    
C17   S3    S    
O11   H1    S    
S3    O17   S    
C10   H17   S    
S4    O20   S    
C3    C26   A    
O23   H13   S    
C25   C27   A    
S7    O29   S    
Cu1   O3    S    
C11   C22   S    
Cu2   O4    S    
C12   C25   S    
C26   H12   S    
C2    C3    A    
C11   C13   A    
Cu2   N1    S    
C5    C24   A    
C16   C19   A    
C23   O7    A    
S5    O21   D    
C10   C11   A    
C25   C28   A    
C7    C13   A    
C20   C21   S    
S7    O27   D    
Cu1   O5    S    
C14   C15   S    
C2    C28   A    
C20   H8    S    
