data_mof_unit_15065.cif
_audit_creation_date              2012-12-11T15:26:59-0500
_audit_creation_method            fapswitch 2.2
_symmetry_space_group_name_H-M    P1
_symmetry_Int_Tables_number       1
_space_group_crystal_system       triclinic
_cell_length_a                    13.948551
_cell_length_b                    13.948541
_cell_length_c                    27.417145
_cell_angle_alpha                 89.999717
_cell_angle_beta                  90.000924
_cell_angle_gamma                 120.00051
_cell_volume                      4619.64397311

loop_
_atom_site_label
_atom_site_type_symbol
_atom_type_description
_atom_site_fract_x
_atom_site_fract_y
_atom_site_fract_z
_atom_type_partial_charge
C1    C     C_R   0.234172 0.787322 0.568628 0.541054
C2    C     C_R   0.212678 0.446849 0.568627 0.541053
C3    C     C_R   0.553151 0.765829 0.568628 0.541053
C4    C     C_3   0.655342 0.733492 0.788714 -0.213207
C5    C     C_3   0.266434 0.922071 0.788694 -0.213194
C6    C     C_3   0.077589 0.343880 0.788654 -0.213192
C7    C     C_3   0.634358 0.720875 0.732992 -0.212713
C8    C     C_3   0.279051 0.913707 0.732973 -0.212713
C9    C     C_3   0.085946 0.364846 0.732931 -0.212722
C10   C     C_1   0.711754 0.864159 0.857961 -0.078957
C11   C     C_1   0.135848 0.847600 0.857962 -0.078956
C12   C     C_1   0.152384 0.288229 0.857959 -0.078956
C13   C     C_1   0.631775 0.816942 0.657767 -0.075793
C14   C     C_1   0.183072 0.814835 0.657769 -0.075795
C15   C     C_1   0.185159 0.368217 0.657764 -0.075793
C16   C     C_1   0.602803 0.797917 0.615831 -0.017819
C17   C     C_1   0.202090 0.804885 0.615833 -0.017819
C18   C     C_1   0.195113 0.397193 0.615829 -0.017816
C19   C     C_R   0.106767 0.219752 0.948771 0.549824
C20   C     C_R   0.780245 0.887015 0.948772 0.549818
C21   C     C_R   0.112985 0.893230 0.948772 0.549816
C22   C     C_R   0.614425 0.807291 0.385612 0.025141
C23   C     C_R   0.192716 0.807156 0.385614 0.025126
C24   C     C_R   0.192808 0.385495 0.385631 0.025132
C25   C     C_R   0.608551 0.891912 0.360421 -0.126055
C26   C     C_R   0.107991 0.716697 0.360448 -0.126055
C27   C     C_R   0.283244 0.391202 0.360456 -0.126062
C28   C     C_R   0.637272 0.910721 0.311552 -0.123334
C29   C     C_R   0.089214 0.726571 0.311570 -0.123310
C30   C     C_R   0.273290 0.362396 0.311596 -0.123300
C31   C     C_R   0.674439 0.846815 0.287484 0.036525
C32   C     C_R   0.153245 0.827579 0.287469 0.036545
C33   C     C_R   0.172237 0.325318 0.287520 0.036527
C34   C     C_R   0.233203 0.787550 0.431571 0.542790
C35   C     C_R   0.212449 0.445651 0.431572 0.542795
C36   C     C_R   0.554339 0.766794 0.431570 0.542792
C37   C     C_R   0.691341 0.770308 0.313936 -0.120307
C38   C     C_R   0.229845 0.920978 0.313901 -0.120317
C39   C     C_R   0.078872 0.308570 0.313963 -0.120321
C40   C     C_R   0.660832 0.750114 0.362743 -0.127579
C41   C     C_R   0.250013 0.910695 0.362714 -0.127577
C42   C     C_R   0.089228 0.339158 0.362760 -0.127571
C43   C     C_R   0.655710 0.759455 0.206398 -0.120197
C44   C     C_R   0.240594 0.896164 0.206372 -0.120206
C45   C     C_R   0.103695 0.344159 0.206429 -0.120187
C46   C     C_R   0.676613 0.767950 0.156607 -0.132642
C47   C     C_R   0.232080 0.908609 0.156586 -0.132663
C48   C     C_R   0.091338 0.323332 0.156631 -0.132650
C49   C     C_R   0.754877 0.967086 0.161607 -0.126279
C50   C     C_R   0.032948 0.787734 0.161594 -0.126286
C51   C     C_R   0.212078 0.244921 0.161635 -0.126263
C52   C     C_R   0.735910 0.958832 0.211488 -0.121859
C53   C     C_R   0.041217 0.776999 0.211472 -0.121844
C54   C     C_R   0.222724 0.263796 0.211524 -0.121861
C55   C     C_R   0.689130 0.855306 0.234438 0.035911
C56   C     C_R   0.144750 0.833736 0.234420 0.035925
C57   C     C_R   0.166030 0.310627 0.234474 0.035906
C58   C     C_R   0.729612 0.872187 0.134329 0.022603
C59   C     C_R   0.127835 0.857391 0.134316 0.022593
C60   C     C_R   0.142540 0.270306 0.134349 0.022604
C61   C     C_R   0.106574 0.221487 0.086186 0.546343
C62   C     C_R   0.778507 0.885080 0.086181 0.546378
C63   C     C_R   0.114923 0.893424 0.086179 0.546385
C64   C     C_3   0.575872 0.864640 0.735712 -0.213211
C65   C     C_3   0.135684 0.711327 0.735734 -0.213210
C66   C     C_3   0.288520 0.424667 0.735759 -0.213212
C67   C     C_3   0.775694 0.921917 0.720990 -0.216214
C68   C     C_3   0.077879 0.853469 0.720993 -0.216223
C69   C     C_3   0.146995 0.224524 0.720998 -0.216207
C70   C     C_3   0.796614 0.934671 0.776856 -0.212963
C71   C     C_3   0.065131 0.861645 0.776858 -0.212987
C72   C     C_3   0.138794 0.203593 0.776864 -0.212966
C73   C     C_1   0.737096 0.873644 0.900383 -0.026539
C74   C     C_1   0.126358 0.863452 0.900383 -0.026539
C75   C     C_1   0.136536 0.262893 0.900381 -0.026537
C76   C     C_3   0.654638 0.831388 0.710394 0.072611
C77   C     C_3   0.168627 0.823253 0.710395 0.072607
C78   C     C_3   0.176738 0.345351 0.710391 0.072615
C79   C     C_3   0.596788 0.877180 0.791552 -0.216302
C80   C     C_3   0.123136 0.719704 0.791572 -0.216303
C81   C     C_3   0.280145 0.403732 0.791596 -0.216300
C82   C     C_3   0.690206 0.852804 0.805209 0.074059
C83   C     C_3   0.147208 0.837407 0.805211 0.074059
C84   C     C_3   0.162577 0.309778 0.805207 0.074064
Cr1   Cr    Cr6+3 0.164410 0.584450 0.499910 1.016598
Cr2   Cr    Cr6+3 0.415550 0.579960 0.499910 1.016610
Cr3   Cr    Cr6+3 0.420040 0.835590 0.499910 1.016599
Cr4   Cr    Cr6+3 0.156760 0.076070 0.017830 1.018568
Cr5   Cr    Cr6+3 0.923930 0.080690 0.017830 1.018579
Cr6   Cr    Cr6+3 0.919310 0.843240 0.017830 1.018574
H1    H     H_    0.619979 0.962683 0.802935 0.110910
H2    H     H_    0.037699 0.657242 0.802968 0.110905
H3    H     H_    0.342842 0.381093 0.803013 0.110890
H4    H     H_    0.488075 0.800764 0.728644 0.106774
H5    H     H_    0.199724 0.687630 0.728667 0.106794
H6    H     H_    0.311875 0.512314 0.728692 0.106751
H7    H     H_    0.519214 0.819166 0.811159 0.107304
H8    H     H_    0.181308 0.700364 0.811180 0.107312
H9    H     H_    0.299169 0.481155 0.811201 0.107288
H10   H     H_    0.721358 0.713933 0.798093 0.111507
H11   H     H_    0.285773 0.007583 0.798061 0.111488
H12   H     H_    0.992169 0.277476 0.798005 0.111461
H13   H     H_    0.573425 0.937756 0.377176 0.132456
H14   H     H_    0.062035 0.635771 0.377232 0.132416
H15   H     H_    0.364207 0.426267 0.377217 0.132420
H16   H     H_    0.615928 0.678265 0.223146 0.103707
H17   H     H_    0.321792 0.937557 0.223113 0.103677
H18   H     H_    0.062340 0.383993 0.223177 0.103706
H19   H     H_    0.656415 0.693943 0.135984 0.116622
H20   H     H_    0.306080 0.962431 0.135962 0.116620
H21   H     H_    0.037605 0.343622 0.136001 0.116605
H22   H     H_    0.623544 0.970243 0.291992 0.099595
H23   H     H_    0.029606 0.653329 0.292031 0.099565
H24   H     H_    0.346506 0.376009 0.292042 0.099596
H25   H     H_    0.762520 0.033928 0.232330 0.101286
H26   H     H_    0.966121 0.728514 0.232313 0.101253
H27   H     H_    0.271136 0.237100 0.232367 0.101293
H28   H     H_    0.796881 0.048630 0.145152 0.129580
H29   H     H_    0.951400 0.748201 0.145143 0.129564
H30   H     H_    0.251593 0.202899 0.145174 0.129611
H31   H     H_    0.723708 0.722847 0.296362 0.101325
H32   H     H_    0.277396 0.000769 0.296308 0.101273
H33   H     H_    0.999058 0.276286 0.296386 0.101308
H34   H     H_    0.588818 0.944113 0.720342 0.112442
H35   H     H_    0.056280 0.644645 0.720379 0.112424
H36   H     H_    0.355451 0.412313 0.720427 0.112395
H37   H     H_    0.667671 0.685624 0.381666 0.126087
H38   H     H_    0.314582 0.982002 0.381617 0.126107
H39   H     H_    0.017945 0.332451 0.381670 0.126125
H40   H     H_    0.833995 0.899677 0.703524 0.108788
H41   H     H_    0.099895 0.933936 0.703510 0.108789
H42   H     H_    0.066645 0.165834 0.703489 0.108759
H43   H     H_    0.792408 0.002356 0.705219 0.111087
H44   H     H_    0.997500 0.789577 0.705238 0.111098
H45   H     H_    0.211141 0.208380 0.705274 0.111131
H46   H     H_    0.823483 0.021333 0.787837 0.109633
H47   H     H_    0.978527 0.801694 0.787856 0.109642
H48   H     H_    0.198965 0.177250 0.787892 0.109670
H49   H     H_    0.865338 0.919024 0.786049 0.105881
H50   H     H_    0.080569 0.945952 0.786036 0.105875
H51   H     H_    0.054587 0.134503 0.786016 0.105850
H52   H     H_    0.690149 0.695094 0.715713 0.112424
H53   H     H_    0.304603 0.995218 0.715681 0.112420
H54   H     H_    0.004531 0.308634 0.715620 0.112399
H55   H     H_    0.578805 0.672842 0.808263 0.109657
H56   H     H_    0.327234 0.906402 0.808241 0.109662
H57   H     H_    0.092930 0.420249 0.808192 0.109699
O1    O     O_R   0.137310 0.468260 0.552980 -0.510246
O2    O     O_R   0.531740 0.669050 0.552980 -0.510245
O3    O     O_R   0.330950 0.862690 0.552980 -0.510242
O4    O     O_R   0.180530 0.983530 0.965090 -0.512209
O5    O     O_R   0.016470 0.197000 0.965090 -0.512206
O6    O     O_R   0.803000 0.819470 0.965090 -0.512209
O7    O     O_R   0.174120 0.688790 0.549730 -0.498826
O8    O     O_R   0.311210 0.485330 0.549730 -0.498826
O9    O     O_R   0.514670 0.825880 0.549730 -0.498822
O10   O     O_R   0.139940 0.470480 0.446230 -0.521916
O11   O     O_R   0.529520 0.669460 0.446230 -0.521897
O12   O     O_R   0.330540 0.860060 0.446230 -0.521930
O13   O     O_R   0.176560 0.690850 0.450770 -0.506201
O14   O     O_R   0.309150 0.485710 0.450770 -0.506198
O15   O     O_R   0.514290 0.823440 0.450770 -0.506218
O16   O     O_3   0.333333 0.666667 0.499990 -0.263991
O17   O     O_3   0.000000 0.000000 0.017910 -0.215920
O18   O     O_R   0.149710 0.171070 0.967700 -0.496741
O19   O     O_R   0.828930 0.978640 0.967700 -0.496746
O20   O     O_R   0.021360 0.850290 0.967700 -0.496746
O21   O     O_R   0.178510 0.985930 0.071830 -0.519566
O22   O     O_R   0.014070 0.192580 0.071830 -0.519524
O23   O     O_R   0.807420 0.821490 0.071830 -0.519546
O24   O     O_R   0.147830 0.173300 0.066650 -0.501037
O25   O     O_R   0.826700 0.974530 0.066650 -0.501033
O26   O     O_R   0.025470 0.852170 0.066650 -0.501029
H58   H     H_    0.547686 0.654193 0.725893 0.109599
H59   H     H_    0.345889 0.893946 0.725870 0.109606
H60   H     H_    0.105357 0.451332 0.725818 0.109655

loop_
_geom_bond_atom_site_label_1
_geom_bond_atom_site_label_2
_ccdc_geom_bond_type
C58   C62   S    
C15   C18   T    
Cr3   O16   S    
C2    O8    A    
Cr6   O20   S    
C2    C18   S    
C53   H26   S    
C24   C42   A    
C71   H50   S    
C41   H38   S    
Cr1   O1    S    
C6    C9    S    
C8    H59   S    
C71   H47   S    
C28   H22   S    
C25   C28   A    
Cr6   O26   S    
C45   C57   A    
C35   O14   A    
C50   C59   A    
C21   O4    A    
C52   H25   S    
C67   H43   S    
C37   C40   A    
C80   C83   S    
C5    C83   S    
C10   C73   T    
C14   C77   S    
C15   C78   S    
C27   H15   S    
C2    O1    A    
C7    H58   S    
C39   H33   S    
C12   C84   S    
C9    H60   S    
C23   C26   A    
C45   H18   S    
C26   H14   S    
Cr5   O5    S    
Cr3   O12   S    
Cr4   O21   S    
Cr3   O3    S    
C24   C27   A    
C48   C60   A    
C61   O24   A    
Cr1   O13   S    
C32   C38   A    
C42   H39   S    
Cr5   O17   S    
C79   H1    S    
C44   C47   A    
C36   O11   A    
Cr1   O7    S    
C34   O12   A    
C49   C52   A    
C72   H48   S    
C70   H49   S    
C69   H45   S    
Cr4   O24   S    
C46   C58   A    
C27   C30   A    
C70   H46   S    
C14   C17   T    
Cr6   O23   S    
C69   C78   S    
Cr1   O10   S    
C4    C7    S    
C62   O23   A    
C9    H54   S    
C63   O26   A    
C39   C42   A    
C71   C83   S    
C72   H51   S    
C66   C78   S    
C5    H11   S    
C3    O2    A    
C24   C35   S    
C65   C77   S    
C20   O6    A    
C50   H29   S    
C50   C53   A    
C6    C84   S    
C38   C41   A    
Cr2   O2    S    
C25   H13   S    
C81   H9    S    
C11   C83   S    
C64   H34   S    
C40   H37   S    
C47   C59   A    
C21   C74   S    
C22   C25   A    
C49   C58   A    
C66   H36   S    
C72   C84   S    
Cr6   O17   S    
C60   C61   S    
C43   H16   S    
C65   H35   S    
C80   H2    S    
C68   H41   S    
Cr2   O8    S    
C35   O10   A    
C5    C8    S    
C81   H3    S    
C44   C56   A    
C49   H28   S    
C13   C76   S    
C23   C34   S    
C22   C40   A    
C44   H17   S    
C51   H30   S    
C64   C76   S    
C1    O3    A    
Cr2   O14   S    
C33   C39   A    
Cr6   O6    S    
Cr2   O11   S    
C38   H32   S    
C37   H31   S    
C43   C55   A    
C63   O21   A    
C4    H10   S    
C8    C77   S    
Cr1   O16   S    
C64   C79   S    
C12   C75   T    
C67   H40   S    
C61   O22   A    
C69   H42   S    
C81   C84   S    
C22   C36   S    
C66   H6    S    
C30   H24   S    
C45   C48   A    
C68   C77   S    
C29   H23   S    
C33   C57   S    
C5    H56   S    
C30   C33   A    
C80   H8    S    
C59   C63   S    
C79   H7    S    
C28   C31   A    
Cr5   O25   S    
C69   C72   S    
C11   C74   T    
C21   O20   A    
C79   C82   S    
C62   O25   A    
C52   C55   A    
C7    C76   S    
Cr2   O16   S    
C29   C32   A    
C47   H20   S    
C20   O19   A    
C48   H21   S    
C1    C17   S    
C23   C41   A    
C67   C70   S    
C51   C54   A    
C51   C60   A    
C19   C75   S    
C13   C16   T    
Cr5   O22   S    
Cr4   O17   S    
C66   C81   S    
C6    H57   S    
C36   O15   A    
C68   C71   S    
C4    H55   S    
C68   H44   S    
C3    O9    A    
Cr4   O4    S    
C10   C82   S    
C20   C73   S    
C8    H53   S    
C9    C78   S    
C6    H12   S    
C1    O7    A    
C70   C82   S    
C43   C46   A    
C53   C56   A    
Cr5   O19   S    
C64   H4    S    
C31   C37   A    
C65   H5    S    
Cr3   O15   S    
C4    C82   S    
C26   C29   A    
Cr4   O18   S    
C54   H27   S    
C46   H19   S    
C65   C80   S    
Cr3   O9    S    
C67   C76   S    
C19   O18   A    
C31   C55   S    
C32   C56   S    
C7    H52   S    
C3    C16   S    
C34   O13   A    
C54   C57   A    
C19   O5    A    
