data_mof_unit_38087.cif
_audit_creation_date              2012-12-10T17:58:14-0500
_audit_creation_method            fapswitch 2.2
_symmetry_space_group_name_H-M    P1
_symmetry_Int_Tables_number       1
_space_group_crystal_system       triclinic
_cell_length_a                    18.318668
_cell_length_b                    26.005765
_cell_length_c                    18.267548
_cell_angle_alpha                 89.643272
_cell_angle_beta                  90.023163
_cell_angle_gamma                 89.89364
_cell_volume                      8702.31058699

loop_
_atom_site_label
_atom_site_type_symbol
_atom_type_description
_atom_site_fract_x
_atom_site_fract_y
_atom_site_fract_z
_atom_type_partial_charge
C1    C     C_R   0.640241 0.749749 0.360178 0.980168
C2    C     C_R   0.860410 0.749432 0.140348 0.959301
C3    C     C_R   0.723735 0.702131 0.278167 0.370584
C4    C     C_R   0.721401 0.703009 0.725025 0.346162
C5    C     C_R   0.279249 0.296902 0.274389 0.357128
C6    C     C_R   0.324136 0.749331 0.229199 0.351751
C7    C     C_R   0.675903 0.251235 0.769889 0.352797
C8    C     C_R   0.221413 0.796361 0.775595 0.365642
C9    C     C_R   0.781697 0.202401 0.228071 0.376777
C10   C     C_R   0.774311 0.796096 0.219581 0.363750
C11   C     C_R   0.223733 0.202131 0.778165 0.370585
C12   C     C_R   0.221404 0.203009 0.225022 0.346211
C13   C     C_R   0.859881 0.249800 0.140131 0.982333
C14   C     C_R   0.779255 0.796902 0.774383 0.357135
C15   C     C_R   0.824136 0.249348 0.729199 0.351737
C16   C     C_R   0.175904 0.751254 0.269888 0.352575
C17   C     C_3   0.565800 0.574343 0.777424 -0.281958
C18   C     C_3   0.442415 0.411343 0.227893 -0.208174
C19   C     C_3   0.467698 0.572750 0.206663 -0.323961
C20   C     C_3   0.690378 0.404277 0.716857 -0.324049
C21   C     C_3   0.065792 0.074209 0.277506 -0.281603
C22   C     C_3   0.942384 0.911360 0.727884 -0.208182
C23   C     C_3   0.967673 0.072763 0.706679 -0.323970
C24   C     C_R   0.139612 0.749495 0.859549 0.960194
C25   C     C_3   0.190097 0.904115 0.216964 -0.324093
C26   C     C_3   0.245489 0.862538 0.641474 -0.171770
C27   C     C_3   0.735511 0.133765 0.361321 -0.186030
C28   C     C_3   0.743937 0.866729 0.346862 -0.181107
C29   C     C_3   0.274826 0.130671 0.650477 -0.217505
C30   C     C_3   0.249429 0.136051 0.358381 -0.161321
C31   C     C_3   0.751895 0.862514 0.639012 -0.186179
C32   C     C_3   0.795452 0.305749 0.580853 -0.291323
C33   C     C_3   0.187625 0.806286 0.414494 -0.177427
C34   C     C_3   0.745500 0.362543 0.141484 -0.171767
C35   C     C_R   0.139988 0.750053 0.139883 0.924503
C36   C     C_3   0.235525 0.633774 0.861341 -0.185981
C37   C     C_3   0.243939 0.366728 0.846865 -0.181068
C38   C     C_3   0.774829 0.630670 0.150481 -0.217506
C39   C     C_3   0.749407 0.636061 0.858397 -0.161341
C40   C     C_3   0.251882 0.362523 0.139028 -0.186158
C41   C     C_3   0.295464 0.805698 0.080817 -0.291228
C42   C     C_3   0.687603 0.306236 0.914521 -0.177269
C43   C     C_3   0.736820 0.359372 0.359443 -0.277749
C44   C     C_3   0.366026 0.637072 0.739335 -0.209992
C45   C     C_3   0.251101 0.354434 0.629826 -0.258315
C46   C     C_R   0.860028 0.250319 0.859805 0.973952
C47   C     C_3   0.646754 0.632373 0.276803 -0.218701
C48   C     C_3   0.740990 0.640132 0.641912 -0.208720
C49   C     C_3   0.262980 0.360698 0.356941 -0.271835
C50   C     C_3   0.418852 0.702086 0.185555 -0.212260
C51   C     C_3   0.582393 0.198603 0.801303 -0.218599
C52   C     C_3   0.236811 0.859376 0.859434 -0.277719
C53   C     C_3   0.866021 0.137071 0.239305 -0.209989
C54   C     C_3   0.751096 0.854435 0.129827 -0.258325
C55   C     C_3   0.146749 0.132375 0.776797 -0.218694
C56   C     C_3   0.241003 0.140130 0.141914 -0.208600
C57   C     C_R   0.860164 0.749861 0.859753 0.957717
C58   C     C_3   0.762995 0.860704 0.856926 -0.271841
C59   C     C_3   0.918866 0.202126 0.685536 -0.212314
C60   C     C_3   0.082372 0.698646 0.301320 -0.218475
C61   C     C_R   0.139925 0.250089 0.140180 0.951740
C62   C     C_R   0.696386 0.249339 0.304223 -0.374959
C63   C     C_R   0.304200 0.749541 0.696857 -0.382840
C64   C     C_R   0.303684 0.249135 0.695843 -0.375384
C65   C     C_R   0.360410 0.249432 0.640348 0.959286
C66   C     C_R   0.696385 0.749412 0.303884 -0.378054
C67   C     C_R   0.696492 0.750027 0.695881 -0.373814
C68   C     C_R   0.303774 0.249905 0.303901 -0.368485
C69   C     C_R   0.303859 0.751234 0.303428 -0.370104
C70   C     C_R   0.696170 0.250609 0.695752 -0.376235
C71   C     C_R   0.196387 0.749340 0.804223 -0.374968
C72   C     C_R   0.804199 0.249540 0.196857 -0.382843
C73   C     C_R   0.803684 0.749135 0.195843 -0.375390
C74   C     C_R   0.196385 0.249412 0.803883 -0.378056
C75   C     C_R   0.196490 0.250027 0.195883 -0.373816
C76   C     C_R   0.359882 0.749801 0.640131 0.982333
C77   C     C_R   0.803774 0.749905 0.803901 -0.368509
C78   C     C_R   0.803859 0.251233 0.803429 -0.370100
C79   C     C_R   0.196170 0.750609 0.195751 -0.376247
C80   C     C_R   0.433735 0.973407 0.502138 -0.180312
C81   C     C_R   0.566250 0.026602 0.497811 -0.183935
C82   C     C_R   0.566207 0.973226 0.497861 -0.176974
C83   C     C_R   0.433778 0.026784 0.502107 -0.179113
C84   C     C_R   0.933735 0.473407 0.002138 -0.180333
C85   C     C_R   0.066250 0.526602 0.997811 -0.183931
C86   C     C_R   0.066207 0.473226 0.997861 -0.176975
C87   C     C_R   0.639612 0.249495 0.359549 0.960211
C88   C     C_R   0.933778 0.526784 0.002107 -0.179118
C89   C     C_R   0.500041 0.053688 0.499960 0.012595
C90   C     C_R   0.499947 0.946319 0.500012 0.010380
C91   C     C_R   0.000041 0.553688 0.999960 0.012593
C92   C     C_R   0.999947 0.446319 0.000012 0.010381
C93   C     C_R   0.499958 0.890210 0.500019 0.807975
C94   C     C_R   0.500039 0.109793 0.499976 0.809146
C95   C     C_R   0.999958 0.390210 0.000019 0.807971
C96   C     C_R   0.000039 0.609793 0.999976 0.809142
C97   C     C_R   0.501039 0.609521 0.500452 0.811157
C98   C     C_R   0.639988 0.250053 0.639883 0.924544
C99   C     C_R   0.507799 0.389722 0.499177 0.797579
C100  C     C_R   0.001039 0.109521 0.000452 0.811139
C101  C     C_R   0.007798 0.889722 0.999177 0.797588
C102  C     C_R   0.450787 0.546906 0.376330 -0.332202
C103  C     C_R   0.588446 0.445318 0.614483 -0.375874
C104  C     C_R   0.574415 0.551060 0.622319 -0.406325
C105  C     C_R   0.516299 0.451643 0.360355 -0.311852
C106  C     C_R   0.950771 0.046907 0.876338 -0.332191
C107  C     C_R   0.088459 0.945320 0.114477 -0.376035
C108  C     C_R   0.074437 0.051063 0.122302 -0.406211
C109  C     C_R   0.360028 0.750320 0.359805 0.973919
C110  C     C_R   0.016284 0.951645 0.860354 -0.311838
C111  C     C_R   0.451012 0.523314 0.307660 0.488175
C112  C     C_R   0.613588 0.470782 0.677323 0.519065
C113  C     C_R   0.602306 0.523579 0.682489 0.504715
C114  C     C_R   0.485252 0.475662 0.299317 0.448122
C115  C     C_R   0.950992 0.023317 0.807667 0.488168
C116  C     C_R   0.113611 0.970786 0.177318 0.519003
C117  C     C_R   0.102343 0.023586 0.182464 0.504665
C118  C     C_R   0.985234 0.975667 0.799319 0.448112
C119  C     C_R   0.510514 0.473416 0.430883 0.002726
C120  C     C_R   0.360164 0.249861 0.359752 0.957739
C121  C     C_R   0.544193 0.526012 0.560410 0.019398
C122  C     C_R   0.550800 0.471771 0.557805 0.026430
C123  C     C_R   0.489225 0.525006 0.436576 -0.006558
C124  C     C_R   0.010504 0.973416 0.930883 0.002716
C125  C     C_R   0.044201 0.026013 0.060404 0.019328
C126  C     C_R   0.050806 0.971772 0.057801 0.026546
C127  C     C_R   0.989215 0.025006 0.936579 -0.006556
C128  C     C_R   0.525081 0.445322 0.495736 -0.103057
C129  C     C_R   0.508611 0.552745 0.500871 -0.082447
C130  C     C_R   0.025079 0.945323 0.995735 -0.103060
C131  C     C_R   0.639925 0.750089 0.640180 0.951732
C132  C     C_R   0.008609 0.052746 0.000870 -0.082454
C133  C     C_R   0.272888 0.796395 0.719143 0.350413
C134  C     C_R   0.726672 0.202275 0.281219 0.379136
C135  C     C_R   0.723023 0.796395 0.276325 0.352532
C136  C     C_R   0.278148 0.202021 0.724289 0.380619
C137  C     C_R   0.273297 0.202997 0.281261 0.348975
C138  C     C_R   0.727332 0.796915 0.718235 0.357538
C139  C     C_R   0.770010 0.251649 0.675142 0.372769
C140  C     C_R   0.229891 0.754692 0.323808 0.344038
C141  C     C_R   0.772892 0.296395 0.219147 0.350420
C142  C     C_R   0.140241 0.249749 0.860178 0.980167
C143  C     C_R   0.226679 0.702276 0.781225 0.379110
C144  C     C_R   0.223024 0.296395 0.776326 0.352525
C145  C     C_R   0.778150 0.702021 0.224290 0.380612
C146  C     C_R   0.773291 0.702997 0.781267 0.349028
C147  C     C_R   0.227325 0.296916 0.218242 0.357530
C148  C     C_R   0.270011 0.751630 0.175141 0.372815
C149  C     C_R   0.729890 0.254671 0.823811 0.344017
C150  C     C_R   0.721417 0.296360 0.275599 0.365643
C151  C     C_R   0.281704 0.702402 0.728077 0.376806
C152  C     C_R   0.274312 0.296096 0.719582 0.363758
H1    H     H_    0.419852 0.582093 0.381055 0.205222
H2    H     H_    0.618061 0.046578 0.496012 0.152335
H3    H     H_    0.605191 0.621116 0.318029 0.198559
H4    H     H_    0.797810 0.633799 0.661652 0.186646
H5    H     H_    0.740605 0.667733 0.595096 0.116541
H6    H     H_    0.720546 0.602782 0.621459 0.182202
H7    H     H_    0.262601 0.333024 0.403685 0.122369
H8    H     H_    0.206256 0.368510 0.338015 0.189663
H9    H     H_    0.285918 0.397413 0.377191 0.182109
H10   H     H_    0.397579 0.694322 0.129774 0.187372
H11   H     H_    0.401313 0.671146 0.224084 0.168728
H12   H     H_    0.479332 0.701012 0.182720 0.156028
H13   H     H_    0.618009 0.953110 0.496128 0.151058
H14   H     H_    0.613684 0.180845 0.847210 0.182364
H15   H     H_    0.589034 0.175484 0.750637 0.128693
H16   H     H_    0.523754 0.197683 0.816381 0.188262
H17   H     H_    0.294022 0.866641 0.841723 0.185977
H18   H     H_    0.235811 0.831442 0.905831 0.119781
H19   H     H_    0.214109 0.896214 0.879704 0.180064
H20   H     H_    0.850446 0.100952 0.267594 0.150112
H21   H     H_    0.889272 0.164305 0.280149 0.108541
H22   H     H_    0.910189 0.126881 0.200425 0.198433
H23   H     H_    0.770004 0.891035 0.104823 0.185256
H24   H     H_    0.381978 0.046903 0.503849 0.147382
H25   H     H_    0.693876 0.860334 0.148500 0.186138
H26   H     H_    0.753159 0.824464 0.086611 0.115701
H27   H     H_    0.166310 0.096378 0.751271 0.156722
H28   H     H_    0.118958 0.156521 0.734340 0.108362
H29   H     H_    0.105186 0.121117 0.818022 0.198558
H30   H     H_    0.297811 0.133778 0.161673 0.186676
H31   H     H_    0.240651 0.167738 0.095108 0.116481
H32   H     H_    0.220547 0.102790 0.121440 0.182209
H33   H     H_    0.762611 0.833033 0.903673 0.122373
H34   H     H_    0.706271 0.868518 0.838000 0.189663
H35   H     H_    0.881922 0.453432 0.003914 0.155100
H36   H     H_    0.785938 0.897418 0.877171 0.182108
H37   H     H_    0.897592 0.194368 0.629756 0.187377
H38   H     H_    0.901340 0.171177 0.724056 0.168702
H39   H     H_    0.979346 0.201062 0.682697 0.156039
H40   H     H_    0.113662 0.680886 0.347226 0.182334
H41   H     H_    0.088995 0.675520 0.250658 0.128694
H42   H     H_    0.023736 0.697742 0.316408 0.188233
H43   H     H_    0.118061 0.546578 0.996013 0.152338
H44   H     H_    0.118009 0.453109 0.996128 0.151059
H45   H     H_    0.881978 0.546903 0.003849 0.147387
H46   H     H_    0.515751 0.550035 0.779396 0.140541
H47   H     H_    0.554299 0.611225 0.748600 0.185202
H48   H     H_    0.580097 0.583609 0.834825 0.165012
H49   H     H_    0.600791 0.405061 0.609083 0.178526
H50   H     H_    0.441570 0.396628 0.171041 0.163936
H51   H     H_    0.385678 0.422890 0.242308 0.191944
H52   H     H_    0.461273 0.379428 0.264094 0.200635
H53   H     H_    0.510125 0.546414 0.184611 0.196674
H54   H     H_    0.439582 0.590501 0.159021 0.177206
H55   H     H_    0.493862 0.603986 0.238572 0.134294
H56   H     H_    0.725002 0.413741 0.668509 0.139659
H57   H     H_    0.657372 0.369204 0.707086 0.186445
H58   H     H_    0.727740 0.395389 0.763060 0.189829
H59   H     H_    0.015921 0.049723 0.279717 0.140680
H60   H     H_    0.580275 0.591892 0.626112 0.234550
H61   H     H_    0.053930 0.111016 0.248619 0.184651
H62   H     H_    0.080221 0.083603 0.334832 0.164972
H63   H     H_    0.941553 0.896642 0.671033 0.163931
H64   H     H_    0.885646 0.922921 0.742278 0.191936
H65   H     H_    0.961216 0.879442 0.764095 0.200657
H66   H     H_    0.010101 0.046432 0.684623 0.196661
H67   H     H_    0.939557 0.090518 0.659042 0.177202
H68   H     H_    0.993833 0.103997 0.738594 0.134320
H69   H     H_    0.224742 0.913393 0.168565 0.139670
H70   H     H_    0.156831 0.869148 0.207334 0.186908
H71   H     H_    0.547373 0.416969 0.350913 0.221981
H72   H     H_    0.227438 0.895162 0.263162 0.189717
H73   H     H_    0.227865 0.833516 0.600544 0.139526
H74   H     H_    0.270328 0.895033 0.610804 0.162012
H75   H     H_    0.197294 0.877818 0.671173 0.195165
H76   H     H_    0.699330 0.129605 0.409652 0.198085
H77   H     H_    0.785086 0.155533 0.378429 0.108915
H78   H     H_    0.752090 0.094318 0.345721 0.155690
H79   H     H_    0.763351 0.840552 0.391317 0.142875
H80   H     H_    0.716349 0.899764 0.373322 0.163499
H81   H     H_    0.791194 0.882133 0.315653 0.192396
H82   H     H_    0.919837 0.082095 0.881067 0.205220
H83   H     H_    0.310478 0.127546 0.601649 0.195015
H84   H     H_    0.222373 0.149074 0.633298 0.102499
H85   H     H_    0.263207 0.090808 0.668830 0.163628
H86   H     H_    0.233107 0.164232 0.401064 0.123541
H87   H     H_    0.275108 0.102792 0.386753 0.171211
H88   H     H_    0.200422 0.121715 0.329470 0.212028
H89   H     H_    0.726658 0.895701 0.610070 0.170048
H90   H     H_    0.766844 0.833544 0.596909 0.142550
H91   H     H_    0.801813 0.876576 0.666616 0.164896
H92   H     H_    0.837546 0.326141 0.613638 0.184898
H93   H     H_    0.100800 0.905064 0.109059 0.178421
H94   H     H_    0.741975 0.325905 0.585078 0.113530
H95   H     H_    0.812703 0.307447 0.522699 0.174142
H96   H     H_    0.135029 0.816136 0.387478 0.194636
H97   H     H_    0.178751 0.808329 0.474446 0.159114
H98   H     H_    0.229798 0.835418 0.399985 0.144795
H99   H     H_    0.727875 0.333524 0.100550 0.139515
H100  H     H_    0.770343 0.395039 0.110819 0.162017
H101  H     H_    0.697306 0.377823 0.171184 0.195168
H102  H     H_    0.199332 0.629594 0.909659 0.198076
H103  H     H_    0.285075 0.655561 0.878472 0.108938
H104  H     H_    0.080291 0.091895 0.126100 0.234607
H105  H     H_    0.252142 0.594336 0.845737 0.155671
H106  H     H_    0.263352 0.340551 0.891319 0.142878
H107  H     H_    0.216352 0.399763 0.873325 0.163496
H108  H     H_    0.291197 0.382132 0.815656 0.192413
H109  H     H_    0.810481 0.627545 0.101653 0.195016
H110  H     H_    0.722375 0.649072 0.133302 0.102504
H111  H     H_    0.763212 0.590807 0.168835 0.163628
H112  H     H_    0.733090 0.664247 0.901075 0.123540
H113  H     H_    0.775080 0.602802 0.886777 0.171214
H114  H     H_    0.700396 0.621725 0.829489 0.211983
H115  H     H_    0.047357 0.916971 0.850908 0.221990
H116  H     H_    0.226638 0.395707 0.110086 0.170051
H117  H     H_    0.266842 0.333555 0.096925 0.142540
H118  H     H_    0.301794 0.376592 0.166637 0.164917
H119  H     H_    0.337552 0.826100 0.113598 0.184882
H120  H     H_    0.241987 0.825856 0.085014 0.113534
H121  H     H_    0.312729 0.807375 0.022667 0.174135
H122  H     H_    0.634996 0.316076 0.887521 0.194700
H123  H     H_    0.678742 0.308267 0.974476 0.159079
H124  H     H_    0.729757 0.335382 0.900012 0.144811
H125  H     H_    0.794031 0.366637 0.341732 0.185985
H126  H     H_    0.381922 0.953432 0.503915 0.155102
H127  H     H_    0.735819 0.331435 0.405837 0.119805
H128  H     H_    0.714119 0.396209 0.379717 0.180052
H129  H     H_    0.350462 0.600923 0.767558 0.150174
H130  H     H_    0.389219 0.664285 0.780243 0.108446
H131  H     H_    0.410234 0.626931 0.700473 0.198454
H132  H     H_    0.193877 0.360329 0.648494 0.186120
H133  H     H_    0.253172 0.324466 0.586608 0.115694
H134  H     H_    0.270006 0.391037 0.604827 0.185263
H135  H     H_    0.666316 0.596375 0.251279 0.156722
H136  H     H_    0.618962 0.656517 0.234343 0.108370
O1    O     O_3   0.500000 0.750040 0.500000 -0.500113
O2    O     O_R   0.414580 0.719700 0.353880 -0.635988
O3    O     O_R   0.414580 0.280300 0.353880 -0.620400
O4    O     O_R   0.585420 0.719700 0.646120 -0.631958
O5    O     O_R   0.085420 0.219700 0.853880 -0.646268
O6    O     O_R   0.914580 0.780300 0.146120 -0.590153
O7    O     O_R   0.914580 0.219700 0.146120 -0.651553
O8    O     O_R   0.085420 0.780300 0.853880 -0.617587
O9    O     O_R   0.085420 0.780300 0.146120 -0.628599
O10   O     O_R   0.914580 0.219700 0.853880 -0.635997
O11   O     O_R   0.914580 0.780300 0.853880 -0.620389
O12   O     O_3   0.500000 0.249960 0.500000 -0.507622
O13   O     O_R   0.085420 0.219700 0.146120 -0.631859
O14   O     O_R   0.646120 0.780390 0.585510 -0.637813
O15   O     O_R   0.353880 0.219610 0.414490 -0.640973
O16   O     O_R   0.353880 0.780390 0.414490 -0.634191
O17   O     O_R   0.646120 0.219610 0.585510 -0.619517
O18   O     O_R   0.646120 0.219610 0.414490 -0.645265
O19   O     O_R   0.353880 0.780390 0.585510 -0.620016
O20   O     O_R   0.353880 0.219610 0.585510 -0.668347
O21   O     O_R   0.646120 0.780390 0.414490 -0.638006
O22   O     O_R   0.146120 0.280390 0.085510 -0.637831
O23   O     O_3   0.000000 0.250040 0.000000 -0.500121
O24   O     O_R   0.853880 0.719610 0.914490 -0.640965
O25   O     O_R   0.853880 0.280390 0.914490 -0.634222
O26   O     O_R   0.146120 0.719610 0.085510 -0.619467
O27   O     O_R   0.146120 0.719610 0.914490 -0.645257
O28   O     O_R   0.853880 0.280390 0.085510 -0.620027
O29   O     O_R   0.853880 0.719610 0.085510 -0.668341
O30   O     O_R   0.146120 0.280390 0.914490 -0.638003
O31   O     O_R   0.560660 0.865840 0.500000 -0.642689
O32   O     O_R   0.439340 0.134160 0.500000 -0.651925
O33   O     O_R   0.439340 0.865840 0.500000 -0.652114
O34   O     O_3   0.000000 0.749960 0.000000 -0.507604
O35   O     O_R   0.560660 0.134160 0.500000 -0.657330
O36   O     O_R   0.060660 0.365840 0.000000 -0.642690
O37   O     O_R   0.939340 0.634160 0.000000 -0.651923
O38   O     O_R   0.939340 0.365840 0.000000 -0.652119
O39   O     O_R   0.060660 0.634160 0.000000 -0.657325
O40   O     O_R   0.500000 0.634240 0.439310 -0.660459
O41   O     O_R   0.500000 0.365760 0.560690 -0.632224
O42   O     O_R   0.500000 0.634240 0.560690 -0.661404
O43   O     O_R   0.500000 0.365760 0.439310 -0.656206
O44   O     O_R   1.000000 0.134240 0.939310 -0.660451
O45   O     O_R   0.585420 0.719700 0.353880 -0.646263
O46   O     O_R   0.000000 0.865760 0.060690 -0.632255
O47   O     O_R   0.000000 0.134240 0.060690 -0.661408
O48   O     O_R   0.000000 0.865760 0.939310 -0.656199
O49   O     O_3   0.625538 0.548667 0.744968 -0.555835
O50   O     O_3   0.490277 0.453635 0.230819 -0.619908
O51   O     O_3   0.415519 0.546386 0.249367 -0.586833
O52   O     O_3   0.644938 0.445701 0.737319 -0.565848
O53   O     O_3   0.125594 0.048691 0.244919 -0.555785
O54   O     O_3   0.990262 0.953643 0.730819 -0.619907
O55   O     O_3   0.915498 0.046392 0.749377 -0.586833
O56   O     O_R   0.414580 0.280300 0.646120 -0.590133
O57   O     O_3   0.144982 0.945730 0.237330 -0.565972
O58   O     O_3   0.298069 0.842530 0.690543 -0.583460
O59   O     O_3   0.695435 0.156108 0.302938 -0.563608
O60   O     O_3   0.693444 0.842413 0.300114 -0.582722
O61   O     O_3   0.313081 0.156417 0.706702 -0.568414
O62   O     O_3   0.300357 0.156945 0.308558 -0.575827
O63   O     O_3   0.701191 0.843023 0.690248 -0.578797
O64   O     O_3   0.789567 0.253684 0.602036 -0.572219
O65   O     O_3   0.210448 0.755956 0.397016 -0.579883
O66   O     O_3   0.798078 0.342529 0.190552 -0.583465
O67   O     O_R   0.414580 0.719700 0.646120 -0.651559
O68   O     O_3   0.195449 0.656108 0.802951 -0.563614
O69   O     O_3   0.193446 0.342413 0.800116 -0.582729
O70   O     O_3   0.813084 0.656417 0.206705 -0.568420
O71   O     O_3   0.800341 0.656945 0.808572 -0.575803
O72   O     O_3   0.201179 0.343024 0.190259 -0.578802
O73   O     O_3   0.289570 0.753639 0.102034 -0.572226
O74   O     O_3   0.710448 0.255915 0.897021 -0.579947
O75   O     O_3   0.693377 0.342477 0.300623 -0.573110
O76   O     O_3   0.305600 0.656183 0.699060 -0.557462
O77   O     O_3   0.297527 0.342033 0.688959 -0.568207
O78   O     O_R   0.585420 0.280300 0.353880 -0.617600
O79   O     O_3   0.705357 0.656593 0.313360 -0.569899
O80   O     O_3   0.694851 0.656875 0.698807 -0.570521
O81   O     O_3   0.307234 0.342989 0.299199 -0.598595
O82   O     O_3   0.397140 0.751134 0.209820 -0.582351
O83   O     O_3   0.603042 0.250217 0.789791 -0.572676
O84   O     O_3   0.193370 0.842477 0.800616 -0.573102
O85   O     O_3   0.805584 0.156182 0.199046 -0.557465
O86   O     O_3   0.797526 0.842033 0.188957 -0.568224
O87   O     O_3   0.205352 0.156593 0.813355 -0.569891
O88   O     O_3   0.194854 0.156875 0.198800 -0.570340
O89   O     O_R   0.585420 0.280300 0.646120 -0.628455
O90   O     O_3   0.807246 0.842989 0.799187 -0.598597
O91   O     O_3   0.897140 0.251166 0.709822 -0.582360
O92   O     O_3   0.103042 0.750254 0.289791 -0.572730
Zn1   Zn    Zn3+2 0.500000 0.706650 0.586810 0.963330
Zn2   Zn    Zn3+2 0.413290 0.206580 0.500000 0.955650
Zn3   Zn    Zn3+2 0.413290 0.793420 0.500000 0.992189
Zn4   Zn    Zn3+2 0.586710 0.206580 0.500000 0.971008
Zn5   Zn    Zn3+2 0.086710 0.293420 0.000000 0.978579
Zn6   Zn    Zn3+2 0.913290 0.706580 0.000000 0.955657
Zn7   Zn    Zn3+2 0.913290 0.293420 0.000000 0.992170
Zn8   Zn    Zn3+2 0.086710 0.706580 0.000000 0.971016
Zn9   Zn    Zn3+2 0.500000 0.293350 0.413190 0.977662
Zn10  Zn    Zn3+2 0.500000 0.706650 0.413190 0.966884
Zn11  Zn    Zn3+2 0.500000 0.293350 0.586810 0.999985
Zn12  Zn    Zn3+2 0.000000 0.206650 0.086810 0.963412
Zn13  Zn    Zn3+2 0.000000 0.793350 0.913190 0.977673
Zn14  Zn    Zn3+2 0.000000 0.206650 0.913190 0.966882
Zn15  Zn    Zn3+2 1.000000 0.793350 0.086810 0.999850
Zn16  Zn    Zn3+2 0.586710 0.793420 0.500000 0.978579

loop_
_geom_bond_atom_site_label_1
_geom_bond_atom_site_label_2
_ccdc_geom_bond_type
C58   H34   S    
O31   Zn16  S    
C131  O14   A    
C59   H39   S    
C110  C118  A    
O67   Zn1   S    
C43   O75   S    
C99   O41   A    
O23   Zn14  S    
C64   C152  A    
C34   H101  S    
C63   C133  A    
C48   O80   S    
C20   O52   S    
C15   C78   A    
O10   Zn14  S    
C63   C76   S    
C61   O13   A    
C41   H120  S    
C55   H28   S    
C89   C94   S    
C67   C138  A    
O43   Zn9   S    
C74   C144  A    
C91   C96   S    
C40   H118  S    
O1    Zn10  S    
C27   H77   S    
O34   Zn15  S    
O26   Zn8   S    
O23   Zn5   S    
C60   H41   S    
C49   H8    S    
C18   H51   S    
C20   H58   S    
C25   O57   S    
C42   H124  S    
C119  C128  A    
C143  C151  A    
C37   O69   S    
O30   Zn5   S    
O3    Zn9   S    
C102  C111  A    
C80   C83   A    
O28   Zn7   S    
C110  H115  S    
C34   O66   S    
C15   C139  A    
C109  O2    A    
C23   H67   S    
O27   Zn8   S    
C36   H103  S    
C50   H12   S    
C84   C88   A    
C36   O68   S    
C52   H18   S    
C85   H43   S    
C56   H32   S    
C44   H131  S    
C48   H6    S    
C106  C127  A    
C45   H134  S    
C54   H26   S    
C103  C112  A    
C88   H45   S    
C103  H49   S    
C14   O90   S    
C9    O85   S    
C149  O74   S    
C26   H75   S    
C115  C118  A    
C11   O87   S    
C39   H113  S    
C124  C130  A    
C76   O67   A    
C102  H1    S    
C79   C148  A    
C124  C127  A    
C101  O48   A    
C100  O47   A    
O44   Zn14  S    
C93   O31   A    
C94   O32   A    
C59   H37   S    
O18   Zn4   S    
C102  C123  A    
C41   H121  S    
C90   C93   S    
C71   C143  A    
C48   H5    S    
C60   O92   S    
O22   Zn5   S    
C8    C71   A    
C62   C150  A    
C116  O57   S    
O25   Zn7   S    
C37   H107  S    
C30   H88   S    
C11   C74   A    
C100  C132  S    
C99   C128  S    
C13   C72   S    
C119  C123  A    
C147  O72   S    
C106  C115  A    
O19   Zn3   S    
C38   H110  S    
C118  O54   S    
C11   C136  A    
O34   Zn13  S    
C17   H47   S    
C44   O76   S    
C33   H98   S    
C21   O53   S    
C42   H122  S    
C43   H127  S    
C101  O46   A    
C12   C75   A    
C84   H35   S    
C120  O3    A    
C93   O33   A    
C136  O61   S    
O34   Zn6   S    
C82   H13   S    
C6    C69   A    
C64   C136  A    
C10   O86   S    
C50   H10   S    
O21   Zn16  S    
C31   H90   S    
C51   H15   S    
O4    Zn1   S    
C9    C72   A    
C53   H21   S    
C28   O60   S    
C85   C86   A    
C100  O44   A    
O12   Zn2   S    
C138  O63   S    
C135  O60   S    
O33   Zn3   S    
C47   H136  S    
O1    Zn16  S    
O48   Zn13  S    
C65   O56   A    
C29   H83   S    
C53   H20   S    
C86   H44   S    
O39   Zn8   S    
O41   Zn11  S    
O37   Zn6   S    
C139  O64   S    
C39   O71   S    
C28   H80   S    
C120  O15   A    
C49   H9    S    
C109  O16   A    
C22   H63   S    
C32   H92   S    
C98   O17   A    
C29   O61   S    
C16   C140  A    
C30   H86   S    
C31   O63   S    
C24   O8    A    
C141  C150  A    
O7    Zn12  S    
C22   O54   S    
C83   C89   A    
C150  O75   S    
C142  O30   A    
C10   C135  A    
C36   H102  S    
C73   C145  A    
C1    O45   A    
C43   H125  S    
C88   C91   A    
C60   H40   S    
C44   H130  S    
C25   H70   S    
O89   Zn11  S    
C2    C73   S    
C15   O91   S    
O29   Zn6   S    
C22   H65   S    
C3    C145  A    
C45   O77   S    
C104  H60   S    
O15   Zn2   S    
C7    O83   S    
O12   Zn9   S    
O12   Zn4   S    
O13   Zn12  S    
C106  H82   S    
C12   O88   S    
C55   H27   S    
C108  C117  A    
O56   Zn11  S    
C57   O11   A    
C145  O70   S    
C95   O36   A    
O32   Zn2   S    
C4    O80   S    
C144  C152  A    
C17   O49   S    
C23   O55   S    
C38   H111  S    
C68   C120  S    
O16   Zn3   S    
C56   O88   S    
C61   O22   A    
C69   C140  A    
C35   C79   S    
O38   Zn7   S    
C41   H119  S    
C21   H61   S    
C48   H4    S    
O36   Zn5   S    
C107  C116  A    
C58   O90   S    
C101  C130  S    
C104  C113  A    
C148  O73   S    
C49   H7    S    
O78   Zn9   S    
C18   H52   S    
C84   C92   A    
C77   C146  A    
C78   C149  A    
C50   O82   S    
C5    C147  A    
C40   O72   S    
C7    C70   A    
C87   O18   A    
O47   Zn12  S    
C42   O74   S    
C31   H91   S    
C32   O64   S    
C39   H112  S    
C54   O86   S    
C46   O25   A    
C10   C73   A    
C126  C130  A    
C144  O69   S    
C45   H133  S    
C25   H72   S    
C14   C77   A    
C110  C124  A    
C137  O62   S    
C14   C138  A    
C19   H54   S    
C34   H99   S    
C26   O58   S    
O34   Zn8   S    
C143  O68   S    
C81   C89   A    
O12   Zn11  S    
C16   O92   S    
C115  O55   S    
C70   C139  A    
C38   O70   S    
C45   H132  S    
C108  H104  S    
C58   H33   S    
C80   H126  S    
C68   C137  A    
C5    C68   A    
C112  O52   S    
C18   O50   S    
C33   O65   S    
C72   C141  A    
C13   O7    A    
C8    O84   S    
C32   H95   S    
C113  O49   S    
C57   C77   S    
C37   H106  S    
C38   H109  S    
C141  O66   S    
C46   C78   S    
C75   C147  A    
C105  H71   S    
C54   H23   S    
C98   O89   A    
C49   O81   S    
C65   O20   A    
C27   H78   S    
C133  O58   S    
O1    Zn1   S    
C97   O40   A    
C17   H46   S    
C18   H50   S    
C13   O28   A    
C55   O87   S    
C20   H57   S    
C33   H97   S    
C63   C151  A    
C121  C122  A    
C41   O73   S    
C35   O26   A    
C42   H123  S    
C40   H116  S    
O5    Zn14  S    
C96   O37   A    
C3    C66   A    
O17   Zn4   S    
C1    O21   A    
C23   H68   S    
C50   H11   S    
C31   H89   S    
C121  C129  A    
C52   H17   S    
C27   O59   S    
C56   H31   S    
C62   C87   S    
C82   C90   A    
C54   H25   S    
C16   C79   A    
C64   C65   S    
C47   H135  S    
C117  O53   S    
C26   H74   S    
C19   O51   S    
C111  C114  A    
C122  C128  A    
C66   C135  A    
C59   O91   S    
C105  C119  A    
C59   H38   S    
C26   H73   S    
C103  C122  A    
O24   Zn6   S    
C152  O77   S    
C94   O35   A    
C46   O10   A    
C22   H64   S    
C2    O6    A    
C37   H108  S    
C30   H87   S    
O46   Zn15  S    
C114  O50   S    
C81   C82   A    
C85   C91   A    
C39   H114  S    
C60   H42   S    
C40   H117  S    
C61   C75   S    
C142  O5    A    
C47   H3    S    
C131  O4    A    
C33   H96   S    
C151  O76   S    
C146  O71   S    
C27   H76   S    
O42   Zn1   S    
O2    Zn10  S    
O23   Zn12  S    
O1    Zn3   S    
C116  C117  A    
C17   H48   S    
C127  C132  A    
C5    O81   S    
C7    C149  A    
C69   C109  S    
C43   H128  S    
C96   O39   A    
O6    Zn15  S    
O11   Zn13  S    
C108  C125  A    
C28   H81   S    
C76   O19   A    
C9    C134  A    
C74   C142  S    
C23   H66   S    
C30   O62   S    
C123  C129  A    
C19   H55   S    
C51   H16   S    
C24   O27   A    
C47   O79   S    
C52   H19   S    
C29   H85   S    
C112  C113  A    
C53   H22   S    
C35   O9    A    
C58   H36   S    
C134  O59   S    
C105  C114  A    
O20   Zn2   S    
C104  C121  A    
C99   O43   A    
C92   C95   S    
C81   H2    S    
C21   H59   S    
C32   H94   S    
C29   H84   S    
C6    C148  A    
O40   Zn10  S    
C4    C146  A    
O8    Zn13  S    
C1    C66   S    
C55   H29   S    
C87   O78   A    
C36   H105  S    
C25   H69   S    
C28   H79   S    
C95   O38   A    
O23   Zn7   S    
C111  O51   S    
O45   Zn10  S    
C20   H56   S    
O14   Zn16  S    
C6    O82   S    
C8    C133  A    
C21   H62   S    
C107  H93   S    
C57   O24   A    
C67   C131  S    
C107  C126  A    
C3    O79   S    
C4    C67   A    
C97   O42   A    
C2    O29   A    
C62   C134  A    
C97   C129  S    
C86   C92   A    
O35   Zn4   S    
C125  C132  A    
C140  O65   S    
C125  C126  A    
C56   H30   S    
C44   H129  S    
C53   O85   S    
C52   O84   S    
C80   C90   A    
O9    Zn15  S    
C19   H53   S    
C12   C137  A    
C51   H14   S    
C34   H100  S    
C83   H24   S    
C51   O83   S    
C70   C98   S    
C24   C71   S    
