data_mof_unit_7865.cif
_audit_creation_date              2012-12-10T17:49:33-0500
_audit_creation_method            fapswitch 2.2
_symmetry_space_group_name_H-M    P1
_symmetry_Int_Tables_number       1
_space_group_crystal_system       triclinic
_cell_length_a                    10.483106
_cell_length_b                    10.625529
_cell_length_c                    9.942944
_cell_angle_alpha                 89.584907
_cell_angle_beta                  90.440167
_cell_angle_gamma                 91.308534
_cell_volume                      1107.18090429

loop_
_atom_site_label
_atom_site_type_symbol
_atom_type_description
_atom_site_fract_x
_atom_site_fract_y
_atom_site_fract_z
_atom_type_partial_charge
C1    C     C_R   0.502509 0.261047 0.500571 0.851702
C2    C     C_R   0.618325 0.066631 0.537230 0.107608
C3    C     C_R   0.506263 0.129039 0.501827 -0.101447
C4    C     C_R   0.257552 0.499181 0.499460 0.888388
C5    C     C_R   0.394208 0.066317 0.464907 -0.266759
C6    C     C_R   0.388959 0.936875 0.461973 -0.030711
C7    C     C_R   0.500655 0.872018 0.497442 -0.188861
C8    C     C_R   0.331784 0.336936 0.139615 -0.154014
C9    C     C_R   0.248904 0.256617 0.069543 -0.193033
C10   C     C_R   0.249409 0.256052 0.930324 -0.191970
C11   C     C_R   0.332707 0.335905 0.860287 -0.144363
C12   C     C_3   0.954589 0.395844 0.437319 -0.195592
C13   C     C_R   0.417454 0.419347 0.927752 0.167298
C14   C     C_R   0.417235 0.419627 0.072171 0.171833
C15   C     C_R   0.579178 0.576880 0.071435 -0.099661
C16   C     C_R   0.496831 0.739169 0.499328 0.919169
C17   C     C_R   0.579110 0.576890 0.928523 -0.113071
C18   C     C_R   0.742478 0.500042 0.500571 0.829611
C19   C     C_3   0.045546 0.602885 0.562855 -0.150275
C20   C     C_3   0.960963 0.499244 0.628626 -0.149052
C21   C     C_3   0.877660 0.499537 0.501702 0.020086
C22   C     C_3   0.959584 0.603160 0.436102 -0.166542
C23   C     C_3   0.040608 0.395602 0.564078 -0.210327
C24   C     C_3   0.039180 0.499494 0.371535 -0.102430
C25   C     C_2   0.264732 0.874923 0.423882 0.870382
C26   C     C_3   0.122442 0.499238 0.498438 0.048187
C27   C     C_R   0.732430 0.132093 0.573271 -0.188240
C28   C     C_R   0.842316 0.066615 0.605911 -0.113073
C29   C     C_R   0.840496 0.935721 0.602783 -0.136300
C30   C     C_R   0.728840 0.869999 0.566999 -0.192377
C31   C     C_R   0.615927 0.934970 0.534345 0.088113
H1    H     H_    0.925039 0.499078 0.733392 0.150175
H2    H     H_    0.087517 0.687022 0.613648 0.145219
H3    H     H_    0.921571 0.687508 0.384375 0.131031
H4    H     H_    0.075266 0.499512 0.266816 0.155533
H5    H     H_    0.912789 0.311628 0.386502 0.148314
H6    H     H_    0.079077 0.311549 0.615953 0.129371
H7    H     H_    0.310598 0.119728 0.437735 0.167850
H8    H     H_    0.737695 0.233761 0.576233 0.137793
H9    H     H_    0.929115 0.117501 0.633414 0.142736
H10   H     H_    0.072950 0.887662 0.413991 0.333890
H11   H     H_    0.925842 0.884864 0.627920 0.148034
H12   H     H_    0.732308 0.768450 0.564679 0.130137
H13   H     H_    0.643978 0.639819 0.124921 0.145326
H14   H     H_    0.326095 0.331253 0.246258 0.196648
H15   H     H_    0.184136 0.194148 0.123827 0.159203
H16   H     H_    0.185041 0.193128 0.876030 0.149695
H17   H     H_    0.328026 0.329169 0.753660 0.200027
H18   H     H_    0.643849 0.639849 0.875032 0.147427
N1    N     N_R   0.498800 0.498800 0.142780 -0.118354
N2    N     N_R   0.498760 0.498720 0.857170 -0.121456
O1    O     O_R   0.500000 0.316780 0.614690 -0.636512
O2    O     O_R   0.150853 0.937508 0.446097 -0.838443
O3    O     O_R   0.499990 0.316750 0.385360 -0.634945
O4    O     O_R   0.313960 0.499980 0.614650 -0.646871
O5    O     O_R   0.313940 0.499960 0.385310 -0.615503
O6    O     O_R   0.500010 0.683250 0.614640 -0.620947
O7    O     O_R   0.500000 0.683220 0.385310 -0.576991
O8    O     O_R   0.686060 0.500040 0.614690 -0.631876
O9    O     O_R   0.686040 0.500020 0.385350 -0.619628
O10   O     O_2   0.261069 0.771952 0.370022 -0.627802
Zn1   Zn    Zn3+2 0.500010 0.500020 0.653130 0.934399
Zn2   Zn    Zn3+2 0.499990 0.499980 0.346870 0.962240

loop_
_geom_bond_atom_site_label_1
_geom_bond_atom_site_label_2
_ccdc_geom_bond_type
C8    C9    A    
C4    C26   S    
C1    O3    A    
C29   C30   A    
C13   C14   A    
C29   H11   S    
C12   H5    S    
C18   C21   S    
C9    C10   A    
C12   C24   S    
C19   C20   S    
C20   C23   S    
C30   C31   A    
C17   N2    A    
O3    Zn2   S    
C2    C3    A    
O5    Zn2   S    
C9    H15   S    
C25   O10   D    
C21   C22   S    
C4    O5    A    
N1    Zn2   S    
C11   C13   A    
C12   C23   S    
H10   O2    S    
C11   H17   S    
C2    C27   A    
N2    Zn1   S    
O9    Zn2   S    
C13   N2    A    
C18   O9    A    
C7    C16   S    
C24   C26   S    
C15   H13   S    
C6    C7    A    
C16   O6    A    
C4    O4    A    
C19   H2    S    
C5    C6    A    
C22   H3    S    
C1    O1    A    
C22   C24   S    
C30   H12   S    
C15   N1    A    
C24   H4    S    
C7    C31   A    
C10   C11   A    
C14   N1    A    
C27   H8    S    
C6    C25   S    
O4    Zn1   S    
C3    C5    A    
C18   O8    A    
C27   C28   A    
C19   C22   S    
C5    H7    S    
C20   C21   S    
C20   H1    S    
C23   C26   S    
C17   H18   S    
C10   H16   S    
C15   C17   A    
C19   C26   S    
C28   H9    S    
C8    H14   S    
C28   C29   A    
O8    Zn1   S    
C16   O7    A    
C8    C14   A    
O6    Zn1   S    
C23   H6    S    
C12   C21   S    
O1    Zn1   S    
O7    Zn2   S    
C25   O2    S    
C2    C31   A    
C1    C3    S    
