data_mof_unit_64649.cif
_audit_creation_date              2012-12-10T19:44:08-0500
_audit_creation_method            fapswitch 2.2
_symmetry_space_group_name_H-M    P1
_symmetry_Int_Tables_number       1
_space_group_crystal_system       triclinic
_cell_length_a                    30.628559
_cell_length_b                    30.540277
_cell_length_c                    23.396737
_cell_angle_alpha                 90.086601
_cell_angle_beta                  130.629515
_cell_angle_gamma                 89.949022
_cell_volume                      16609.6112401

loop_
_atom_site_label
_atom_site_type_symbol
_atom_type_description
_atom_site_fract_x
_atom_site_fract_y
_atom_site_fract_z
_atom_type_partial_charge
C1    C     C_R   0.810046 0.810108 0.500307 0.940031
C2    C     C_R   0.188892 0.810129 0.497648 0.903262
C3    C     C_R   0.310046 0.310108 0.500308 0.940016
C4    C     C_R   0.688891 0.310129 0.497648 0.903237
C5    C     C_R   0.446331 0.747767 0.885314 0.058510
C6    C     C_R   0.562845 0.748729 0.113107 0.066740
C7    C     C_R   0.946332 0.247765 0.885313 0.058504
C8    C     C_R   0.062843 0.248732 0.113103 0.066720
C9    C     C_1   0.489060 0.746121 0.965488 -0.003719
C10   C     C_1   0.523488 0.746360 0.032839 -0.009663
C11   C     C_1   0.989063 0.246121 0.965485 -0.003744
C12   C     C_1   0.023489 0.246361 0.032836 -0.009655
C13   C     C_R   0.817439 0.879297 0.456670 0.065204
C14   C     C_R   0.145009 0.840552 0.545696 0.021385
C15   C     C_R   0.317434 0.379296 0.456661 0.065179
C16   C     C_R   0.644980 0.340539 0.545666 0.021426
C17   C     C_R   0.844607 0.843686 0.505222 -0.124723
C18   C     C_R   0.156162 0.843782 0.496930 -0.136541
C19   C     C_R   0.344607 0.343685 0.505220 -0.124780
C20   C     C_R   0.656165 0.343784 0.496933 -0.136584
C21   C     C_R   0.905156 0.842475 0.560164 0.187394
C22   C     C_R   0.140047 0.882084 0.453380 0.200326
C23   C     C_R   0.405160 0.342479 0.560181 0.187416
C24   C     C_R   0.640082 0.382102 0.453424 0.200344
C25   C     C_R   0.936778 0.874455 0.558139 -0.292015
C26   C     C_R   0.107202 0.913659 0.453697 -0.288899
C27   C     C_R   0.436780 0.374460 0.558153 -0.292004
C28   C     C_R   0.607237 0.413676 0.453741 -0.288938
C29   C     C_R   0.908111 0.906856 0.502135 -0.115132
C30   C     C_R   0.094191 0.908270 0.500538 -0.109265
C31   C     C_R   0.408108 0.406860 0.502135 -0.115173
C32   C     C_R   0.594190 0.408270 0.500541 -0.109219
C33   C     C_R   0.848689 0.910525 0.455082 0.059290
C34   C     C_R   0.117052 0.873409 0.550480 0.081079
C35   C     C_R   0.348680 0.410529 0.455078 0.059316
C36   C     C_R   0.617022 0.373395 0.550451 0.081036
C37   C     C_3   0.803844 0.917284 0.371882 -0.470632
C38   C     C_3   0.088473 0.842759 0.567053 -0.503330
C39   C     C_3   0.303816 0.417303 0.371866 -0.470566
C40   C     C_3   0.588410 0.342739 0.566967 -0.503384
C41   C     C_3   0.768717 0.882461 0.373297 -0.001419
C42   C     C_3   0.117851 0.805809 0.559279 0.058266
C43   C     C_3   0.268698 0.382466 0.373279 -0.001381
C44   C     C_3   0.617791 0.305792 0.559193 0.058333
C45   C     C_R   0.677240 0.750603 0.353205 0.894198
C46   C     C_R   0.322766 0.750374 0.646392 0.889669
C47   C     C_R   0.177241 0.250604 0.353204 0.894258
C48   C     C_R   0.822765 0.250374 0.646392 0.889678
C49   C     C_R   0.049940 0.721948 0.152416 -0.198037
C50   C     C_R   0.949847 0.721692 0.847365 -0.199308
C51   C     C_R   0.549767 0.222105 0.152422 -0.198047
C52   C     C_R   0.449902 0.221752 0.847366 -0.199366
C53   C     C_R   0.088860 0.721419 0.230656 -0.208606
C54   C     C_R   0.910749 0.721078 0.769141 -0.214136
C55   C     C_R   0.588689 0.221576 0.230662 -0.208599
C56   C     C_R   0.410808 0.221140 0.769142 -0.214189
C57   C     C_R   0.135634 0.750412 0.270855 -0.089742
C58   C     C_R   0.864277 0.750337 0.729144 -0.091321
C59   C     C_R   0.635642 0.250401 0.270853 -0.089735
C60   C     C_R   0.364266 0.250328 0.729143 -0.091333
C61   C     C_R   0.142955 0.779979 0.231779 -0.216715
C62   C     C_R   0.857472 0.780298 0.768393 -0.216556
C63   C     C_R   0.643145 0.279795 0.231769 -0.216750
C64   C     C_R   0.357380 0.280207 0.768392 -0.216577
C65   C     C_R   0.104140 0.780712 0.153160 0.242371
C66   C     C_R   0.896474 0.781119 0.847020 0.244881
C67   C     C_R   0.604333 0.280522 0.153150 0.242412
C68   C     C_R   0.396372 0.281021 0.847018 0.244962
C69   C     C_R   0.057349 0.751401 0.113717 0.085093
C70   C     C_R   0.942914 0.751490 0.886259 0.085974
C71   C     C_R   0.557356 0.251386 0.113715 0.085091
C72   C     C_R   0.442891 0.251473 0.886259 0.086012
C73   C     C_1   0.017024 0.750642 0.033602 -0.073316
C74   C     C_1   0.983276 0.750678 0.966367 -0.073968
C75   C     C_1   0.517016 0.250630 0.033601 -0.073333
C76   C     C_1   0.483259 0.250665 0.966367 -0.074002
C77   C     C_R   0.662434 0.613462 0.491926 0.054838
C78   C     C_R   0.367558 0.623655 0.550972 0.034061
C79   C     C_R   0.162392 0.113468 0.491853 0.054866
C80   C     C_R   0.867555 0.123654 0.550967 0.034080
C81   C     C_R   0.657299 0.657351 0.501510 -0.155227
C82   C     C_R   0.342504 0.657419 0.498675 -0.142005
C83   C     C_R   0.157301 0.157351 0.501514 -0.155212
C84   C     C_R   0.842504 0.157419 0.498674 -0.142008
C85   C     C_R   0.617968 0.669332 0.511317 -0.235493
C86   C     C_R   0.356947 0.663172 0.453290 -0.264770
C87   C     C_R   0.118015 0.169328 0.511397 -0.235523
C88   C     C_R   0.856953 0.163175 0.453297 -0.264767
C89   C     C_R   0.690169 0.689910 0.500550 0.901010
C90   C     C_R   0.309417 0.689922 0.498895 0.906213
C91   C     C_R   0.190170 0.189910 0.500551 0.901033
C92   C     C_R   0.809416 0.189922 0.498893 0.906208
C93   C     C_R   0.585149 0.637135 0.511263 0.090828
C94   C     C_R   0.389988 0.631552 0.453384 0.089725
C95   C     C_R   0.085194 0.137131 0.511342 0.090806
C96   C     C_R   0.889996 0.131555 0.453394 0.089747
C97   C     C_R   0.591798 0.593089 0.500190 -0.072567
C98   C     C_R   0.409887 0.595127 0.501465 -0.091652
C99   C     C_R   0.091797 0.093092 0.500192 -0.072560
C100  C     C_R   0.909889 0.095128 0.501467 -0.091638
C101  C     C_R   0.630533 0.582670 0.490771 -0.069281
C102  C     C_R   0.401933 0.593511 0.553614 -0.040630
C103  C     C_R   0.130490 0.082678 0.490698 -0.069263
C104  C     C_R   0.901931 0.093510 0.553612 -0.040642
C105  C     C_3   0.655553 0.545111 0.479363 -0.175021
C106  C     C_3   0.385290 0.557060 0.579384 -0.143190
C107  C     C_3   0.155452 0.045126 0.479187 -0.175025
C108  C     C_3   0.885288 0.057060 0.579381 -0.143207
C109  C     C_3   0.692595 0.580404 0.480243 0.327588
C110  C     C_3   0.345464 0.590528 0.574820 0.310155
C111  C     C_3   0.192490 0.080419 0.480060 0.327544
C112  C     C_3   0.845460 0.090528 0.574811 0.310159
C113  C     C_R   0.440380 0.560535 0.500160 0.919382
C114  C     C_R   0.560320 0.559518 0.500008 0.917322
C115  C     C_R   0.940380 0.060534 0.500161 0.919397
C116  C     C_R   0.060319 0.059520 0.500009 0.917333
C117  C     C_R   0.940574 0.939266 0.500205 0.884090
C118  C     C_R   0.059816 0.939725 0.499938 0.881913
C119  C     C_R   0.440572 0.439268 0.500205 0.884103
C120  C     C_R   0.559815 0.439724 0.499938 0.881929
C121  C     C_R   0.823174 0.749953 0.646721 0.878482
C122  C     C_R   0.176688 0.750067 0.353291 0.880798
C123  C     C_R   0.323172 0.249950 0.646721 0.878504
C124  C     C_R   0.676690 0.250065 0.353290 0.880787
C125  C     C_R   0.389077 0.758755 0.850126 0.224235
C126  C     C_R   0.568337 0.787822 0.149087 0.214208
C127  C     C_R   0.889073 0.258735 0.850126 0.224228
C128  C     C_R   0.068270 0.287809 0.149080 0.214211
C129  C     C_R   0.347500 0.759799 0.770927 0.127089
C130  C     C_R   0.605079 0.789156 0.228338 0.135358
C131  C     C_R   0.847495 0.259780 0.770928 0.127089
C132  C     C_R   0.105021 0.289144 0.228332 0.135278
C133  C     C_R   0.364144 0.749961 0.728419 -0.098030
C134  C     C_R   0.637183 0.751267 0.270461 -0.124769
C135  C     C_R   0.864143 0.249959 0.728419 -0.098047
C136  C     C_R   0.137185 0.251269 0.270458 -0.124848
C137  C     C_R   0.421612 0.740455 0.764672 -0.237777
C138  C     C_R   0.631278 0.712916 0.232803 -0.238451
C139  C     C_R   0.921614 0.240466 0.764670 -0.237788
C140  C     C_R   0.131339 0.212934 0.232802 -0.238411
C141  C     C_R   0.462443 0.739073 0.842741 -0.226056
C142  C     C_R   0.594101 0.711592 0.154739 -0.228312
C143  C     C_R   0.962446 0.239085 0.842740 -0.226054
C144  C     C_R   0.094163 0.211610 0.154738 -0.228332
H1    H     H_    0.014020 0.699312 0.122004 0.147814
H2    H     H_    0.985511 0.698831 0.877613 0.148459
H3    H     H_    0.513703 0.199603 0.122017 0.147815
H4    H     H_    0.485624 0.198949 0.877615 0.148482
H5    H     H_    0.082339 0.698318 0.259569 0.164115
H6    H     H_    0.916921 0.697722 0.740074 0.166319
H7    H     H_    0.582022 0.198614 0.259580 0.164130
H8    H     H_    0.417042 0.197845 0.740076 0.166370
H9    H     H_    0.178525 0.802906 0.262167 0.169578
H10   H     H_    0.822186 0.803466 0.738132 0.169160
H11   H     H_    0.678863 0.302586 0.262150 0.169564
H12   H     H_    0.322029 0.303312 0.738131 0.169185
H13   H     H_    0.612931 0.703316 0.519367 0.166159
H14   H     H_    0.340645 0.691004 0.415674 0.155573
H15   H     H_    0.113013 0.203308 0.519508 0.166150
H16   H     H_    0.840655 0.191008 0.415686 0.155555
H17   H     H_    0.623627 0.528019 0.424616 0.152514
H18   H     H_    0.421818 0.545670 0.637379 0.162245
H19   H     H_    0.123488 0.028061 0.424426 0.152574
H20   H     H_    0.921815 0.045671 0.637376 0.162255
H21   H     H_    0.434739 0.733650 0.732309 0.153977
H22   H     H_    0.654989 0.683546 0.263903 0.175736
H23   H     H_    0.934741 0.233672 0.732306 0.153993
H24   H     H_    0.155096 0.183574 0.263901 0.175777
H25   H     H_    0.506662 0.731159 0.869989 0.154436
H26   H     H_    0.589582 0.681470 0.126749 0.153774
H27   H     H_    0.006668 0.231182 0.869987 0.154433
H28   H     H_    0.089695 0.181501 0.126750 0.153760
H29   H     H_    0.983385 0.873169 0.598431 0.159089
H30   H     H_    0.091634 0.942008 0.417273 0.154918
H31   H     H_    0.483391 0.373178 0.598459 0.159091
H32   H     H_    0.591696 0.442038 0.417348 0.154872
H33   H     H_    0.784377 0.950446 0.358292 0.172945
H34   H     H_    0.105625 0.846813 0.625714 0.173803
H35   H     H_    0.284343 0.450466 0.358298 0.172910
H36   H     H_    0.605541 0.346777 0.625621 0.173796
H37   H     H_    0.819085 0.908451 0.341433 0.219011
H38   H     H_    0.040741 0.843433 0.523942 0.200143
H39   H     H_    0.319046 0.408485 0.341390 0.218970
H40   H     H_    0.540680 0.343425 0.523834 0.200161
H41   H     H_    0.729176 0.895725 0.360040 0.122595
H42   H     H_    0.149672 0.787736 0.612879 0.114556
H43   H     H_    0.229152 0.395719 0.360033 0.122521
H44   H     H_    0.649594 0.287704 0.612783 0.114538
O1    O     O_R   0.821670 0.769930 0.500010 -0.596365
O2    O     O_R   0.178330 0.769930 0.499990 -0.636931
O3    O     O_R   0.321670 0.269930 0.500010 -0.596395
O4    O     O_R   0.678330 0.269930 0.499990 -0.636938
O5    O     O_R   0.485380 0.545840 0.562560 -0.631261
O6    O     O_R   0.514620 0.545840 0.437440 -0.615669
O7    O     O_R   0.985380 0.045840 0.562560 -0.631258
O8    O     O_R   0.014620 0.045840 0.437440 -0.615695
O9    O     O_R   0.922870 0.954190 0.437400 -0.628634
O10   O     O_R   0.077130 0.954190 0.562600 -0.623872
O11   O     O_R   0.422870 0.454190 0.437400 -0.628637
O12   O     O_R   0.577130 0.454190 0.562600 -0.623887
O13   O     O_R   0.985440 0.954220 0.562600 -0.628137
O14   O     O_R   0.014560 0.954220 0.437400 -0.630283
O15   O     O_R   0.485440 0.454220 0.562600 -0.628139
O16   O     O_R   0.514560 0.454220 0.437400 -0.630277
O17   O     O_R   0.769920 0.821660 0.500020 -0.639609
O18   O     O_R   0.230080 0.821660 0.499980 -0.600544
O19   O     O_R   0.269920 0.321660 0.500020 -0.639603
O20   O     O_R   0.730080 0.321660 0.499980 -0.600500
O21   O     O_R   0.720420 0.724130 0.389120 -0.618025
O22   O     O_R   0.279580 0.724130 0.610880 -0.625777
O23   O     O_R   0.220420 0.224130 0.389120 -0.618043
O24   O     O_R   0.779580 0.224130 0.610880 -0.625778
O25   O     O_R   0.668670 0.775850 0.389130 -0.619306
O26   O     O_R   0.331330 0.775850 0.610870 -0.616943
O27   O     O_R   0.168670 0.275850 0.389130 -0.619273
O28   O     O_R   0.831330 0.275850 0.610870 -0.616947
O29   O     O_R   0.730060 0.678320 0.499990 -0.624167
O30   O     O_R   0.269940 0.678320 0.500010 -0.631500
O31   O     O_R   0.230060 0.178320 0.499990 -0.624188
O32   O     O_R   0.769940 0.178320 0.500010 -0.631483
O33   O     O_R   0.678300 0.730040 0.500010 -0.627870
O34   O     O_R   0.321700 0.730040 0.499990 -0.622402
O35   O     O_R   0.178300 0.230040 0.500010 -0.627877
O36   O     O_R   0.821700 0.230040 0.499990 -0.622421
O37   O     O_R   0.831300 0.724120 0.610880 -0.620551
O38   O     O_R   0.168700 0.724120 0.389120 -0.628990
O39   O     O_R   0.331300 0.224120 0.610880 -0.620540
O40   O     O_R   0.668700 0.224120 0.389120 -0.629002
O41   O     O_R   0.779550 0.775850 0.610900 -0.630435
O42   O     O_R   0.220450 0.775850 0.389100 -0.624014
O43   O     O_R   0.279550 0.275850 0.610900 -0.630456
O44   O     O_R   0.720450 0.275850 0.389100 -0.624013
O45   O     O_R   0.422810 0.545810 0.437360 -0.607345
O46   O     O_R   0.577190 0.545810 0.562640 -0.636028
O47   O     O_R   0.922810 0.045810 0.437360 -0.607355
O48   O     O_R   0.077190 0.045810 0.562640 -0.636020
Zn1   Zn    Zn3+2 0.784540 0.715450 0.500000 0.955499
Zn2   Zn    Zn3+2 0.215460 0.715450 0.500000 0.921061
Zn3   Zn    Zn3+2 0.284540 0.215450 0.500000 0.955465
Zn4   Zn    Zn3+2 0.715460 0.215450 0.500000 0.921049
Zn5   Zn    Zn3+2 0.715430 0.784520 0.500020 0.931972
Zn6   Zn    Zn3+2 0.284570 0.784520 0.499980 0.950472
Zn7   Zn    Zn3+2 0.215430 0.284520 0.500020 0.931963
Zn8   Zn    Zn3+2 0.784570 0.284520 0.499980 0.950486
Zn9   Zn    Zn3+2 0.458190 0.500000 0.416410 0.947819
Zn10  Zn    Zn3+2 0.541810 0.500000 0.583590 0.937754
Zn11  Zn    Zn3+2 0.958190 0.000000 0.416410 0.947803
Zn12  Zn    Zn3+2 0.041810 1.000000 0.583590 0.937761
N1    N     N_2   0.373035 0.767505 0.894256 -0.305725
H45   H     H_    0.331414 0.759549 0.869960 0.243364
C145  C     C_3   0.393154 0.808446 0.935680 -0.767208
H46   H     H_    0.356298 0.831033 0.910897 0.225850
H47   H     H_    0.425131 0.824989 0.934954 0.252141
H48   H     H_    0.413561 0.801865 0.995061 0.250780
N2    N     N_2   0.537612 0.825859 0.105154 -0.311402
H49   H     H_    0.521977 0.845027 0.124569 0.246994
C146  C     C_3   0.566572 0.851268 0.086398 -0.798180
H50   H     H_    0.538390 0.878670 0.048704 0.237661
H51   H     H_    0.576065 0.830662 0.056474 0.248482
H52   H     H_    0.607348 0.865011 0.138352 0.239715
N3    N     N_2   0.873028 0.267468 0.894256 -0.305733
H53   H     H_    0.831414 0.259496 0.869966 0.243352
C147  C     C_3   0.893121 0.308412 0.935671 -0.767119
H54   H     H_    0.856252 0.330991 0.910867 0.225834
H55   H     H_    0.925103 0.324964 0.934960 0.252152
H56   H     H_    0.913519 0.301830 0.995051 0.250783
N4    N     N_2   0.037461 0.325829 0.105141 -0.311371
H57   H     H_    0.021786 0.344948 0.124558 0.246948
C148  C     C_3   0.066364 0.351318 0.086369 -0.798132
H58   H     H_    0.038117 0.378699 0.048667 0.237626
H59   H     H_    0.075901 0.330757 0.056449 0.248457
H60   H     H_    0.107112 0.365098 0.138316 0.239715
N5    N     N_2   0.757542 0.842233 0.331701 -0.302718
H61   H     H_    0.718045 0.842138 0.277985 0.224957
C149  C     C_3   0.802359 0.822093 0.335589 -0.739450
H62   H     H_    0.791335 0.787167 0.318908 0.236116
H63   H     H_    0.844787 0.823388 0.393258 0.252094
H64   H     H_    0.805293 0.838427 0.295841 0.221858
N6    N     N_2   0.077515 0.776476 0.495955 -0.275536
H65   H     H_    0.094562 0.746175 0.500940 0.233798
C150  C     C_3   0.038459 0.792776 0.419147 -0.718614
H66   H     H_    0.001812 0.769724 0.383517 0.221613
H67   H     H_    0.060618 0.794645 0.396123 0.231725
H68   H     H_    0.020862 0.825410 0.415297 0.240848
N7    N     N_2   0.257536 0.342240 0.331671 -0.302640
H69   H     H_    0.218033 0.342144 0.277950 0.224915
C151  C     C_3   0.302359 0.322119 0.335543 -0.739220
H70   H     H_    0.291357 0.287182 0.318867 0.236050
H71   H     H_    0.344797 0.323424 0.393221 0.252054
H72   H     H_    0.305265 0.338467 0.295772 0.221812
N8    N     N_2   0.577459 0.276475 0.495838 -0.275534
H73   H     H_    0.594499 0.246173 0.500811 0.233792
C152  C     C_3   0.538433 0.292796 0.419042 -0.718681
H74   H     H_    0.501779 0.269754 0.383376 0.221607
H75   H     H_    0.560615 0.294670 0.396051 0.231699
H76   H     H_    0.520845 0.325432 0.415204 0.240868
N9    N     N_2   0.112119 0.811652 0.115074 -0.313958
H77   H     H_    0.075319 0.820617 0.062094 0.228061
C153  C     C_3   0.159654 0.802027 0.117725 -0.800146
H78   H     H_    0.164006 0.828646 0.089446 0.240068
H79   H     H_    0.151805 0.770659 0.088169 0.241672
H80   H     H_    0.200589 0.799848 0.176945 0.244266
N10   N     N_2   0.889049 0.812455 0.885321 -0.313878
H81   H     H_    0.926035 0.821296 0.938269 0.227842
C154  C     C_3   0.841495 0.803495 0.882873 -0.796848
H82   H     H_    0.837626 0.830380 0.911347 0.240023
H83   H     H_    0.848963 0.772233 0.912347 0.241413
H84   H     H_    0.800453 0.801475 0.823708 0.245121
N11   N     N_2   0.612508 0.311282 0.115056 -0.313940
H85   H     H_    0.575765 0.320315 0.062076 0.228122
C155  C     C_3   0.659974 0.301350 0.117700 -0.800220
H86   H     H_    0.664498 0.327847 0.089420 0.240088
H87   H     H_    0.651915 0.269941 0.088136 0.241657
H88   H     H_    0.700895 0.299092 0.176922 0.244252
N12   N     N_2   0.388848 0.312264 0.885316 -0.313917
H89   H     H_    0.425806 0.321145 0.938258 0.227942
C156  C     C_3   0.341353 0.303135 0.882898 -0.797179
H90   H     H_    0.337377 0.329961 0.911340 0.240094
H91   H     H_    0.348962 0.271868 0.912418 0.241454
H92   H     H_    0.300322 0.301046 0.823738 0.245196
N13   N     N_3   0.545054 0.648806 0.521331 -0.458283
H93   H     H_    0.560911 0.636402 0.573372 0.190151
H94   H     H_    0.543157 0.682823 0.524450 0.173873
N14   N     N_3   0.402292 0.636045 0.404166 -0.427811
H95   H     H_    0.423215 0.665986 0.415962 0.190226
H96   H     H_    0.363159 0.637363 0.348848 0.183123
N15   N     N_3   0.045138 0.148799 0.521479 -0.458308
H97   H     H_    0.061016 0.136376 0.573517 0.190184
H98   H     H_    0.043264 0.182814 0.524638 0.173886
N16   N     N_3   0.902310 0.136051 0.404185 -0.427837
H99   H     H_    0.923239 0.165990 0.415993 0.190224
H100  H     H_    0.863180 0.137374 0.348866 0.183114
N17   N     N_3   0.688371 0.515027 0.543688 -0.434968
H101  H     H_    0.708598 0.532119 0.594112 0.202043
H102  H     H_    0.658948 0.494018 0.538219 0.189815
N18   N     N_3   0.354896 0.520751 0.525456 -0.434657
H103  H     H_    0.330150 0.532121 0.470101 0.189673
H104  H     H_    0.385861 0.499738 0.534662 0.188671
N19   N     N_3   0.188278 0.015012 0.543465 -0.435008
H105  H     H_    0.208568 0.032081 0.593920 0.202059
H106  H     H_    0.158857 0.994021 0.538032 0.189778
N20   N     N_3   0.854899 0.020751 0.525456 -0.434660
H107  H     H_    0.830155 0.032120 0.470102 0.189681
H108  H     H_    0.885865 0.999739 0.534665 0.188675
N21   N     N_3   0.754632 0.576995 0.544429 -0.445032
H109  H     H_    0.776089 0.600072 0.537579 0.201610
H110  H     H_    0.763537 0.585302 0.594514 0.168811
N22   N     N_3   0.283975 0.579979 0.516595 -0.441460
H111  H     H_    0.260171 0.600254 0.523444 0.209032
H112  H     H_    0.269803 0.586067 0.462829 0.177181
N23   N     N_3   0.254533 0.076976 0.544185 -0.445038
H113  H     H_    0.275983 0.100047 0.537316 0.201631
H114  H     H_    0.263489 0.085269 0.594306 0.168826
N24   N     N_3   0.783973 0.079979 0.516584 -0.441461
H115  H     H_    0.760166 0.100256 0.523426 0.209037
H116  H     H_    0.769804 0.086066 0.462822 0.177193
N25   N     N_2   0.290480 0.773649 0.735424 -0.328864
H117  H     H_    0.258312 0.755776 0.688678 0.236187
C157  C     C_3   0.281721 0.820397 0.723255 -0.801458
H118  H     H_    0.282169 0.830429 0.677998 0.236180
H119  H     H_    0.315690 0.838578 0.775726 0.261032
H120  H     H_    0.239603 0.829253 0.706374 0.234443
N26   N     N_2   0.612111 0.829439 0.264378 -0.311219
H121  H     H_    0.653523 0.837839 0.310874 0.234710
C158  C     C_3   0.569057 0.839392 0.270577 -0.777980
H122  H     H_    0.587283 0.834923 0.329573 0.253530
H123  H     H_    0.530376 0.818193 0.233226 0.233043
H124  H     H_    0.555521 0.874039 0.254377 0.230414
N27   N     N_2   0.790470 0.273614 0.735428 -0.328850
H125  H     H_    0.758308 0.255733 0.688690 0.236211
C159  C     C_3   0.781689 0.320361 0.723244 -0.801428
H126  H     H_    0.782138 0.330393 0.677988 0.236166
H127  H     H_    0.815647 0.338550 0.775710 0.261014
H128  H     H_    0.739565 0.329206 0.706355 0.234439
N28   N     N_2   0.111993 0.329418 0.264365 -0.311124
H129  H     H_    0.153400 0.337862 0.310835 0.234659
C160  C     C_3   0.068934 0.339303 0.270591 -0.777663
H130  H     H_    0.087223 0.334917 0.329633 0.253410
H131  H     H_    0.030338 0.318000 0.233387 0.233028
H132  H     H_    0.055244 0.373917 0.254220 0.230330
N29   N     N_2   0.680708 0.584013 0.408935 -0.297002
H133  H     H_    0.693839 0.556899 0.397258 0.225680
C161  C     C_3   0.625846 0.601399 0.343222 -0.789876
H134  H     H_    0.624454 0.601524 0.294594 0.231030
H135  H     H_    0.620462 0.635724 0.353319 0.249819
H136  H     H_    0.589820 0.580968 0.328541 0.232385
N30   N     N_2   0.360885 0.599304 0.647477 -0.299555
H137  H     H_    0.354885 0.572709 0.668823 0.231970
C162  C     C_3   0.412688 0.623960 0.704311 -0.797729
H138  H     H_    0.416536 0.628522 0.754533 0.245112
H139  H     H_    0.410566 0.656913 0.682716 0.243140
H140  H     H_    0.451325 0.606250 0.721642 0.229979
N31   N     N_2   0.180546 0.084065 0.408721 -0.297057
H141  H     H_    0.193626 0.056956 0.396966 0.225699
C163  C     C_3   0.125686 0.101490 0.343080 -0.789938
H142  H     H_    0.124244 0.101637 0.294413 0.231067
H143  H     H_    0.120354 0.135811 0.353250 0.249827
H144  H     H_    0.089657 0.081074 0.328420 0.232415
N32   N     N_2   0.860874 0.099304 0.647462 -0.299561
H145  H     H_    0.854873 0.072710 0.668806 0.231976
C164  C     C_3   0.912675 0.123961 0.704297 -0.797748
H146  H     H_    0.916521 0.128518 0.754517 0.245115
H147  H     H_    0.910549 0.156915 0.682703 0.243155
H148  H     H_    0.951316 0.106255 0.721631 0.229977
N33   N     N_2   0.934137 0.808759 0.615375 -0.293478
H149  H     H_    0.973820 0.800766 0.632415 0.222260
C165  C     C_3   0.936750 0.815911 0.678670 -0.761345
H150  H     H_    0.963546 0.845144 0.711178 0.233056
H151  H     H_    0.956274 0.786896 0.716253 0.240402
H152  H     H_    0.892987 0.820786 0.659282 0.236150
N34   N     N_2   0.152228 0.887134 0.404588 -0.298208
H153  H     H_    0.115924 0.893613 0.349747 0.216285
C166  C     C_3   0.197855 0.918022 0.431563 -0.728191
H154  H     H_    0.184559 0.951693 0.432634 0.230441
H155  H     H_    0.207619 0.917637 0.393438 0.225752
H156  H     H_    0.237562 0.908988 0.489059 0.259636
N35   N     N_2   0.434149 0.308778 0.615431 -0.293451
H157  H     H_    0.473850 0.300791 0.632511 0.222213
C167  C     C_3   0.436731 0.315954 0.678707 -0.761214
H158  H     H_    0.463489 0.345212 0.711185 0.233019
H159  H     H_    0.456287 0.286957 0.716342 0.240341
H160  H     H_    0.392949 0.320808 0.659279 0.236154
N36   N     N_2   0.652299 0.387169 0.404673 -0.298149
H161  H     H_    0.616011 0.393665 0.349830 0.216285
C168  C     C_3   0.697944 0.418050 0.431708 -0.728186
H162  H     H_    0.684656 0.451719 0.432801 0.230392
H163  H     H_    0.707733 0.417681 0.393610 0.225765
H164  H     H_    0.737635 0.408998 0.489205 0.259629

loop_
_geom_bond_atom_site_label_1
_geom_bond_atom_site_label_2
_ccdc_geom_bond_type
C99   C103  A    
N2    C146  S    
C96   N16   S    
N25   H117  S    
C55   C59   A    
C47   C136  S    
N34   C166  S    
O37   Zn1   S    
C168  H162  S    
C48   C135  S    
C77   C101  A    
N8    H73   S    
C136  C140  A    
O1    Zn1   S    
O34   Zn6   S    
C114  O46   A    
N17   H101  S    
C150  H68   S    
C133  C137  A    
O14   Zn11  S    
C108  H20   S    
O22   Zn2   S    
C92   O36   A    
C95   C99   A    
C123  O39   A    
C29   C33   A    
C100  C104  A    
C121  O37   A    
C147  H55   S    
C165  H152  S    
O31   Zn3   S    
C160  H132  S    
C115  O7    A    
O38   Zn2   S    
C124  O40   A    
C40   H36   S    
C48   O24   A    
C65   N9    S    
N14   H95   S    
C70   C74   S    
C45   O25   A    
C151  H71   S    
C3    C19   S    
C16   C44   S    
C142  H26   S    
C166  H155  S    
C49   C69   A    
C101  C105  S    
C130  C134  A    
C100  C115  S    
C51   C71   A    
C137  H21   S    
C4    O20   A    
C25   C29   A    
C66   N10   S    
N12   C156  S    
N16   H99   S    
C27   C31   A    
O20   Zn8   S    
C28   C32   A    
C167  H160  S    
N10   C154  S    
C99   C116  S    
C62   C66   A    
N20   H107  S    
C67   N11   S    
C46   O22   A    
C17   C21   A    
C156  H92   S    
C135  C139  A    
C75   C76   T    
C13   C33   A    
C52   C72   A    
C78   C82   A    
N10   H81   S    
C43   H43   S    
C68   C72   A    
C37   H37   S    
C80   C112  S    
C141  H25   S    
C139  H23   S    
C124  O44   A    
C129  C133  A    
C112  N32   S    
C148  H59   S    
C125  C129  A    
N29   H133  S    
C168  H164  S    
O30   Zn2   S    
C161  H134  S    
C41   N5    S    
C95   N15   S    
C59   C124  S    
N32   C164  S    
C114  O6    A    
C84   C88   A    
N18   H103  S    
N28   H129  S    
C57   C61   A    
C83   C91   S    
N31   H141  S    
C59   C63   A    
C60   C64   A    
O26   Zn6   S    
C3    O19   A    
C125  N1    S    
C50   C70   A    
N7    C151  S    
N33   H149  S    
O45   Zn9   S    
C113  O45   A    
O15   Zn10  S    
C94   N14   S    
N22   H111  S    
C128  N4    S    
C87   H15   S    
C51   C55   A    
N6    C150  S    
C127  C131  A    
C4    C20   S    
C129  N25   S    
C109  N21   S    
C159  H127  S    
N13   H93   S    
C157  H118  S    
C26   H30   S    
O32   Zn4   S    
C103  C107  S    
C158  H122  S    
C93   N13   S    
C47   O23   A    
O48   Zn12  S    
C167  H158  S    
C7    C143  A    
C164  H146  S    
C54   H6    S    
C94   C98   A    
O33   Zn5   S    
N1    H45   S    
C64   C68   A    
C109  N29   S    
N8    C152  S    
O21   Zn1   S    
O40   Zn4   S    
O19   Zn7   S    
C89   O33   A    
N3    H53   S    
C49   C53   A    
O4    Zn4   S    
N32   H145  S    
C146  H50   S    
C85   C93   A    
C8    C128  A    
C154  H83   S    
C87   C95   A    
C162  H140  S    
O5    Zn10  S    
C2    O18   A    
C9    C10   T    
O16   Zn9   S    
C132  C136  A    
C88   H16   S    
C52   H4    S    
C53   H5    S    
N9    C153  S    
C79   C103  A    
C118  O14   A    
O17   Zn5   S    
N35   C167  S    
O28   Zn8   S    
N11   C155  S    
C121  O41   A    
C30   C34   A    
C149  H64   S    
C157  H119  S    
C158  H124  S    
O35   Zn7   S    
N15   H98   S    
C145  H48   S    
C30   C118  S    
O9    Zn11  S    
C45   O21   A    
C60   C123  S    
C132  N28   S    
C5    C9    S    
C152  H74   S    
O42   Zn6   S    
C61   C65   A    
C110  N22   S    
C8    C12   S    
C159  H128  S    
C77   C109  S    
C107  H19   S    
C26   C30   A    
C155  H87   S    
C120  O16   A    
C105  H17   S    
C6    C142  A    
C118  O10   A    
O29   Zn1   S    
C164  H148  S    
C162  H139  S    
C21   C25   A    
C18   C22   A    
C107  C111  S    
C24   C28   A    
N30   C162  S    
C14   C34   A    
C39   H35   S    
N4    H57   S    
C150  H67   S    
C37   H33   S    
C66   C70   A    
C1    C17   S    
C38   H38   S    
C13   C17   A    
C138  H22   S    
C146  H52   S    
C161  H136  S    
C15   C43   S    
C16   C36   A    
C96   C100  A    
N5    C149  S    
C157  H120  S    
C165  H151  S    
C37   C41   S    
C153  H80   S    
C90   O30   A    
C116  O8    A    
C40   C44   S    
N14   H96   S    
N24   H115  S    
C5    C125  A    
C84   C92   S    
C7    C127  A    
C97   C114  S    
C81   C85   A    
N27   C159  S    
C1    O1    A    
C58   C62   A    
C83   C87   A    
C88   C96   A    
C105  N17   S    
C166  H154  S    
C44   N8    S    
C93   C97   A    
C78   C102  A    
C158  H123  S    
C73   C74   T    
C4    O4    A    
C149  H62   S    
O2    Zn2   S    
C80   C84   A    
C13   C41   S    
C145  H46   S    
N36   C168  S    
C15   C19   A    
C50   C54   A    
N16   H100  S    
C80   C104  A    
C119  O11   A    
C167  H159  S    
C152  H76   S    
C54   C58   A    
C163  H144  S    
N20   H108  S    
C126  C130  A    
C159  H126  S    
C122  O38   A    
C111  N31   S    
C156  H91   S    
C105  C109  S    
C57   C122  S    
N23   H113  S    
O10   Zn12  S    
C47   O27   A    
N26   H121  S    
C69   C73   S    
C56   H8    S    
C81   C89   S    
C50   H2    S    
N12   H89   S    
N25   C157  S    
C148  H58   S    
C168  H163  S    
C85   H13   S    
N17   H102  S    
C130  N26   S    
C119  O15   A    
C6    C126  A    
N18   H104  S    
C138  C142  A    
C27   H31   S    
C53   C57   A    
C28   H32   S    
C98   C113  S    
C82   C86   A    
C33   C37   S    
C56   C60   A    
C68   N12   S    
C23   N35   S    
C35   C39   S    
C153  H78   S    
N7    H69   S    
O41   Zn5   S    
N19   H105  S    
C77   C81   A    
O39   Zn3   S    
C116  O48   A    
N22   H112  S    
C151  H72   S    
C49   H1    S    
C31   C119  S    
O24   Zn4   S    
C166  H156  S    
O8    Zn11  S    
C31   C35   A    
C112  N24   S    
C91   O35   A    
C32   C36   A    
C104  C108  S    
C131  N27   S    
C137  C141  A    
N30   H137  S    
C58   C121  S    
O44   Zn8   S    
C113  O5    A    
C140  C144  A    
C6    C10   S    
C163  H142  S    
N23   H114  S    
C38   C42   S    
O7    Zn12  S    
C144  H28   S    
O27   Zn7   S    
C82   C90   S    
O25   Zn5   S    
N6    H65   S    
C143  H27   S    
N15   H97   S    
C98   C102  A    
O46   Zn10  S    
C46   C133  S    
C79   C83   A    
N4    C148  S    
C65   C69   A    
C120  O12   A    
C67   C71   A    
C106  H18   S    
C25   H29   S    
C108  C112  S    
C24   N36   S    
C123  O43   A    
C154  H82   S    
C22   C26   A    
C148  H60   S    
N34   H153  S    
N29   C161  S    
C39   H39   S    
C40   H40   S    
C140  H24   S    
C147  H56   S    
C155  H86   S    
C48   O28   A    
C115  O47   A    
C38   H34   S    
C110  N30   S    
C2    C18   S    
N9    H77   S    
C14   C18   A    
C19   C23   A    
C72   C76   S    
N35   H157  S    
N11   H85   S    
C7    C11   S    
N31   C163  S    
C45   C134  S    
C149  H63   S    
C90   O34   A    
C131  C135  A    
N33   C165  S    
C145  H47   S    
C92   O32   A    
C86   C94   A    
C20   C24   A    
C46   O26   A    
O6    Zn9   S    
C2    O2    A    
C165  H150  S    
C126  N2    S    
C23   C27   A    
C1    O17   A    
C16   C20   A    
C14   C42   S    
C42   H42   S    
O13   Zn12  S    
C111  N23   S    
N26   C158  S    
O18   Zn6   S    
C139  C143  A    
C32   C120  S    
C117  O13   A    
C128  C132  A    
O47   Zn11  S    
C164  H147  S    
N28   C160  S    
O3    Zn3   S    
C122  O42   A    
C63   C67   A    
N1    C145  S    
C160  H131  S    
C36   C40   S    
O12   Zn10  S    
N36   H161  S    
N3    C147  S    
O36   Zn8   S    
C39   C43   S    
N13   H94   S    
C150  H66   S    
C29   C117  S    
C127  N3    S    
C146  H51   S    
O43   Zn7   S    
C161  H135  S    
C3    O3    A    
C106  N18   S    
C5    C141  A    
C51   H3    S    
C154  H84   S    
N5    H61   S    
C41   H41   S    
C78   C110  S    
C153  H79   S    
C160  H130  S    
C44   H44   S    
N19   H106  S    
N24   H116  S    
C151  H70   S    
O23   Zn3   S    
N2    H49   S    
C117  O9    A    
N27   H125  S    
C106  C110  S    
C55   H7    S    
C34   C38   S    
C108  N20   S    
C61   H9    S    
C134  C138  A    
C11   C12   T    
C86   H14   S    
C21   N33   S    
C64   H12   S    
C79   C111  S    
C147  H54   S    
C63   H11   S    
C152  H75   S    
C71   C75   S    
C42   N6    S    
C163  H143  S    
N21   H110  S    
C162  H138  S    
C102  C106  S    
C22   N34   S    
C91   O31   A    
C156  H90   S    
C15   C35   A    
C107  N19   S    
O11   Zn9   S    
C89   O29   A    
C8    C144  A    
C155  H88   S    
C62   H10   S    
N21   H109  S    
C97   C101  A    
C52   C56   A    
C43   N7    S    
