data_mof_unit_47144.cif
_audit_creation_date              2012-12-11T14:04:20-0500
_audit_creation_method            fapswitch 2.2
_symmetry_space_group_name_H-M    P1
_symmetry_Int_Tables_number       1
_space_group_crystal_system       triclinic
_cell_length_a                    19.002988
_cell_length_b                    11.013013
_cell_length_c                    18.945596
_cell_angle_alpha                 89.679502
_cell_angle_beta                  90.018078
_cell_angle_gamma                 90.295391
_cell_volume                      3964.82235971

loop_
_atom_site_label
_atom_site_type_symbol
_atom_type_description
_atom_site_fract_x
_atom_site_fract_y
_atom_site_fract_z
_atom_type_partial_charge
C1    C     C_R   0.238661 0.470200 0.646164 0.574552
C2    C     C_R   0.997168 0.666519 0.573565 -0.013583
C3    C     C_R   0.506938 0.157546 0.424491 -0.015315
C4    C     C_R   0.497157 0.166523 0.573571 -0.013321
C5    C     C_R   0.034879 0.874753 0.421193 -0.067241
C6    C     C_R   0.007348 0.891757 0.565320 -0.052159
C7    C     C_R   0.534872 0.374750 0.421199 -0.067195
C8    C     C_R   0.507341 0.391760 0.565325 -0.052369
C9    C     C_R   0.042027 0.985687 0.455181 -0.114380
C10   C     C_R   0.026362 0.994937 0.526644 -0.106675
C11   C     C_R   0.542019 0.485686 0.455186 -0.114614
C12   C     C_R   0.761017 0.470041 0.353576 0.561113
C13   C     C_R   0.526355 0.494939 0.526648 -0.106786
C14   C     C_R   0.006484 0.775770 0.533584 0.044147
C15   C     C_R   0.015230 0.769487 0.459164 0.042188
C16   C     C_R   0.506474 0.275772 0.533590 0.044797
C17   C     C_R   0.515220 0.269486 0.459170 0.041990
C18   C     C_R   0.986306 0.556164 0.537227 0.024356
C19   C     C_R   0.004520 0.549247 0.465604 0.024830
C20   C     C_R   0.486286 0.056169 0.537237 0.025043
C21   C     C_R   0.504498 0.049245 0.465615 0.024539
C22   C     C_R   0.961731 0.449738 0.571819 -0.086661
C23   C     C_R   0.738664 0.970189 0.646167 0.570346
C24   C     C_R   0.015966 0.432837 0.436453 -0.088588
C25   C     C_R   0.461709 0.949749 0.571835 -0.086659
C26   C     C_R   0.515939 0.932829 0.436469 -0.088846
C27   C     C_R   0.966092 0.336875 0.539498 -0.126267
C28   C     C_R   0.995808 0.328107 0.472807 -0.131543
C29   C     C_R   0.466066 0.836882 0.539520 -0.126476
C30   C     C_R   0.495779 0.828104 0.472828 -0.131946
C31   C     C_2   0.251473 0.924881 0.918914 -0.101136
C32   C     C_2   0.786631 0.827107 0.063137 -0.125894
C33   C     C_2   0.744644 0.403134 0.925017 -0.109941
C34   C     C_R   0.261015 0.970036 0.353573 0.558594
C35   C     C_2   0.249013 0.434510 0.083713 -0.113547
C36   C     C_2   0.255384 0.929060 0.075295 -0.043743
C37   C     C_2   0.752426 0.902918 0.917570 -0.026238
C38   C     C_2   0.752878 0.419312 0.078948 -0.045941
C39   C     C_2   0.230000 0.480874 0.931269 -0.054657
C40   C     C_R   0.226496 0.872203 0.647587 0.559126
C41   C     C_R   0.773417 0.871946 0.352672 0.572608
C42   C     C_R   0.726495 0.372201 0.647586 0.561331
C43   C     C_R   0.273412 0.371960 0.352666 0.561039
C44   C     C_2   0.199319 0.961962 0.036261 0.228902
C45   C     C_2   0.288642 0.936815 0.545055 -0.139186
C46   C     C_2   0.818613 0.888398 0.941370 0.225442
C47   C     C_2   0.694833 0.444900 0.041393 0.215620
C48   C     C_2   0.269329 0.547028 0.975089 0.210937
C49   C     C_2   0.206023 0.986524 0.959518 0.054387
C50   C     C_2   0.832737 0.882770 0.018709 0.033646
C51   C     C_2   0.700627 0.468768 0.965000 0.046964
C52   C     C_2   0.294632 0.490024 0.039383 0.061551
C53   C     C_2   0.013725 0.654945 0.927294 -0.085098
C54   C     C_2   0.009707 0.663387 0.083484 -0.099982
C55   C     C_2   0.492789 0.162640 0.917484 -0.102039
C56   C     C_2   0.705018 0.909371 0.456610 -0.130438
C57   C     C_2   0.490010 0.156997 0.074171 -0.077352
C58   C     C_2   0.022660 0.563410 0.045921 -0.163988
C59   C     C_2   0.037406 0.566834 0.970482 -0.155341
C60   C     C_2   0.466667 0.068048 0.031429 -0.147305
C61   C     C_2   0.481681 0.063086 0.956392 -0.160214
C62   C     C_R   0.027800 0.655840 0.645740 0.544028
C63   C     C_R   0.973314 0.654068 0.353433 0.539550
C64   C     C_R   0.527799 0.155841 0.645740 0.538527
C65   C     C_R   0.473309 0.154067 0.353437 0.541238
C66   C     C_R   0.224512 0.516645 0.858187 0.605634
C67   C     C_2   0.788647 0.436801 0.545055 -0.139472
C68   C     C_R   0.760781 0.465170 0.149873 0.573749
C69   C     C_R   0.739304 0.963942 0.850205 0.596210
C70   C     C_R   0.261439 0.967574 0.148453 0.578172
C71   C     C_R   0.228538 0.876862 0.851281 0.575109
C72   C     C_R   0.793230 0.822987 0.140461 0.582102
C73   C     C_R   0.727445 0.373394 0.852830 0.567692
C74   C     C_R   0.273724 0.372405 0.146343 0.569357
C75   C     C_R   0.033461 0.651014 0.853265 0.553920
C76   C     C_R   0.971804 0.652836 0.149966 0.548043
C77   C     C_R   0.528662 0.152304 0.850209 0.551280
C78   C     C_2   0.205011 0.409419 0.456598 -0.130322
C79   C     C_R   0.468152 0.151981 0.147585 0.561231
C80   C     C_2   0.235776 0.874092 0.573235 0.096671
C81   C     C_2   0.764896 0.871964 0.427490 0.093357
C82   C     C_2   0.735777 0.374087 0.573233 0.095463
C83   C     C_2   0.264886 0.371990 0.427482 0.097334
C84   C     C_2   0.250123 0.929818 0.424267 -0.066424
C85   C     C_2   0.749019 0.928464 0.575578 -0.063284
C86   C     C_2   0.750125 0.429822 0.424269 -0.065760
C87   C     C_2   0.249011 0.428498 0.575568 -0.064847
C88   C     C_2   0.303602 0.930410 0.469954 -0.103895
C89   C     C_R   0.006952 0.657550 0.424482 -0.016077
C90   C     C_2   0.694468 0.904437 0.532917 -0.112189
C91   C     C_2   0.803606 0.430400 0.469954 -0.104074
C92   C     C_2   0.194458 0.404486 0.532905 -0.111966
Cr1   Cr    Cr6+3 0.113970 0.508630 0.747920 1.050604
Cr2   Cr    Cr6+3 0.887700 0.820070 0.250200 1.067973
Cr3   Cr    Cr6+3 0.612300 0.320070 0.749800 1.059264
Cr4   Cr    Cr6+3 0.387700 0.320070 0.250200 1.073694
Cr5   Cr    Cr6+3 0.886030 0.508630 0.252080 1.034425
Cr6   Cr    Cr6+3 0.613970 0.008630 0.747920 1.051055
Cr7   Cr    Cr6+3 0.386030 0.008630 0.252080 1.037374
Cr8   Cr    Cr6+3 0.269200 0.666740 0.749850 1.065373
Cr9   Cr    Cr6+3 0.730800 0.666740 0.250150 1.061296
Cr10  Cr    Cr6+3 0.769200 0.166740 0.749850 1.068903
Cr11  Cr    Cr6+3 0.230800 0.166740 0.250150 1.062205
Cr12  Cr    Cr6+3 0.112300 0.820070 0.749800 1.062630
H1    H     H_    0.356930 0.949038 0.452399 0.182963
H2    H     H_    0.742841 0.775852 0.041356 0.107415
H3    H     H_    0.781182 0.339981 0.949107 0.091479
H4    H     H_    0.192818 0.434623 0.072856 0.078866
H5    H     H_    0.017614 0.473675 0.069559 0.174216
H6    H     H_    0.065217 0.489005 0.949439 0.163839
H7    H     H_    0.437767 0.990535 0.052533 0.162038
H8    H     H_    0.486891 0.973083 0.933817 0.175437
H9    H     H_    0.018470 0.753203 0.061293 0.143590
H10   H     H_    0.986902 0.733423 0.947623 0.102346
H11   H     H_    0.518632 0.235649 0.054408 0.128801
H12   H     H_    0.640811 0.903672 0.552722 0.171196
H13   H     H_    0.484561 0.252619 0.939092 0.140061
H14   H     H_    0.320287 0.996774 0.577604 0.121641
H15   H     H_    0.664562 0.950904 0.424167 0.118162
H16   H     H_    0.820297 0.496754 0.577604 0.122520
H17   H     H_    0.164563 0.450964 0.424151 0.116180
H18   H     H_    0.196092 0.931833 0.442834 0.142243
H19   H     H_    0.800825 0.947295 0.553872 0.150634
H20   H     H_    0.696095 0.431843 0.442838 0.142115
H21   H     H_    0.300816 0.447329 0.553861 0.149919
H22   H     H_    0.059519 0.064451 0.425625 0.115186
H23   H     H_    0.856935 0.449020 0.452398 0.183023
H24   H     H_    0.029663 0.082093 0.552481 0.112346
H25   H     H_    0.559511 0.564451 0.425628 0.115314
H26   H     H_    0.529656 0.582095 0.552484 0.111549
H27   H     H_    0.047856 0.870692 0.365624 0.127698
H28   H     H_    0.992267 0.904597 0.619730 0.139261
H29   H     H_    0.547851 0.370688 0.365631 0.128805
H30   H     H_    0.492261 0.404600 0.619734 0.135820
H31   H     H_    0.039533 0.422194 0.384863 0.133644
H32   H     H_    0.939220 0.453592 0.624264 0.132136
H33   H     H_    0.539508 0.922175 0.384881 0.135784
H34   H     H_    0.140801 0.403727 0.552709 0.171071
H35   H     H_    0.439202 0.953612 0.624283 0.129900
H36   H     H_    0.947605 0.256250 0.566793 0.126164
H37   H     H_    0.001063 0.240711 0.448100 0.116570
H38   H     H_    0.447579 0.756262 0.566819 0.125211
H39   H     H_    0.501034 0.740704 0.448125 0.116494
H40   H     H_    0.097847 0.981876 0.033469 0.356476
H41   H     H_    0.918181 0.883753 0.917855 0.339711
H42   H     H_    0.593338 0.463857 0.040220 0.356069
H43   H     H_    0.323466 0.692615 0.993318 0.329555
H44   H     H_    0.304722 0.903741 0.051139 0.029486
H45   H     H_    0.707345 0.892341 0.952222 0.072458
H46   H     H_    0.802198 0.397146 0.053470 0.061412
H47   H     H_    0.207831 0.393933 0.947562 0.089765
H48   H     H_    0.295502 0.877797 0.941725 0.112322
I1    I     I_    0.140923 0.127418 0.916321 -0.330160
I2    I     I_    0.923235 0.985220 0.052486 -0.331232
I3    I     I_    0.638887 0.615870 0.924058 -0.343488
I4    I     I_    0.407735 0.482904 0.043051 -0.323334
I5    I     I_    0.187988 0.720169 0.524286 -0.424020
I6    I     I_    0.831213 0.741370 0.476728 -0.433388
I7    I     I_    0.687989 0.220162 0.524283 -0.421565
I8    I     I_    0.331193 0.241386 0.476726 -0.434041
O1    O     O_R   0.043230 0.549300 0.667990 -0.515173
O2    O     O_R   0.832470 0.905110 0.169660 -0.463436
O3    O     O_R   0.667530 0.405110 0.830340 -0.470403
O4    O     O_R   0.332470 0.405110 0.169660 -0.477025
O5    O     O_R   0.054010 0.748440 0.822860 -0.485440
O6    O     O_R   0.945990 0.748440 0.177140 -0.496231
O7    O     O_R   0.554010 0.248440 0.822860 -0.490712
O8    O     O_R   0.445990 0.248440 0.177140 -0.475495
O9    O     O_3   0.165160 0.665150 0.749190 -0.285305
O10   O     O_3   0.834840 0.665150 0.250810 -0.285658
O11   O     O_3   0.665160 0.165150 0.749190 -0.263351
O12   O     O_R   0.956770 0.549300 0.332010 -0.523340
O13   O     O_3   0.334840 0.165150 0.250810 -0.263360
O14   O     O_R   0.178620 0.457600 0.674100 -0.487197
O15   O     O_R   0.821380 0.457600 0.325900 -0.488604
O16   O     O_R   0.678620 0.957600 0.674100 -0.493017
O17   O     O_R   0.321380 0.957600 0.325900 -0.491119
O18   O     O_R   0.284680 0.542100 0.669460 -0.509852
O19   O     O_R   0.715320 0.542100 0.330540 -0.516960
O20   O     O_R   0.784680 0.042100 0.669460 -0.506445
O21   O     O_R   0.215320 0.042100 0.330540 -0.517821
O22   O     O_R   0.262860 0.790390 0.676650 -0.500039
O23   O     O_R   0.543230 0.049300 0.667990 -0.517474
O24   O     O_R   0.737140 0.790390 0.323350 -0.496444
O25   O     O_R   0.762860 0.290390 0.676650 -0.496408
O26   O     O_R   0.237140 0.290390 0.323350 -0.502518
O27   O     O_R   0.167460 0.907030 0.670940 -0.499782
O28   O     O_R   0.832540 0.907030 0.329060 -0.487262
O29   O     O_R   0.667460 0.407030 0.670940 -0.500551
O30   O     O_R   0.332540 0.407030 0.329060 -0.492967
O31   O     O_R   0.053950 0.750220 0.675100 -0.497034
O32   O     O_R   0.946050 0.750220 0.324900 -0.486064
O33   O     O_R   0.553950 0.250220 0.675100 -0.501661
O34   O     O_R   0.456770 0.049300 0.332010 -0.522898
O35   O     O_R   0.446050 0.250220 0.324900 -0.486437
O36   O     O_R   0.043300 0.547370 0.827390 -0.517000
O37   O     O_R   0.956700 0.547370 0.172610 -0.515718
O38   O     O_R   0.543300 0.047370 0.827390 -0.511260
O39   O     O_R   0.456700 0.047370 0.172610 -0.516767
O40   O     O_R   0.178690 0.455820 0.821860 -0.506324
O41   O     O_R   0.821310 0.455820 0.178140 -0.513994
O42   O     O_R   0.678690 0.955820 0.821860 -0.502724
O43   O     O_R   0.321310 0.955820 0.178140 -0.521280
O44   O     O_R   0.284750 0.540170 0.828860 -0.445692
O45   O     O_R   0.262920 0.788600 0.824420 -0.483129
O46   O     O_R   0.715250 0.540170 0.171140 -0.448727
O47   O     O_R   0.784750 0.040170 0.828860 -0.447079
O48   O     O_R   0.215250 0.040170 0.171140 -0.436148
O49   O     O_3   0.135476 0.980628 0.069599 -0.646781
O50   O     O_3   0.873231 0.897335 0.893225 -0.658404
O51   O     O_3   0.631444 0.461924 0.075885 -0.646931
O52   O     O_3   0.296939 0.657076 0.953294 -0.682171
O53   O     O_R   0.737080 0.788600 0.175580 -0.493471
O54   O     O_R   0.762920 0.288600 0.824420 -0.506431
O55   O     O_R   0.237080 0.288600 0.175580 -0.497135
O56   O     O_R   0.167530 0.905110 0.830340 -0.477556

loop_
_geom_bond_atom_site_label_1
_geom_bond_atom_site_label_2
_ccdc_geom_bond_type
C45   H14   S    
C1    C87   S    
C21   C26   A    
C35   C74   S    
C8    C13   A    
Cr5   O15   S    
C47   O51   S    
C74   O55   A    
C2    C18   A    
C58   H5    S    
C43   C83   S    
C57   C79   S    
C42   C82   S    
C26   H33   S    
C92   H34   S    
Cr2   O6    S    
H42   O51   S    
C53   C59   D    
C56   C81   D    
C32   C72   S    
C40   O27   A    
C3    C65   S    
C71   O56   A    
C7    C11   A    
Cr7   O34   S    
Cr1   O9    S    
Cr5   O12   S    
C91   H23   S    
Cr9   O19   S    
C49   I1    S    
C25   H35   S    
Cr2   O28   S    
C7    H29   S    
C48   C52   S    
C37   C69   S    
C86   C91   D    
C54   C58   D    
C55   C77   S    
C55   H13   S    
C62   O1    A    
C15   C89   A    
C20   C25   A    
C65   O34   A    
C70   O48   A    
C63   O32   A    
C54   H9    S    
C39   H47   S    
Cr1   O14   S    
Cr11  O13   S    
Cr10  O47   S    
Cr10  O20   S    
C34   O21   A    
C44   O49   S    
Cr4   O30   S    
Cr6   O23   S    
C78   H17   S    
C35   H4    S    
Cr12  O5    S    
C64   O23   A    
C78   C83   D    
C36   H44   S    
Cr4   O35   S    
C83   I8    S    
C48   O52   S    
C43   O30   A    
Cr9   O53   S    
C16   C17   A    
C7    C17   A    
C33   H3    S    
C13   H26   S    
C40   C80   S    
C41   O24   A    
C76   O6    A    
C90   H12   S    
C79   O8    A    
Cr8   O22   S    
C67   H16   S    
Cr2   O2    S    
C66   O44   A    
C75   O36   A    
C56   C90   S    
C72   O53   A    
C68   O41   A    
Cr8   O18   S    
C69   O42   A    
C8    C16   A    
Cr11  O21   S    
C87   C92   D    
C53   C75   S    
Cr11  O26   S    
C34   C84   S    
C31   C49   D    
C10   H24   S    
C11   H25   S    
C67   C91   S    
H40   O49   S    
C36   C70   S    
C40   O22   A    
C25   C29   A    
C85   C90   D    
C82   I7    S    
C1    O14   A    
C69   O47   A    
Cr10  O25   S    
C79   O39   A    
Cr4   O13   S    
Cr6   O38   S    
C8    H30   S    
Cr5   O37   S    
C45   C88   S    
Cr11  O48   S    
Cr12  O56   S    
C6    H28   S    
Cr5   O41   S    
C18   C19   A    
C57   C60   D    
C47   C51   S    
C23   O16   A    
C57   H11   S    
C43   O26   A    
C78   C92   S    
C58   C59   S    
C46   O50   S    
Cr12  O31   S    
C44   C49   S    
Cr5   O10   S    
Cr4   O4    S    
C41   O28   A    
C22   H32   S    
C60   C61   S    
Cr10  O54   S    
C84   C88   D    
C4    C16   A    
C5    C9    A    
C29   C30   A    
C19   C89   A    
Cr3   O3    S    
C6    C14   A    
Cr6   O16   S    
C1    O18   A    
Cr7   O13   S    
Cr1   O1    S    
C41   C81   S    
Cr8   O45   S    
C51   I3    S    
C64   O33   A    
C63   C89   S    
Cr4   O8    S    
C23   O20   A    
Cr9   O10   S    
C75   O5    A    
Cr10  O11   S    
C32   C50   D    
C38   C47   D    
Cr8   O44   S    
Cr9   O24   S    
C12   O15   A    
C54   C76   S    
Cr6   O11   S    
C42   O25   A    
C33   C73   S    
C38   C68   S    
C26   C30   A    
C22   C27   A    
C86   H20   S    
C39   C66   S    
C73   O54   A    
C36   C44   D    
Cr1   O36   S    
C77   O7    A    
H43   O52   S    
Cr11  O55   S    
Cr1   O40   S    
C87   H21   S    
C53   H10   S    
C24   H31   S    
H41   O50   S    
C9    C10   A    
C70   O43   A    
Cr12  O27   S    
C46   C50   S    
C35   C52   D    
C81   I6    S    
Cr7   O43   S    
Cr8   O9    S    
C18   C22   A    
C84   H18   S    
C63   O12   A    
Cr6   O42   S    
C3    C17   A    
C24   C28   A    
C77   O38   A    
C37   H45   S    
Cr3   O7    S    
C6    C10   A    
C71   O45   A    
C59   H6    S    
Cr7   O17   S    
C62   O31   A    
C33   C51   D    
C12   O19   A    
C4    C64   S    
C31   H48   S    
C9    H22   S    
C12   C86   S    
C76   O37   A    
C19   C24   A    
C73   O3    A    
C60   H7    S    
Cr2   O10   S    
C74   O4    A    
C88   H1    S    
C11   C13   A    
C42   O29   A    
C80   I5    S    
C68   O46   A    
C50   I2    S    
C29   H38   S    
C55   C61   D    
C31   C71   S    
C56   H15   S    
C85   H19   S    
C45   C80   D    
C52   I4    S    
C2    C14   A    
Cr2   O32   S    
C5    C15   A    
C3    C21   A    
Cr9   O46   S    
Cr3   O29   S    
C4    C20   A    
C5    H27   S    
C27   H36   S    
C20   C21   A    
C30   H39   S    
C67   C82   D    
Cr3   O33   S    
C23   C85   S    
Cr7   O39   S    
C27   C28   A    
C72   O2    A    
C14   C15   A    
C39   C48   D    
C34   O17   A    
C32   H2    S    
C28   H37   S    
C37   C46   D    
C61   H8    S    
Cr3   O11   S    
C38   H46   S    
C66   O40   A    
C2    C62   S    
Cr12  O9    S    
C65   O35   A    
