data_mof_unit_28004.cif
_audit_creation_date              2012-12-11T15:34:31-0500
_audit_creation_method            fapswitch 2.2
_symmetry_space_group_name_H-M    P1
_symmetry_Int_Tables_number       1
_space_group_crystal_system       triclinic
_cell_length_a                    15.045501
_cell_length_b                    15.041784
_cell_length_c                    34.855067
_cell_angle_alpha                 90.798195
_cell_angle_beta                  90.000463
_cell_angle_gamma                 60.039269
_cell_volume                      6833.10591404

loop_
_atom_site_label
_atom_site_type_symbol
_atom_type_description
_atom_site_fract_x
_atom_site_fract_y
_atom_site_fract_z
_atom_type_partial_charge
C1    C     C_R   0.300125 0.609481 0.555261 0.562046
C2    C     C_R   0.196899 0.729712 0.394214 -0.134890
C3    C     C_R   0.778022 0.123795 0.269690 -0.126973
C4    C     C_R   0.789521 0.109933 0.229770 0.108574
C5    C     C_R   0.713516 0.186264 0.206178 0.043436
C6    C     C_R   0.746882 0.212867 0.353598 -0.101886
C7    C     C_R   0.721412 0.231200 0.392385 -0.146989
C8    C     C_R   0.558778 0.238324 0.379914 0.141597
C9    C     C_R   0.743237 0.591805 0.646412 0.110977
C10   C     C_R   0.585014 0.220711 0.340855 -0.073206
C11   C     C_R   0.676531 0.212987 0.327516 0.042512
C12   C     C_R   0.624860 0.250410 0.405751 0.044927
C13   C     C_R   0.159431 0.743989 0.356924 -0.084745
C14   C     C_R   0.079271 0.712003 0.094978 0.018862
C15   C     C_R   0.097489 0.619138 0.110954 -0.132494
C16   C     C_R   0.124322 0.599276 0.149432 -0.106771
C17   C     C_R   0.131197 0.672801 0.172297 0.024774
C18   C     C_R   0.123037 0.760580 0.155491 -0.105255
C19   C     C_R   0.097409 0.780058 0.117045 -0.094106
C20   C     C_R   0.220546 0.666884 0.231742 -0.090473
C21   C     C_2   0.846589 0.169738 0.660961 0.578631
C22   C     C_3   0.687975 0.385184 0.716339 -0.226639
C23   C     C_2   0.650741 0.313479 0.795334 0.587174
C24   C     C_R   0.163754 0.661427 0.336230 0.060778
C25   C     C_2   0.528314 0.145619 0.826023 0.583972
C26   C     C_2   0.494458 0.182057 0.588362 0.611966
C27   C     C_3   0.956132 0.108508 0.845896 -0.262172
C28   C     C_3   0.497885 0.866116 0.561279 -0.277159
C29   C     C_3   0.884051 0.147422 0.566050 -0.268783
C30   C     C_3   0.370124 0.378398 0.731001 -0.268771
C31   C     C_3   0.283697 0.775912 0.839828 -0.294855
C32   C     C_3   0.863403 0.440262 0.911244 -0.264543
C33   C     C_2   0.186216 0.497508 0.578760 0.582865
C34   C     C_3   0.609385 0.933446 0.304066 -0.259363
C35   C     C_R   0.579854 0.752845 0.644087 0.034886
C36   C     C_3   0.901730 0.560047 0.678133 -0.264520
C37   C     C_2   0.705791 0.836893 0.220072 0.605290
C38   C     C_3   0.382530 0.912242 0.364951 -0.331511
C39   C     C_3   0.468412 0.132363 0.089561 -0.259514
C40   C     C_2   0.547566 0.393523 0.278709 0.557591
C41   C     C_2   0.501729 0.850057 0.662419 0.580314
C42   C     C_2   0.837527 0.213380 0.145232 0.590140
C43   C     C_2   0.878829 0.013279 0.214595 0.564878
C44   C     C_2   0.557342 0.138138 0.183973 0.586637
C45   C     C_3   0.469548 0.161911 0.410351 -0.285754
C46   C     C_R   0.238350 0.632838 0.411133 0.021338
C47   C     C_2   0.851338 0.522389 0.821110 0.585667
C48   C     C_3   0.316576 0.765492 0.282448 -0.309044
C49   C     C_2   0.981923 0.673192 0.301675 0.632028
C50   C     C_3   0.968588 0.576204 0.213704 -0.246626
C51   C     C_R   0.736274 0.024841 0.943203 0.543664
C52   C     C_R   0.746687 0.722706 0.944598 0.561555
C53   C     C_R   0.038000 0.733957 0.948108 0.540229
C54   C     C_R   0.723398 0.037624 0.053480 0.571228
C55   C     C_R   0.733569 0.734627 0.054857 0.547020
C56   C     C_R   0.666579 0.681883 0.664866 0.003332
C57   C     C_R   0.027266 0.745085 0.057958 0.548843
C58   C     C_R   0.564706 0.727714 0.606310 0.101047
C59   C     C_R   0.677236 0.695474 0.784498 0.352988
C60   C     C_R   0.669155 0.689423 0.707008 0.364565
C61   C     C_R   0.772475 0.609559 0.844349 0.070280
C62   C     C_R   0.785405 0.612356 0.884399 0.107937
C63   C     C_R   0.633724 0.783050 0.887602 -0.166977
C64   C     C_R   0.620039 0.779219 0.848287 -0.156095
C65   C     C_R   0.690178 0.694467 0.826304 -0.011480
C66   C     C_R   0.611196 0.589878 0.554928 0.561058
C67   C     C_R   0.227083 0.669600 0.271440 0.156858
C68   C     C_R   0.718530 0.702520 0.905909 0.019772
C69   C     C_R   0.724274 0.069786 0.904974 -0.041041
C70   C     C_R   0.632547 0.102516 0.885180 -0.140662
C71   C     C_R   0.625794 0.121969 0.845859 0.037966
C72   C     C_R   0.713184 0.112465 0.826370 0.015612
C73   C     C_R   0.805088 0.084969 0.846608 0.155655
C74   C     C_R   0.809266 0.062997 0.885785 -0.098387
C75   C     C_R   0.676295 0.225091 0.769378 0.134788
C76   C     C_R   0.664344 0.238532 0.729377 0.141230
C77   C     C_R   0.689670 0.152532 0.705221 0.044080
C78   C     C_R   0.150892 0.667224 0.294383 -0.023557
C79   C     C_R   0.592127 0.297148 0.552872 0.572961
C80   C     C_R   0.723794 0.055659 0.720866 -0.085776
C81   C     C_R   0.733621 0.043085 0.760352 -0.115169
C82   C     C_R   0.709924 0.127083 0.784643 0.000859
C83   C     C_R   0.600441 0.163108 0.644978 -0.166997
C84   C     C_R   0.577227 0.193399 0.606877 0.012306
C85   C     C_R   0.726517 0.217617 0.604342 0.088854
C86   C     C_R   0.750881 0.183744 0.642552 0.074704
C87   C     C_R   0.682733 0.163280 0.663294 -0.054907
C88   C     C_R   0.634277 0.231435 0.587460 -0.004467
C89   C     C_R   0.067008 0.664538 0.277166 0.075899
C90   C     C_R   0.089792 0.697695 0.910461 -0.014039
C91   C     C_R   0.299122 0.610607 0.446360 0.552513
C92   C     C_R   0.123462 0.756406 0.890709 -0.086345
C93   C     C_R   0.146209 0.740462 0.851399 0.156562
C94   C     C_R   0.134370 0.664347 0.831471 0.033848
C95   C     C_R   0.110533 0.599351 0.851983 -0.131147
C96   C     C_R   0.088742 0.615622 0.891183 -0.135166
C97   C     C_R   0.220196 0.567581 0.771279 -0.078259
C98   C     C_R   0.230057 0.561919 0.730952 0.165799
C99   C     C_R   0.158233 0.646028 0.709247 0.035209
C100  C     C_R   0.061569 0.661609 0.236633 0.126038
C101  C     C_R   0.076189 0.731015 0.727463 -0.141615
C102  C     C_R   0.066699 0.734924 0.767230 -0.120209
C103  C     C_R   0.608121 0.590058 0.445418 0.543286
C104  C     C_R   0.140703 0.655165 0.789332 -0.001432
C105  C     C_R   0.202199 0.717531 0.653777 -0.122323
C106  C     C_R   0.235507 0.708842 0.616008 -0.140692
C107  C     C_R   0.199451 0.569737 0.604287 0.045655
C108  C     C_R   0.169422 0.577327 0.642879 -0.101607
C109  C     C_R   0.173458 0.648973 0.667757 -0.006421
C110  C     C_R   0.239749 0.631946 0.591294 -0.007419
C111  C     C_R   0.139225 0.663242 0.214175 -0.039308
C112  C     C_R   0.694585 0.720287 0.091710 0.025590
C113  C     C_R   0.601387 0.798120 0.107393 -0.113420
C114  C     C_R   0.577067 0.794794 0.145856 -0.072346
C115  C     C_R   0.588402 0.302243 0.443648 0.554842
C116  C     C_R   0.646598 0.714635 0.168971 0.051806
C117  C     C_R   0.734799 0.632656 0.152608 -0.108178
C118  C     C_R   0.758520 0.635123 0.114215 -0.117108
C119  C     C_R   0.601753 0.652304 0.226115 -0.154432
C120  C     C_R   0.601851 0.639845 0.265426 -0.159099
C121  C     C_R   0.629424 0.695360 0.290361 -0.002660
C122  C     C_R   0.196346 0.567546 0.354123 -0.106367
C123  C     C_R   0.657078 0.765350 0.275808 0.163856
C124  C     C_R   0.661969 0.774812 0.235512 0.076408
C125  C     C_R   0.632240 0.718284 0.210772 -0.047381
C126  C     C_R   0.550185 0.749485 0.356318 0.157725
C127  C     C_R   0.635094 0.630512 0.590084 -0.003882
C128  C     C_R   0.550377 0.722746 0.394919 -0.098758
C129  C     C_R   0.704608 0.558670 0.383978 -0.126955
C130  C     C_R   0.706672 0.584413 0.345975 -0.124584
C131  C     C_R   0.629021 0.677737 0.331734 0.028754
C132  C     C_R   0.624580 0.626116 0.408417 -0.012680
C133  C     C_R   0.233086 0.553339 0.391494 -0.120542
C134  C     C_R   0.701948 0.097555 0.089828 -0.004084
C135  C     C_R   0.765676 0.137568 0.099620 -0.154507
C136  C     C_R   0.766560 0.173414 0.136812 0.063154
C137  C     C_R   0.703056 0.166667 0.165218 -0.023582
C138  C     C_R   0.631031 0.136001 0.154950 0.072810
C139  C     C_R   0.725916 0.566487 0.609617 -0.150160
C140  C     C_R   0.630062 0.101896 0.117078 0.130129
C141  C     C_R   0.636403 0.278219 0.222618 -0.094985
C142  C     C_R   0.627357 0.292909 0.262463 0.068501
C143  C     C_R   0.695185 0.211460 0.286043 -0.022171
Cr1   Cr    Cr6+3 0.421670 0.426920 0.499620 1.094318
Cr2   Cr    Cr6+3 0.427030 0.651190 0.500980 1.024324
Cr3   Cr    Cr6+3 0.651280 0.421870 0.499380 1.021737
Cr4   Cr    Cr6+3 0.910810 0.908010 0.001130 1.025746
Cr5   Cr    Cr6+3 0.682800 0.909890 0.998370 1.020796
Cr6   Cr    Cr6+3 0.908370 0.682300 0.002180 1.025666
H1    H     H_    0.782393 0.493723 0.596929 0.144699
H2    H     H_    0.020677 0.795231 0.710855 0.135747
H3    H     H_    0.539126 0.122396 0.428583 0.163640
H4    H     H_    0.967348 0.473390 0.782683 0.335240
H5    H     H_    0.337306 0.639423 0.314227 0.258675
H6    H     H_    0.394985 0.745365 0.273321 0.159667
H7    H     H_    0.297982 0.809595 0.309926 0.135695
H8    H     H_    0.261931 0.815280 0.260251 0.150508
H9    H     H_    0.888621 0.741825 0.347320 0.332030
H10   H     H_    0.945026 0.718325 0.195654 0.279949
H11   H     H_    0.970584 0.557395 0.182700 0.103517
H12   H     H_    0.895374 0.587601 0.225862 0.193302
H13   H     H_    0.003509 0.801825 0.780943 0.136159
H14   H     H_    0.033705 0.510201 0.228055 0.164412
H15   H     H_    0.205298 0.773436 0.672835 0.148452
H16   H     H_    0.264366 0.758409 0.606987 0.156036
H17   H     H_    0.103270 0.539430 0.837204 0.144169
H18   H     H_    0.550343 0.864245 0.090660 0.125087
H19   H     H_    0.830415 0.573434 0.102963 0.132902
H20   H     H_    0.767160 0.529693 0.327110 0.147704
H21   H     H_    0.579816 0.586773 0.276617 0.169859
H22   H     H_    0.581189 0.607448 0.207372 0.149155
H23   H     H_    0.880981 0.034098 0.900894 0.138765
H24   H     H_    0.507741 0.857770 0.158226 0.121163
H25   H     H_    0.489823 0.774415 0.414273 0.125959
H26   H     H_    0.787876 0.569310 0.170092 0.116781
H27   H     H_    0.762532 0.483625 0.393566 0.143326
H28   H     H_    0.817927 0.137442 0.078196 0.168475
H29   H     H_    0.532216 0.217040 0.320598 0.104251
H30   H     H_    0.581215 0.337250 0.204067 0.147496
H31   H     H_    0.830652 0.063586 0.288454 0.167333
H32   H     H_    0.818575 0.205274 0.343618 0.120801
H33   H     H_    0.774672 0.237839 0.411477 0.127052
H34   H     H_    0.743027 0.989757 0.702405 0.143201
H35   H     H_    0.085776 0.564502 0.094351 0.124280
H36   H     H_    0.085110 0.851696 0.105414 0.154884
H37   H     H_    0.133929 0.816968 0.343241 0.130886
H38   H     H_    0.279386 0.668549 0.214305 0.145834
H39   H     H_    0.135180 0.528963 0.161787 0.127031
H40   H     H_    0.200004 0.503327 0.338260 0.116436
H41   H     H_    0.263957 0.478041 0.403882 0.143900
H42   H     H_    0.130768 0.816923 0.172617 0.117832
H43   H     H_    0.199146 0.792561 0.408835 0.124282
H44   H     H_    0.580674 0.852380 0.903256 0.151622
H45   H     H_    0.758648 0.967930 0.772141 0.137037
H46   H     H_    0.555721 0.843972 0.834812 0.159370
H47   H     H_    0.566966 0.107777 0.900188 0.173783
H48   H     H_    0.945694 0.221897 0.669132 0.341804
H49   H     H_    0.582747 0.353153 0.688649 0.249588
H50   H     H_    0.699459 0.407905 0.687288 0.166488
H51   H     H_    0.764940 0.331819 0.728711 0.189450
H52   H     H_    0.648881 0.454928 0.735084 0.213920
H53   H     H_    0.702899 0.380298 0.832747 0.352115
H54   H     H_    0.437399 0.200972 0.779742 0.334976
H55   H     H_    0.445949 0.139330 0.541299 0.326802
H56   H     H_    0.552573 0.141319 0.660976 0.178262
H57   H     H_    0.890570 0.081190 0.797846 0.273090
H58   H     H_    0.015960 0.103060 0.825745 0.158859
H59   H     H_    0.996429 0.061243 0.871126 0.137549
H60   H     H_    0.906767 0.190206 0.854866 0.191192
H61   H     H_    0.410315 0.837302 0.599816 0.279266
H62   H     H_    0.511783 0.918725 0.579732 0.177787
H63   H     H_    0.430041 0.912722 0.543077 0.135548
H64   H     H_    0.565576 0.820533 0.542295 0.152516
H65   H     H_    0.805931 0.295712 0.591655 0.291965
H66   H     H_    0.890906 0.160828 0.535223 0.141804
H67   H     H_    0.126383 0.819107 0.905207 0.139054
H68   H     H_    0.877961 0.076873 0.568294 0.150665
H69   H     H_    0.954483 0.134878 0.581070 0.161961
H70   H     H_    0.356822 0.494592 0.693598 0.265245
H71   H     H_    0.420053 0.317715 0.709886 0.170523
H72   H     H_    0.315737 0.356316 0.743590 0.153515
H73   H     H_    0.420036 0.382987 0.753749 0.216916
H74   H     H_    0.159058 0.817619 0.803965 0.265960
H75   H     H_    0.300167 0.832359 0.826059 0.155725
H76   H     H_    0.337015 0.698043 0.827542 0.167300
H77   H     H_    0.297446 0.776807 0.871241 0.149842
H78   H     H_    0.064411 0.568222 0.905775 0.136829
H79   H     H_    0.941867 0.511837 0.890340 0.250190
H80   H     H_    0.884927 0.419446 0.941624 0.147915
H81   H     H_    0.917000 0.373663 0.892932 0.161756
H82   H     H_    0.784030 0.454469 0.907060 0.154323
H83   H     H_    0.185817 0.363891 0.573458 0.344935
H84   H     H_    0.713692 0.791345 0.327409 0.260537
H85   H     H_    0.576641 0.954335 0.333525 0.138199
H86   H     H_    0.545113 0.957059 0.283534 0.133409
H87   H     H_    0.649470 0.976773 0.297906 0.191487
H88   H     H_    0.872936 0.447377 0.655260 0.269455
H89   H     H_    0.143758 0.526813 0.653871 0.157844
H90   H     H_    0.975046 0.520543 0.661520 0.139367
H91   H     H_    0.919030 0.543971 0.709126 0.188134
H92   H     H_    0.866343 0.644274 0.673897 0.155377
H93   H     H_    0.804043 0.889551 0.227533 0.364400
H94   H     H_    0.457235 0.847998 0.312704 0.250870
H95   H     H_    0.330375 0.981685 0.348511 0.138951
H96   H     H_    0.405914 0.938079 0.391114 0.146328
H97   H     H_    0.340237 0.872011 0.372784 0.141315
H98   H     H_    0.558363 0.016162 0.127944 0.283383
H99   H     H_    0.459446 0.096061 0.063037 0.151983
H100  H     H_    0.275987 0.506522 0.788922 0.130603
H101  H     H_    0.464613 0.205801 0.081892 0.149260
H102  H     H_    0.403360 0.149827 0.109172 0.163253
H103  H     H_    0.502450 0.496228 0.322700 0.330369
H104  H     H_    0.359607 0.931865 0.685249 0.347570
H105  H     H_    0.962673 0.220678 0.129100 0.337550
H106  H     H_    0.014117 0.886947 0.226322 0.334016
H107  H     H_    0.535084 0.097982 0.236549 0.326084
H108  H     H_    0.405372 0.282667 0.372283 0.239513
H109  H     H_    0.471679 0.107317 0.388074 0.118079
H110  H     H_    0.400813 0.186520 0.428799 0.154400
N1    N     N_R   0.690236 0.610106 0.765918 -0.202726
N2    N     N_2   0.178005 0.803629 0.832565 -0.520461
N3    N     N_2   0.872157 0.529455 0.902131 -0.487212
N4    N     N_2   0.682133 0.824229 0.301520 -0.443222
N5    N     N_2   0.834728 0.521707 0.665904 -0.497759
N6    N     N_2   0.471634 0.845620 0.341661 -0.527520
N7    N     N_2   0.564643 0.061653 0.107598 -0.476104
N8    N     N_2   0.462993 0.251128 0.392372 -0.497881
N9    N     N_2   0.312637 0.672190 0.287795 -0.484850
N10   N     N_2   0.972298 0.670095 0.218778 -0.461782
N11   N     N_R   0.686236 0.607271 0.727939 -0.217279
N12   N     N_R   0.654254 0.775946 0.725522 -0.187694
N13   N     N_R   0.658270 0.778898 0.763708 -0.214366
N14   N     N_2   0.623649 0.338763 0.713773 -0.533395
N15   N     N_2   0.895515 0.070376 0.827058 -0.502891
N16   N     N_2   0.478448 0.798976 0.584737 -0.488462
N17   N     N_2   0.795010 0.236501 0.582353 -0.477600
N18   N     N_2   0.313723 0.476359 0.711688 -0.516072
O1    O     O_R   0.502070 0.323090 0.541280 -0.474494
O2    O     O_R   0.831550 0.656950 0.958960 -0.477401
O3    O     O_R   0.998590 0.685540 0.963930 -0.498483
O4    O     O_R   0.338340 0.520690 0.539540 -0.459939
O5    O     O_R   0.008220 0.831200 0.045060 -0.510517
O6    O     O_R   0.813270 0.997930 0.038810 -0.500068
O7    O     O_R   0.657500 0.016560 0.039940 -0.484762
O8    O     O_R   0.685680 0.820940 0.038120 -0.495710
O9    O     O_R   0.822130 0.666070 0.043610 -0.521269
O10   O     O_R   0.989860 0.694000 0.042400 -0.502106
O11   O     O_3   0.833990 0.833400 0.000560 -0.241447
O12   O     O_R   0.520720 0.641670 0.461580 -0.508517
O13   O     O_R   0.324760 0.674070 0.543580 -0.518214
O14   O     O_R   0.522400 0.640310 0.540110 -0.458938
O15   O     O_R   0.675940 0.500630 0.542210 -0.525300
O16   O     O_R   0.641790 0.337020 0.538150 -0.475969
O17   O     O_R   0.500260 0.324550 0.456580 -0.472256
O18   O     O_R   0.336660 0.522040 0.461020 -0.487069
O19   O     O_R   0.322940 0.675540 0.458880 -0.524250
O20   O     O_2   0.895269 0.097199 0.682132 -0.530226
O21   O     O_R   0.880589 0.239564 0.654651 -0.742608
O22   O     O_2   0.561745 0.383778 0.798302 -0.514066
O23   O     O_R   0.674120 0.502090 0.457500 -0.512603
O24   O     O_R   0.729167 0.316038 0.816122 -0.695164
O25   O     O_2   0.468218 0.123848 0.841378 -0.532133
O26   O     O_R   0.504082 0.192520 0.790145 -0.707255
O27   O     O_2   0.417179 0.201331 0.606568 -0.486163
O28   O     O_R   0.506944 0.144853 0.550580 -0.692035
O29   O     O_2   0.161621 0.519170 0.545271 -0.514522
O30   O     O_R   0.197617 0.406417 0.593481 -0.673262
O31   O     O_2   0.678563 0.878916 0.189116 -0.517991
O32   O     O_R   0.779151 0.847130 0.241183 -0.632581
O33   O     O_2   0.470817 0.448718 0.260219 -0.524060
O34   O     O_R   0.640110 0.338380 0.459630 -0.514935
O35   O     O_R   0.561575 0.426721 0.314724 -0.705009
O36   O     O_2   0.520926 0.918955 0.668444 -0.494419
O37   O     O_R   0.406465 0.862399 0.672840 -0.712499
O38   O     O_2   0.823050 0.269303 0.173108 -0.532823
O39   O     O_R   0.920396 0.188523 0.120640 -0.707661
O40   O     O_2   0.882814 0.986076 0.181124 -0.522563
O41   O     O_R   0.958831 0.951654 0.239323 -0.714819
O42   O     O_2   0.465467 0.183568 0.177235 -0.537870
O43   O     O_R   0.592769 0.089645 0.219120 -0.687657
O44   O     O_2   0.857389 0.438392 0.822339 -0.516093
O45   O     O_3   0.499990 0.499990 0.499990 -0.259283
O46   O     O_R   0.917278 0.537777 0.797393 -0.709588
O47   O     O_2   0.946104 0.617130 0.295959 -0.526932
O48   O     O_R   0.944084 0.744936 0.331923 -0.681591
O49   O     O_R   0.017640 0.822070 0.960410 -0.523123
O50   O     O_R   0.822000 0.989470 0.960340 -0.505151
O51   O     O_R   0.666920 0.007430 0.955290 -0.518320
O52   O     O_R   0.694410 0.812480 0.959650 -0.512565

loop_
_geom_bond_atom_site_label_1
_geom_bond_atom_site_label_2
_ccdc_geom_bond_type
C30   H73   S    
C36   H92   S    
C2    H43   S    
Cr5   O52   S    
C40   O33   D    
C51   O51   A    
C28   H64   S    
N12   N13   A    
C54   C134  S    
C64   H46   S    
C27   H60   S    
C108  C109  A    
C42   C136  S    
Cr6   O9    S    
Cr6   O3    S    
H98   N7    S    
Cr1   O17   S    
H65   N17   S    
C126  N6    S    
C33   O30   S    
C103  C132  S    
Cr4   O50   S    
H4    O46   S    
C12   C115  S    
C29   N17   S    
C94   C104  S    
H88   N5    S    
Cr6   O10   S    
C100  N10   S    
C78   C89   A    
C103  O23   A    
C32   H81   S    
C84   C88   A    
C22   H50   S    
C3    C143  A    
C135  H28   S    
C16   H39   S    
C6    C11   A    
C72   C73   A    
C97   H100  S    
C46   C91   S    
C50   H11   S    
C38   H96   S    
C101  H2    S    
C55   O9    A    
C43   O41   S    
H104  O37   S    
C115  O34   A    
C75   C76   A    
C47   C61   S    
C23   O24   S    
C49   O47   D    
C1    C110  S    
C20   C111  A    
C90   C92   A    
C15   H35   S    
C105  H15   S    
C69   C74   A    
C138  C140  A    
C99   C101  A    
C48   H6    S    
H103  O35   S    
C107  C110  A    
C59   N1    A    
C95   H17   S    
C122  H40   S    
C30   H71   S    
C48   H8    S    
C14   C57   S    
C21   C86   S    
C22   H52   S    
C14   C19   A    
H94   N6    S    
C4    C5    A    
C40   O35   S    
C98   N18   S    
C5    C137  S    
C6    C7    A    
C4    C43   S    
Cr3   O23   S    
H93   O32   S    
C139  H1    S    
C85   N17   S    
C62   C68   A    
C31   N2    S    
C130  C131  A    
C79   O16   A    
C1    O4    A    
C76   N14   S    
C69   C70   A    
C121  C123  A    
Cr2   O13   S    
C39   H99   S    
C61   C65   A    
C45   N8    S    
C100  C111  A    
C8    C10   A    
C52   O52   A    
Cr5   O11   S    
C42   O39   S    
Cr1   O4    S    
C51   C69   S    
C11   C143  S    
C119  H22   S    
C38   H97   S    
H10   N10   S    
C53   O3    A    
H108  N8    S    
C103  O12   A    
C97   C98   A    
C123  C124  A    
C85   C86   A    
C28   H62   S    
C34   N4    S    
C35   C58   A    
C21   O20   D    
C18   C19   A    
C29   H66   S    
C130  H20   S    
C91   O19   A    
C91   O18   A    
Cr5   O51   S    
C107  C108  A    
C25   C71   S    
C22   N14   S    
H84   N4    S    
C117  H26   S    
C36   H90   S    
C41   O36   D    
C8    N8    S    
C34   H86   S    
C17   C111  S    
C7    C12   A    
H106  O41   S    
H55   O28   S    
Cr4   O5    S    
C28   N16   S    
C25   O25   D    
C102  C104  A    
C3    H31   S    
C83   C84   A    
C73   N15   S    
C8    C12   A    
C17   C18   A    
C9    C56   A    
C44   O43   S    
C52   O2    A    
C29   H69   S    
C66   O14   A    
C98   C99   A    
C116  C125  S    
C140  N7    S    
C3    C4    A    
C120  C121  A    
C129  C130  A    
C85   C88   A    
C54   O6    A    
C105  C109  A    
C63   C68   A    
C126  C128  A    
C35   C56   A    
C136  C137  A    
C114  C116  A    
C75   C82   A    
C90   C96   A    
C134  C135  A    
C128  H25   S    
C71   C72   A    
C83   H56   S    
C117  C118  A    
C59   C65   S    
C26   C84   S    
C67   N9    S    
C39   H101  S    
C51   O50   A    
Cr3   O34   S    
C79   O1    A    
C47   O46   S    
C59   N13   A    
Cr6   O2    S    
C60   N12   A    
N1    N11   A    
C61   C62   A    
C35   C41   S    
C10   C11   A    
C63   C64   A    
C77   C87   S    
C70   H47   S    
C31   H77   S    
C14   C15   A    
C33   O29   D    
C115  O17   A    
C83   C87   A    
C101  C102  A    
Cr3   O45   S    
C73   C74   A    
C57   O10   A    
C135  C136  A    
H49   N14   S    
C22   H51   S    
C38   N6    S    
H83   O30   S    
C99   C109  S    
C9    N5    S    
C55   O8    A    
C43   O40   D    
C27   H59   S    
C16   C17   A    
C44   C138  S    
C70   C71   A    
C129  C132  A    
C48   H7    S    
Cr2   O45   S    
C79   C88   S    
H79   N3    S    
C133  H41   S    
C30   H72   S    
H48   O21   S    
C18   H42   S    
C89   C100  A    
C106  H16   S    
C45   H109  S    
C86   C87   A    
C47   O44   D    
C56   C60   S    
Cr4   O6    S    
C57   O5    A    
C50   N10   S    
C102  H13   S    
C24   C122  A    
Cr2   O12   S    
C119  C125  A    
C24   C78   S    
C108  H89   S    
Cr5   O8    S    
Cr6   O11   S    
H74   N2    S    
C23   O22   D    
C113  C114  A    
C77   C80   A    
C32   H80   S    
C13   H37   S    
C50   H14   S    
C141  H30   S    
C23   C75   S    
Cr2   O19   S    
C113  H18   S    
C119  C120  A    
C28   H63   S    
C38   H95   S    
C105  C106  A    
C45   H3    S    
C64   C65   A    
H105  O39   S    
C49   O48   S    
C19   H36   S    
C46   C133  A    
C9    C139  A    
C120  H21   S    
C118  H19   S    
C92   C93   A    
C1    O13   A    
C92   H67   S    
C94   C95   A    
C97   C104  A    
Cr1   O45   S    
C39   H102  S    
H53   O24   S    
C53   C90   S    
C142  C143  A    
Cr1   O1    S    
C60   N11   A    
C36   H91   S    
C80   H34   S    
C93   C94   A    
C40   C142  S    
C55   C112  S    
C20   C67   A    
C95   C96   A    
C33   C107  S    
C34   H87   S    
C62   N3    S    
C81   C82   A    
C39   N7    S    
C2    C46   A    
C36   N5    S    
H5    N9    S    
C134  C140  A    
C48   N9    S    
Cr1   O18   S    
C15   C16   A    
C66   C127  S    
C2    C13   A    
Cr4   O49   S    
Cr2   O14   S    
C81   H45   S    
Cr3   O15   S    
C114  H24   S    
C123  N4    S    
C42   O38   D    
C63   H44   S    
C129  H27   S    
C74   H23   S    
C52   C68   S    
C29   H68   S    
C32   H82   S    
C66   O15   A    
C58   C127  A    
C50   H12   S    
C67   C78   A    
C127  C139  A    
C121  C131  S    
C128  C132  A    
C112  C113  A    
Cr3   O16   S    
C45   H110  S    
C93   N2    S    
C54   O7    A    
H57   N15   S    
C6    H32   S    
H54   O26   S    
C21   O21   S    
C10   H29   S    
C96   H78   S    
C76   C77   A    
C31   H75   S    
C13   C24   A    
C122  C133  A    
C37   C124  S    
C5    C141  A    
H61   N16   S    
C32   N3    S    
C27   N15   S    
Cr4   O11   S    
C41   O37   S    
C31   H76   S    
C34   H85   S    
C106  C110  A    
C58   N16   S    
C30   N18   S    
Cr5   O7    S    
C7    H33   S    
C116  C117  A    
C49   C89   S    
C80   C81   A    
C137  C138  A    
C25   O26   S    
C26   O27   D    
C37   O32   S    
C141  C142  A    
C20   H38   S    
C112  C118  A    
C126  C131  A    
C53   O49   A    
C27   H58   S    
C44   O42   D    
H9    O48   S    
C26   O28   S    
H70   N18   S    
C37   O31   D    
C72   C82   S    
C124  C125  A    
H107  O43   S    
