data_mof_unit_66987.cif
_audit_creation_date              2013-03-05T15:58:13-0500
_audit_creation_method            fapswitch 2.2
_symmetry_space_group_name_H-M    P1
_symmetry_Int_Tables_number       1
_space_group_crystal_system       triclinic
_cell_length_a                    8.424617
_cell_length_b                    12.86703
_cell_length_c                    14.589921
_cell_angle_alpha                 93.998112
_cell_angle_beta                  90.999307
_cell_angle_gamma                 98.238608
_cell_volume                      1560.8107748

loop_
_atom_site_label
_atom_site_type_symbol
_atom_site_description
_atom_site_fract_x
_atom_site_fract_y
_atom_site_fract_z
_atom_type_partial_charge
P1    P     P_3+3 0.054400 0.427280 0.286870 0.465091
O1    O     O_2   0.887370 0.460630 0.272300 -0.405563
O2    O     O_3   0.129410 0.451380 0.388510 -0.362473
O3    O     O_3   0.670210 0.653170 0.329170 -0.349349
O4    O     O_2   0.775277 0.578166 0.171243 -0.398798
O5    O     O_3   0.039402 0.289653 0.268763 -0.570427
O6    O     O_3   0.705880 0.765531 0.170149 -0.544566
H1    H     H_    0.593966 0.864871 0.255615 0.077949
C1    C     C_3   0.607934 0.915601 0.116297 0.106749
H2    H     H_    0.704078 0.979543 0.142310 0.083195
H3    H     H_    0.651806 0.882596 0.050580 0.141604
P2    P     P_3+3 0.668300 0.742890 0.573060 0.422876
P3    P     P_3+3 0.144208 0.840108 0.374368 0.400702
O7    O     O_2   0.845380 0.761330 0.544970 -0.367070
O8    O     O_3   0.088930 0.704860 0.376040 -0.405190
O9    O     O_2   0.036886 0.887759 0.445886 -0.377494
O10   O     O_3   0.698293 0.757476 0.692971 -0.615935
O11   O     O_3   0.083599 0.886379 0.271734 -0.559488
C2    C     C_3   0.079849 0.807452 0.200443 0.524679
H4    H     H_    0.991402 0.738505 0.214448 0.182193
H5    H     H_    0.199042 0.781563 0.192018 0.004063
C3    C     C_3   0.029955 0.851870 0.111936 -0.988764
H6    H     H_    0.979024 0.787015 0.060953 0.245498
H7    H     H_    0.937938 0.903816 0.125696 0.273498
C4    C     C_3   0.164872 0.795517 0.751359 1.175147
C5    C     C_3   0.048445 0.807332 0.830440 -1.084082
H8    H     H_    0.050181 0.744390 0.879084 0.254548
H9    H     H_    0.081630 0.884161 0.873015 0.263804
H10   H     H_    0.927379 0.813162 0.802856 0.265202
Ba1   Ba    Ba6+2 0.855630 0.555280 0.454520 1.531489
C6    C     C_3   0.883826 0.235158 0.247126 0.678858
H11   H     H_    0.787368 0.283935 0.258909 0.084711
C7    C     C_3   0.875353 0.193548 0.145744 -1.128170
H12   H     H_    0.750229 0.158367 0.125435 0.240531
H13   H     H_    0.957355 0.133509 0.133276 0.267294
H14   H     H_    0.910511 0.257901 0.100963 0.252290
C8    C     C_3   0.691067 0.656687 0.726534 0.467089
H15   H     H_    0.786333 0.615629 0.695340 0.088217
H16   H     H_    0.573259 0.609378 0.709290 0.171256
C9    C     C_3   0.711556 0.664093 0.831449 -1.160557
H17   H     H_    0.831391 0.648528 0.851219 0.254950
H18   H     H_    0.637121 0.600294 0.862715 0.267473
H19   H     H_    0.686254 0.740552 0.863859 0.281287
P4    P     P_3+3 0.135310 0.572810 0.713130 0.453613
O12   O     O_2   0.302330 0.539400 0.727760 -0.339899
O13   O     O_3   0.060300 0.548700 0.611500 -0.392319
O14   O     O_3   0.519500 0.346920 0.670840 -0.389225
O15   O     O_3   0.233827 0.700627 0.750644 -0.608071
P5    P     P_3+3 0.048730 0.157641 0.607086 0.430086
O16   O     O_3   0.614310 0.373510 0.452640 -0.393351
O17   O     O_3   0.100780 0.295230 0.623970 -0.376197
O18   O     O_2   0.186278 0.111468 0.557501 -0.387703
O19   O     O_3   0.044787 0.106975 0.715328 -0.555489
Ba2   Ba    Ba6+2 0.334200 0.444810 0.545490 1.526882
P6    P     P_3+3 0.646852 0.641542 0.210128 0.443854
C10   C     C_3   0.584519 0.828733 0.183873 0.169863
H20   H     H_    0.462978 0.783786 0.171382 0.070288
O20   O     O_3   0.575400 0.626570 0.547370 -0.412194
C11   C     C_3   0.465761 0.319242 0.264486 0.414198
H21   H     H_    0.361929 0.348299 0.298142 0.135702
H22   H     H_    0.573055 0.380525 0.274322 0.110727
C12   C     C_3   0.428149 0.297031 0.162081 -1.045656
H23   H     H_    0.306307 0.251028 0.151165 0.273009
H24   H     H_    0.432812 0.371366 0.128037 0.238648
H25   H     H_    0.517686 0.251741 0.129357 0.272552
P7    P     P_3+3 0.520888 0.242790 0.418685 0.412270
O21   O     O_2   0.344320 0.238700 0.455090 -0.347703
O22   O     O_3   0.495406 0.225267 0.299642 -0.617641
H26   H     H_    0.133851 0.900425 0.082943 0.260653
C13   C     C_3   0.925210 0.149956 0.766163 0.408329
H27   H     H_    0.971548 0.231424 0.793502 0.082990
H28   H     H_    0.816119 0.154614 0.723768 0.066804
C14   C     C_3   0.872381 0.081333 0.844855 -1.057125
H29   H     H_    0.796378 0.123477 0.892063 0.240955
H30   H     H_    0.804912 0.005192 0.816226 0.258503
H31   H     H_    0.974216 0.064200 0.886952 0.275225
P8    P     P_3+3 0.556799 0.370702 0.792706 0.398049
C15   C     C_3   0.402005 0.185261 0.810024 0.611585
O23   O     O_2   0.451596 0.451367 0.829818 -0.423934
O24   O     O_3   0.489080 0.268934 0.861750 -0.559547
H32   H     H_    0.311723 0.213459 0.764485 0.137141
H33   H     H_    0.397294 0.055110 0.900109 0.183825
C16   C     C_3   0.315608 0.110306 0.877504 -0.412044
H34   H     H_    0.212544 0.060002 0.841714 0.214107
C17   C     C_R   0.985607 0.457180 0.061519 -0.182580
C18   C     C_R   0.179779 0.496499 0.198213 0.269030
C19   C     C_R   0.331808 0.545167 0.229655 -0.503302
C20   C     C_R   0.448317 0.579475 0.168064 0.240976
C21   C     C_R   0.412729 0.571899 0.074570 -0.310989
C22   C     C_R   0.254582 0.541624 0.041164 0.042301
C23   C     C_R   0.137862 0.496449 0.101207 -0.052106
H35   H     H_    0.363539 0.550559 0.302221 0.166788
C24   C     C_R   0.067126 0.508911 0.905982 -0.082870
C25   C     C_R   0.951907 0.459125 0.965757 0.044549
C26   C     C_R   0.025835 0.503344 0.807499 0.253291
C27   C     C_R   0.877953 0.449056 0.775843 -0.508080
C28   C     C_R   0.761710 0.414782 0.836240 0.290102
C29   C     C_R   0.798588 0.416577 0.930296 -0.266987
C30   C     C_R   0.212606 0.561251 0.949442 0.181068
H36   H     H_    0.508285 0.595452 0.028242 0.166893
H37   H     H_    0.706479 0.385682 0.976194 0.175408
H38   H     H_    0.845799 0.442352 0.703257 0.166585
H39   H     H_    0.891166 0.424589 0.104414 0.177156
C31   C     C_R   0.769608 0.174193 0.510206 -0.422028
C32   C     C_R   0.444898 0.810918 0.449285 -0.429039
C33   C     C_R   0.416196 0.989389 0.414937 -0.242475
C34   C     C_R   0.356294 0.882528 0.410497 0.191301
C35   C     C_R   0.584411 0.845645 0.503684 0.262199
C36   C     C_R   0.651344 0.955336 0.502678 -0.062955
C37   C     C_R   0.564219 0.027781 0.458699 -0.036091
C38   C     C_R   0.623005 0.138263 0.465866 0.218760
C39   C     C_R   0.858398 0.104905 0.548001 0.232025
C40   C     C_R   0.798121 0.997310 0.547669 -0.213419
H40   H     H_    0.343162 0.042311 0.386193 0.187218
H41   H     H_    0.865158 0.948384 0.584757 0.189482
H42   H     H_    0.816695 0.257284 0.514666 0.172536
H43   H     H_    0.394519 0.728464 0.445783 0.170406
N1    N     N_2   0.852337 0.146662 0.304374 -0.149895
H44   H     H_    0.755585 0.090241 0.283279 0.127786
C41   C     C_3   0.990956 0.102359 0.336396 -0.687315
H45   H     H_    0.948242 0.029955 0.370363 0.268596
H46   H     H_    0.062404 0.159358 0.387827 0.268647
H47   H     H_    0.067984 0.083221 0.278191 0.251748
O25   O     O_3   0.463195 0.953993 0.095351 -0.618534
C42   C     C_3   0.416622 0.014540 0.171810 -0.182877
H48   H     H_    0.518120 0.072208 0.202122 0.166108
H49   H     H_    0.366239 0.962120 0.224756 0.146720
H50   H     H_    0.321188 0.059393 0.149416 0.173685
N2    N     N_2   0.514429 0.133038 0.757655 -0.142273
H51   H     H_    0.582219 0.090498 0.795649 0.149680
C43   C     C_3   0.462537 0.088230 0.667496 -0.877829
H52   H     H_    0.551450 0.038999 0.643816 0.218919
H53   H     H_    0.459498 0.151946 0.620364 0.302966
H54   H     H_    0.343207 0.038328 0.669387 0.308081
N3    N     N_2   0.266374 0.165530 0.960534 -0.071140
H55   H     H_    0.227219 0.117166 0.011592 0.184526
C44   C     C_3   0.180536 0.254888 0.954257 -0.713777
H56   H     H_    0.052494 0.233541 0.973527 0.210255
H57   H     H_    0.183824 0.284769 0.884279 0.240058
H58   H     H_    0.239276 0.320311 0.003120 0.248106
N4    N     N_2   0.301993 0.647544 0.909081 -0.089033
H59   H     H_    0.403385 0.629879 0.877988 0.232945
C45   C     C_3   0.328102 0.747325 0.964309 -0.882824
H60   H     H_    0.357479 0.813609 0.919925 0.289337
H61   H     H_    0.431717 0.751254 0.013342 0.245523
H62   H     H_    0.218823 0.759146 0.003129 0.259927
O26   O     O_3   0.286066 0.885627 0.766371 -0.684530
C46   C     C_3   0.446437 0.866172 0.756517 -0.181773
H63   H     H_    0.479802 0.870964 0.683790 0.153357
H64   H     H_    0.472936 0.792028 0.783659 0.201479
H65   H     H_    0.526914 0.925795 0.800055 0.137460
N5    N     N_2   0.087158 0.801247 0.664695 -0.117776
H66   H     H_    0.029124 0.866487 0.662420 0.177264
C47   C     C_3   0.191444 0.790503 0.588797 -0.702544
H67   H     H_    0.241809 0.870498 0.570683 0.222278
H68   H     H_    0.122442 0.740915 0.534076 0.308466
H69   H     H_    0.292486 0.746590 0.603240 0.196979

loop_
_geom_bond_atom_site_label_1
_geom_bond_atom_site_label_2
_geom_bond_distance
_ccdc_geom_bond_type
C45   H62   1.112561 S    
P7    O22   1.741262 S    
C19   C20   1.388418 A    
C24   C25   1.429115 A    
C27   H38   1.083008 S    
C14   H29   1.114106 S    
C26   C27   1.392454 A    
C46   H65   1.104381 S    
O6    P6    1.745065 S    
P3    C34   1.848173 S    
C43   H54   1.114513 S    
H1    C10   1.112101 S    
C28   C29   1.399585 A    
C17   C23   1.408351 A    
N3    H55   1.032169 S    
C10   H20   1.106892 S    
C32   C34   1.407667 A    
C5    H8    1.114892 S    
O16   Ba2   2.967188 S    
P3    O11   1.744201 S    
C33   H40   1.081215 S    
C4    N5    1.425054 S    
C2    H5    1.108536 S    
C15   N2    1.438190 S    
C46   H64   1.107898 S    
O11   C2    1.398788 S    
C8    C9    1.532212 S    
C18   C23   1.452650 A    
N4    C45   1.454176 S    
Ba2   O20   2.868197 S    
O2    Ba2   2.856622 S    
C15   O24   1.381246 S    
C33   C34   1.391774 A    
C25   C29   1.403675 A    
C45   H60   1.109091 S    
C1    O25   1.415967 S    
C35   C36   1.444069 A    
C45   H61   1.112135 S    
P1    O1    1.544274 D    
P6    C20   1.823462 S    
N1    H44   1.037612 S    
C12   H24   1.104198 S    
C37   C38   1.432752 A    
C15   C16   1.544488 S    
C9    H19   1.111590 S    
O26   C46   1.416827 S    
C41   H46   1.115460 S    
P5    O17   1.760709 S    
P2    O10   1.756423 S    
C42   H50   1.111910 S    
C6    C7    1.534469 S    
P8    C28   1.826497 S    
C13   H27   1.108738 S    
P7    C38   1.860890 S    
C1    H2    1.109855 S    
C24   C30   1.426361 A    
C3    H26   1.108347 S    
C16   N3    1.458228 S    
C17   H39   1.076518 S    
C41   H47   1.112989 S    
C36   C40   1.407998 A    
P2    O20   1.602793 S    
C9    H18   1.090808 S    
P7    O21   1.583231 D    
Ba1   O16   2.868887 S    
C11   H21   1.108691 S    
C24   C26   1.466906 A    
C31   H42   1.082823 S    
C19   H35   1.082475 S    
C14   H30   1.110146 S    
C32   H43   1.082118 S    
O6    C10   1.403374 S    
O7    Ba1   2.891331 S    
O19   C13   1.413974 S    
C3    H6    1.110617 S    
C39   C40   1.404297 A    
C32   C35   1.406587 A    
P4    O13   1.594108 S    
P8    O23   1.535578 D    
C44   H58   1.116408 S    
C11   H22   1.111249 S    
C21   H36   1.083696 S    
P1    O5    1.758160 S    
C2    C3    1.524344 S    
C46   H63   1.106012 S    
C47   H69   1.111960 S    
C31   C39   1.379742 A    
C18   C19   1.397352 A    
Ba2   O21   2.891544 S    
C4    C5    1.540836 S    
P1    O2    1.594232 S    
C8    H15   1.109545 S    
O2    Ba1   2.969231 S    
C6    N1    1.455462 S    
C12   H23   1.111943 S    
C11   O22   1.398613 S    
Ba1   Ba2   4.664334 S    
C17   C25   1.423499 A    
C16   H34   1.105218 S    
P5    O18   1.544583 D    
C27   C28   1.374966 A    
O13   Ba2   2.970019 S    
C13   C14   1.530501 S    
C7    H12   1.112443 S    
C4    O26   1.432577 S    
C1    C10   1.535440 S    
O10   C8    1.411477 S    
C20   C21   1.385239 A    
C1    H3    1.112130 S    
C4    O15   1.424785 S    
C47   H67   1.107262 S    
O14   Ba2   2.855395 S    
C9    H17   1.094705 S    
P2    O7    1.543782 D    
O12   Ba2   2.879673 S    
P5    C39   1.825675 S    
O3    P6    1.738106 S    
C42   H48   1.111997 S    
C14   H31   1.102985 S    
C3    H7    1.105985 S    
O14   P8    1.797448 S    
C43   H52   1.093711 S    
C22   C30   1.426844 A    
P4    O12   1.544640 D    
O8    Ba1   2.860081 S    
P2    C35   1.923937 S    
N2    H51   1.026599 S    
C33   C37   1.399462 A    
P8    O24   1.744930 S    
P1    C18   1.876376 S    
N3    C44   1.450503 S    
C7    H14   1.100984 S    
C11   C12   1.520638 S    
C12   H25   1.111877 S    
P2    Ba1   3.451662 S    
C44   H57   1.115187 S    
C47   H68   1.090368 S    
O4    P6    1.538556 D    
C6    H11   1.104441 S    
N5    C47   1.436879 S    
C43   H53   1.108899 S    
C31   C38   1.387239 A    
O16   P7    1.784584 S    
C30   N4    1.419050 S    
C29   H37   1.084180 S    
C44   H56   1.120062 S    
C5    H9    1.127106 S    
Ba1   O13   2.856043 S    
O1    Ba1   2.879123 S    
O17   Ba2   2.860686 S    
C2    H4    1.106861 S    
P3    O8    1.737800 S    
C8    H16   1.102571 S    
P4    C26   1.877451 S    
N4    H59   1.020730 S    
C15   H32   1.116542 S    
C22   C23   1.417548 A    
P5    O19   1.749076 S    
Ba1   O20   2.967995 S    
P1    Ba1   3.445450 S    
C7    H13   1.115739 S    
O5    C6    1.414386 S    
N1    C41   1.454614 S    
P4    Ba2   3.445924 S    
N5    H66   1.032353 S    
C5    H10   1.104398 S    
H33   C16   1.118741 S    
P3    O9    1.544265 D    
C42   H49   1.110795 S    
C41   H45   1.103431 S    
C13   H28   1.109947 S    
N2    C43   1.433800 S    
C21   C22   1.402330 A    
C36   C37   1.443055 A    
O3    Ba1   2.856001 S    
P4    O15   1.777817 S    
O25   C42   1.409607 S    
C40   H41   1.070889 S    
