data_mof_unit_14898.cif
_audit_creation_date              2012-12-11T15:54:48-0500
_audit_creation_method            fapswitch 2.2
_symmetry_space_group_name_H-M    P1
_symmetry_Int_Tables_number       1
_space_group_crystal_system       triclinic
_cell_length_a                    17.701672
_cell_length_b                    24.5519
_cell_length_c                    15.049164
_cell_angle_alpha                 90.139
_cell_angle_beta                  126.42012
_cell_angle_gamma                 89.866166
_cell_volume                      5263.03581463

loop_
_atom_site_label
_atom_site_type_symbol
_atom_type_description
_atom_site_fract_x
_atom_site_fract_y
_atom_site_fract_z
_atom_type_partial_charge
C1    C     C_R   0.915615 0.860580 0.089308 -0.102594
C2    C     C_R   0.909694 0.134736 0.089300 -0.117886
C3    C     C_R   0.415615 0.360580 0.089308 -0.102597
C4    C     C_R   0.409694 0.634736 0.089300 -0.117886
C5    C     C_R   0.053388 0.848224 0.907182 -0.170994
C6    C     C_R   0.050713 0.152598 0.908200 -0.172712
C7    C     C_R   0.553388 0.348224 0.907182 -0.170992
C8    C     C_R   0.550713 0.652598 0.908200 -0.172712
C9    C     C_R   0.144372 0.152794 0.091452 -0.145153
C10   C     C_R   0.147471 0.847947 0.091013 -0.144934
C11   C     C_R   0.644372 0.652794 0.091452 -0.145153
C12   C     C_R   0.647472 0.347947 0.091013 -0.144939
C13   C     C_R   0.323348 0.999969 0.273168 -0.004899
C14   C     C_R   0.823348 0.499969 0.273168 -0.004899
C15   C     C_R   0.936844 0.999757 0.634314 -0.003880
C16   C     C_R   0.436844 0.499757 0.634314 -0.003880
C17   C     C_R   0.115308 0.816861 0.998359 0.195668
C18   C     C_R   0.111388 0.184419 0.999565 0.173718
C19   C     C_R   0.615308 0.316861 0.998359 0.195665
C20   C     C_R   0.611388 0.684419 0.999565 0.173717
C21   C     C_3   0.895009 0.050024 0.368052 -0.345893
C22   C     C_3   0.898353 0.947808 0.370303 -0.352298
C23   C     C_3   0.395009 0.550025 0.368052 -0.345894
C24   C     C_3   0.398352 0.447808 0.370303 -0.352299
C25   C     C_3   0.885735 0.050026 0.463103 -0.442201
C26   C     C_3   0.889543 0.947772 0.465707 -0.444872
C27   C     C_3   0.385735 0.550027 0.463104 -0.442202
C28   C     C_3   0.389543 0.447773 0.465706 -0.444871
C29   C     C_3   0.050805 0.000498 0.489211 -0.419401
C30   C     C_3   0.550805 0.500498 0.489210 -0.419401
C31   C     C_3   0.952295 0.999488 0.377290 0.346973
C32   C     C_3   0.452295 0.499488 0.377289 0.346974
C33   C     C_3   0.937121 0.999557 0.537743 0.417933
C34   C     C_3   0.437121 0.499557 0.537743 0.417934
C35   C     C_R   0.811929 0.125794 0.905355 -0.025177
C36   C     C_R   0.816561 0.868668 0.904885 -0.026642
C37   C     C_R   0.311930 0.625794 0.905355 -0.025177
C38   C     C_R   0.316562 0.368668 0.904885 -0.026644
C39   C     C_3   0.041884 0.000714 0.583497 -0.383512
C40   C     C_3   0.541884 0.500713 0.583497 -0.383511
C41   C     C_3   0.663784 0.198136 0.868911 1.137063
C42   C     C_3   0.671137 0.796894 0.871440 1.132441
C43   C     C_3   0.163783 0.698136 0.868912 1.137062
C44   C     C_3   0.171138 0.296893 0.871440 1.132442
C45   C     C_3   0.111360 0.746812 0.876621 -0.779346
C46   C     C_3   0.113711 0.251820 0.878960 -0.784973
C47   C     C_3   0.611360 0.246812 0.876621 -0.779344
C48   C     C_3   0.613710 0.751820 0.878961 -0.784973
C49   C     C_3   0.316568 0.744797 0.026007 0.506268
C50   C     C_3   0.320657 0.248400 0.030660 0.513183
C51   C     C_3   0.816568 0.244796 0.026007 0.506269
C52   C     C_3   0.820657 0.748401 0.030659 0.513182
C53   C     C_3   0.733655 0.176054 0.072667 0.257425
C54   C     C_3   0.741602 0.821398 0.074802 0.251066
C55   C     C_3   0.233655 0.676055 0.072668 0.257420
C56   C     C_3   0.241602 0.321398 0.074802 0.251068
C57   C     C_3   0.759543 0.190585 0.990613 -0.222742
C58   C     C_3   0.766696 0.803679 0.993117 -0.219836
C59   C     C_3   0.259543 0.690585 0.990614 -0.222738
C60   C     C_3   0.266697 0.303678 0.993117 -0.219837
C61   C     C_3   0.163531 0.768712 0.996642 0.057340
C62   C     C_3   0.163788 0.230474 0.998752 0.074061
C63   C     C_3   0.663531 0.268712 0.996642 0.057339
C64   C     C_3   0.663787 0.730475 0.998752 0.074062
C65   C     C_3   0.261887 0.789306 0.036089 -0.546681
C66   C     C_3   0.260338 0.206358 0.037449 -0.564910
C67   C     C_3   0.761888 0.289305 0.036089 -0.546679
C68   C     C_3   0.760338 0.706358 0.037448 -0.564912
C69   C     C_3   0.169950 0.721356 0.069524 0.414939
C70   C     C_3   0.174150 0.279182 0.071916 0.401617
C71   C     C_3   0.669950 0.221356 0.069524 0.414944
C72   C     C_3   0.674150 0.779182 0.071917 0.401618
C73   C     C_3   0.474895 0.948984 0.357017 -0.405069
C74   C     C_3   0.474618 0.051175 0.357811 -0.406792
C75   C     C_3   0.974895 0.448984 0.357017 -0.405070
C76   C     C_3   0.974618 0.551175 0.357811 -0.406794
C77   C     C_R   0.744657 0.954512 0.694506 -0.141685
C78   C     C_R   0.745011 0.045253 0.694029 -0.151201
C79   C     C_R   0.244657 0.454512 0.694507 -0.141684
C80   C     C_R   0.245011 0.545253 0.694029 -0.151202
C81   C     C_3   0.579241 0.948976 0.456568 -0.409898
C82   C     C_3   0.578714 0.051366 0.457937 -0.409264
C83   C     C_3   0.079241 0.448976 0.456568 -0.409899
C84   C     C_3   0.078714 0.551366 0.457938 -0.409264
C85   C     C_3   0.435551 0.999794 0.471615 -0.405461
C86   C     C_3   0.935551 0.499794 0.471615 -0.405463
C87   C     C_3   0.425104 0.999985 0.361710 0.410895
C88   C     C_3   0.925104 0.499985 0.361710 0.410896
C89   C     C_3   0.601290 0.999907 0.529858 0.406649
C90   C     C_3   0.101290 0.499907 0.529858 0.406649
C91   C     C_3   0.538531 0.999448 0.569777 -0.392150
C92   C     C_3   0.038531 0.499448 0.569777 -0.392148
C93   C     C_R   0.994117 0.045581 0.263393 -0.114523
C94   C     C_R   0.992599 0.954054 0.261223 -0.121525
C95   C     C_R   0.494117 0.545581 0.263392 -0.114523
C96   C     C_R   0.492599 0.454054 0.261222 -0.121524
C97   C     C_R   0.828515 0.844936 0.995690 0.165887
C98   C     C_R   0.820594 0.147732 0.995422 0.157147
C99   C     C_R   0.328516 0.344935 0.995690 0.165888
C100  C     C_R   0.320594 0.647733 0.995422 0.157147
C101  C     C_R   0.698347 0.999840 0.630604 -0.001468
C102  C     C_R   0.198347 0.499840 0.630604 -0.001469
C103  C     C_R   0.967644 0.999756 0.292210 0.016102
C104  C     C_R   0.467644 0.499756 0.292209 0.016102
C105  C     C_R   0.267560 0.954198 0.247307 -0.144064
C106  C     C_R   0.267388 0.045777 0.247009 -0.144851
C107  C     C_R   0.767561 0.454198 0.247307 -0.144065
C108  C     C_R   0.767388 0.545776 0.247009 -0.144851
C109  C     C_R   0.952644 0.045502 0.696717 -0.143657
C110  C     C_R   0.952592 0.954226 0.696768 -0.142414
C111  C     C_R   0.452645 0.545502 0.696717 -0.143657
C112  C     C_R   0.452592 0.454226 0.696768 -0.142414
H1    H     H_    0.953842 0.844074 0.170991 0.112694
H2    H     H_    0.945471 0.151293 0.170779 0.117394
H3    H     H_    0.453842 0.344074 0.170991 0.112693
H4    H     H_    0.445471 0.651294 0.170779 0.117395
H5    H     H_    0.916558 0.088585 0.509944 0.145720
H6    H     H_    0.923651 0.910095 0.514495 0.146340
H7    H     H_    0.416558 0.588585 0.509944 0.145720
H8    H     H_    0.423650 0.410095 0.514495 0.146340
H9    H     H_    0.090317 0.037362 0.495506 0.153950
H10   H     H_    0.092294 0.964223 0.497030 0.155505
H11   H     H_    0.590316 0.537362 0.495505 0.153950
H12   H     H_    0.592294 0.464223 0.497029 0.155504
H13   H     H_    0.076822 0.037800 0.634947 0.153661
H14   H     H_    0.079542 0.964673 0.637212 0.155804
H15   H     H_    0.576823 0.537799 0.634947 0.153660
H16   H     H_    0.579541 0.464673 0.637212 0.155804
H17   H     H_    0.538250 0.235298 0.843262 0.183721
H18   H     H_    0.542127 0.766541 0.846231 0.180248
H19   H     H_    0.038250 0.735297 0.843263 0.183721
H20   H     H_    0.042128 0.266541 0.846231 0.180248
H21   H     H_    0.107687 0.781174 0.827013 0.209366
H22   H     H_    0.105807 0.216643 0.828467 0.206772
H23   H     H_    0.607687 0.281175 0.827013 0.209366
H24   H     H_    0.605807 0.716643 0.828467 0.206773
H25   H     H_    0.686447 0.140194 0.034958 0.116802
H26   H     H_    0.697346 0.858414 0.036683 0.114527
H27   H     H_    0.186449 0.640194 0.034959 0.116802
H28   H     H_    0.197346 0.358414 0.036682 0.114526
H29   H     H_    0.443014 0.910751 0.359808 0.142946
H30   H     H_    0.442215 0.089313 0.360472 0.142334
H31   H     H_    0.943015 0.410751 0.359808 0.142947
H32   H     H_    0.942215 0.589313 0.360472 0.142334
H33   H     H_    0.731699 0.912480 0.668258 0.084541
H34   H     H_    0.732614 0.087160 0.667171 0.090484
H35   H     H_    0.231699 0.412480 0.668258 0.084541
H36   H     H_    0.232614 0.587160 0.667171 0.090484
H37   H     H_    0.593493 0.910803 0.503665 0.142900
H38   H     H_    0.591874 0.089154 0.505927 0.144002
H39   H     H_    0.093494 0.410803 0.503665 0.142901
H40   H     H_    0.091874 0.589154 0.505927 0.144002
H41   H     H_    0.400683 0.963316 0.476183 0.152752
H42   H     H_    0.401149 0.036404 0.477006 0.152836
H43   H     H_    0.900683 0.463316 0.476183 0.152752
H44   H     H_    0.901149 0.536404 0.477006 0.152836
H45   H     H_    0.553274 0.962606 0.620772 0.155874
H46   H     H_    0.553479 0.035633 0.622653 0.157143
H47   H     H_    0.053273 0.462605 0.620771 0.155874
H48   H     H_    0.053479 0.535633 0.622653 0.157143
H49   H     H_    0.998872 0.086777 0.290566 0.092440
H50   H     H_    0.994572 0.912426 0.284408 0.103099
H51   H     H_    0.498871 0.586777 0.290565 0.092441
H52   H     H_    0.494572 0.412425 0.284407 0.103100
H53   H     H_    0.288920 0.912085 0.263058 0.087349
H54   H     H_    0.288311 0.087954 0.261943 0.088109
H55   H     H_    0.788920 0.412086 0.263058 0.087350
H56   H     H_    0.788311 0.587954 0.261943 0.088109
H57   H     H_    0.942734 0.087773 0.672448 0.084844
H58   H     H_    0.942234 0.911918 0.672449 0.084624
H59   H     H_    0.442734 0.587773 0.672448 0.084844
H60   H     H_    0.442234 0.411919 0.672449 0.084624
H61   H     H_    0.007607 0.836209 0.821365 0.101566
H62   H     H_    0.003825 0.164840 0.822650 0.102345
H63   H     H_    0.507607 0.336209 0.821365 0.101566
H64   H     H_    0.503825 0.664840 0.822650 0.102345
H65   H     H_    0.190392 0.164593 0.177228 0.152158
H66   H     H_    0.193842 0.836144 0.176636 0.153331
H67   H     H_    0.690392 0.664593 0.177228 0.152158
H68   H     H_    0.693843 0.336144 0.176636 0.153331
H69   H     H_    0.930584 0.088320 0.373619 0.163075
H70   H     H_    0.936108 0.910103 0.377192 0.163651
H71   H     H_    0.430583 0.588320 0.373619 0.163076
H72   H     H_    0.436107 0.410103 0.377192 0.163651
N1    N     N_R   0.950530 0.896220 0.057200 -0.056050
N2    N     N_R   0.950530 0.103780 0.057200 -0.056899
N3    N     N_R   0.450530 0.396220 0.057200 -0.056050
N4    N     N_R   0.450530 0.603780 0.057200 -0.056899
N5    N     N_R   0.893330 0.103780 0.942800 -0.065586
N6    N     N_R   0.893330 0.896220 0.942800 -0.067227
N7    N     N_R   0.393330 0.603780 0.942800 -0.065586
N8    N     N_R   0.393330 0.396220 0.942800 -0.067227
N9    N     N_R   0.818150 0.971400 0.792440 -0.034797
N10   N     N_R   0.818150 0.028600 0.792440 -0.036020
N11   N     N_R   0.318150 0.471400 0.792440 -0.034797
N12   N     N_R   0.318150 0.528600 0.792440 -0.036020
N13   N     N_R   0.025710 0.028600 0.207560 -0.042356
N14   N     N_R   0.025710 0.971400 0.207560 -0.043184
N15   N     N_R   0.525710 0.528600 0.207560 -0.042356
N16   N     N_R   0.525710 0.471400 0.207560 -0.043184
N17   N     N_R   0.181850 0.971400 0.207560 -0.038967
N18   N     N_R   0.181850 0.028600 0.207560 -0.038857
N19   N     N_R   0.681850 0.471400 0.207560 -0.038967
N20   N     N_R   0.681850 0.528600 0.207560 -0.038857
N21   N     N_R   0.974290 0.028600 0.792440 -0.033002
N22   N     N_R   0.974290 0.971400 0.792440 -0.033219
N23   N     N_R   0.474290 0.528600 0.792440 -0.033002
N24   N     N_R   0.474290 0.471400 0.792440 -0.033219
N25   N     N_R   0.049470 0.896220 0.942800 -0.042094
N26   N     N_R   0.049470 0.103780 0.942800 -0.040938
N27   N     N_R   0.549470 0.396220 0.942800 -0.042093
N28   N     N_R   0.549470 0.603780 0.942800 -0.040938
N29   N     N_R   0.106670 0.103780 0.057200 -0.050450
N30   N     N_R   0.106670 0.896220 0.057200 -0.051369
N31   N     N_R   0.606670 0.603780 0.057200 -0.050450
N32   N     N_R   0.606670 0.396220 0.057200 -0.051368
Ni1   Ni    Ni4+2 0.065600 0.934400 0.131190 0.202815
Ni2   Ni    Ni4+2 0.065600 0.065600 0.131190 0.200816
Ni3   Ni    Ni4+2 0.565600 0.434400 0.131190 0.202814
Ni4   Ni    Ni4+2 0.565600 0.565600 0.131190 0.200816
Ni5   Ni    Ni4+2 0.934400 0.065600 0.868810 0.212874
Ni6   Ni    Ni4+2 0.934400 0.934400 0.868810 0.213810
Ni7   Ni    Ni4+2 0.434400 0.565600 0.868810 0.212874
Ni8   Ni    Ni4+2 0.434400 0.434400 0.868810 0.213810
H73   H     H_    0.824210 0.049902 0.287329 0.184946
H74   H     H_    0.827446 0.946504 0.289791 0.181816
H75   H     H_    0.324210 0.549902 0.287329 0.184944
H76   H     H_    0.327445 0.446505 0.289791 0.181815
H77   H     H_    0.810307 0.049469 0.429727 0.155968
H78   H     H_    0.814242 0.946403 0.432740 0.153841
H79   H     H_    0.310308 0.549470 0.429727 0.155967
H80   H     H_    0.314242 0.446404 0.432740 0.153841
O1    O     O_3   0.686942 0.207887 0.793123 -0.602296
C113  C     C_3   0.622071 0.236873 0.694196 -0.288739
H81   H     H_    0.621181 0.218007 0.626526 0.148734
H82   H     H_    0.646645 0.279482 0.703491 0.175690
H83   H     H_    0.548938 0.237244 0.667962 0.109471
O2    O     O_3   0.695588 0.783306 0.798018 -0.601834
C114  C     C_3   0.629804 0.754294 0.699450 -0.290910
H84   H     H_    0.650428 0.710701 0.711125 0.171485
H85   H     H_    0.632947 0.770289 0.632842 0.152002
H86   H     H_    0.555990 0.757440 0.670272 0.109797
O3    O     O_3   0.186941 0.707887 0.793123 -0.602296
C115  C     C_3   0.122070 0.736872 0.694195 -0.288738
H87   H     H_    0.121179 0.718007 0.626526 0.148734
H88   H     H_    0.146643 0.779481 0.703489 0.175690
H89   H     H_    0.048937 0.737243 0.667962 0.109471
O4    O     O_3   0.195590 0.283305 0.798018 -0.601835
C116  C     C_3   0.129806 0.254293 0.699451 -0.290905
H90   H     H_    0.150430 0.210699 0.711128 0.171484
H91   H     H_    0.132952 0.270286 0.632844 0.152003
H92   H     H_    0.055991 0.257439 0.670271 0.109796
O5    O     O_3   0.613290 0.148171 0.844601 -0.688145
C117  C     C_3   0.537019 0.140577 0.733010 -0.293835
H93   H     H_    0.560937 0.136204 0.679864 0.166568
H94   H     H_    0.482951 0.172730 0.703360 0.134159
H95   H     H_    0.502487 0.101577 0.726336 0.170316
O6    O     O_3   0.624582 0.848541 0.844873 -0.686216
C118  C     C_3   0.549526 0.855995 0.732702 -0.296760
H96   H     H_    0.493287 0.825406 0.703231 0.133785
H97   H     H_    0.574560 0.857569 0.680385 0.165095
H98   H     H_    0.517302 0.896231 0.724318 0.170559
O7    O     O_3   0.113290 0.648171 0.844602 -0.688145
C119  C     C_3   0.037019 0.640576 0.733011 -0.293834
H99   H     H_    0.060937 0.636203 0.679865 0.166568
H100  H     H_    0.982951 0.672730 0.703361 0.134159
H101  H     H_    0.002487 0.601576 0.726338 0.170316
O8    O     O_3   0.124583 0.348540 0.844873 -0.686216
C120  C     C_3   0.049527 0.355994 0.732701 -0.296760
H102  H     H_    0.993288 0.325405 0.703230 0.133785
H103  H     H_    0.074562 0.357567 0.680385 0.165095
H104  H     H_    0.017303 0.396231 0.724316 0.170558
O9    O     O_3   0.329765 0.760318 0.945017 -0.560149
C121  C     C_3   0.422215 0.777791 0.993721 -0.239397
H105  H     H_    0.472059 0.743218 0.036038 0.144324
H106  H     H_    0.441038 0.812333 0.051367 0.112640
H107  H     H_    0.427076 0.792331 0.927554 0.168036
O10   O     O_3   0.340405 0.231811 0.955747 -0.557173
C122  C     C_3   0.399963 0.185676 0.993969 -0.240482
H108  H     H_    0.357260 0.148278 0.955364 0.144564
H109  H     H_    0.445918 0.180771 0.085310 0.091318
H110  H     H_    0.445448 0.189227 0.966416 0.163588
O11   O     O_3   0.829765 0.260318 0.945017 -0.560149
C123  C     C_3   0.922215 0.277791 0.993722 -0.239398
H111  H     H_    0.972059 0.243218 0.036039 0.144325
H112  H     H_    0.941038 0.312333 0.051367 0.112640
H113  H     H_    0.927077 0.292331 0.927555 0.168036
O12   O     O_3   0.840403 0.731811 0.955746 -0.557172
C124  C     C_3   0.899961 0.685676 0.993967 -0.240477
H114  H     H_    0.857258 0.648279 0.955357 0.144564
H115  H     H_    0.945913 0.680770 0.085307 0.091315
H116  H     H_    0.945448 0.689229 0.966417 0.163587
H117  H     H_    0.753397 0.125792 0.819711 0.155327
H118  H     H_    0.759514 0.866315 0.818616 0.154334
H119  H     H_    0.253397 0.625792 0.819711 0.155327
H120  H     H_    0.259515 0.366315 0.818616 0.154334
H121  H     H_    0.254154 0.825283 0.986158 0.211850
H122  H     H_    0.247542 0.170464 0.984909 0.205466
H123  H     H_    0.754155 0.325282 0.986159 0.211850
H124  H     H_    0.747542 0.670465 0.984908 0.205467
O13   O     O_3   0.808402 0.154442 0.178037 -0.619313
C125  C     C_3   0.867092 0.192076 0.263804 -0.110753
H125  H     H_    0.863611 0.234153 0.236799 0.131829
H126  H     H_    0.941090 0.178586 0.310037 0.072580
H127  H     H_    0.850219 0.191612 0.323993 0.171796
O14   O     O_3   0.817955 0.841787 0.180684 -0.621725
C126  C     C_3   0.875468 0.803194 0.264957 -0.133097
H128  H     H_    0.863631 0.760387 0.238308 0.141071
H129  H     H_    0.865523 0.807523 0.330738 0.160523
H130  H     H_    0.950348 0.812597 0.305030 0.077939
O15   O     O_3   0.308403 0.654443 0.178038 -0.619313
C127  C     C_3   0.367094 0.692077 0.263804 -0.110760
H131  H     H_    0.363610 0.734154 0.236799 0.131832
H132  H     H_    0.441092 0.678587 0.310036 0.072582
H133  H     H_    0.350222 0.691613 0.323995 0.171792
O16   O     O_3   0.317956 0.341787 0.180684 -0.621725
C128  C     C_3   0.375468 0.303194 0.264957 -0.133099
H134  H     H_    0.363632 0.260387 0.238308 0.141072
H135  H     H_    0.365523 0.307523 0.330738 0.160523
H136  H     H_    0.450348 0.312597 0.305030 0.077939
H137  H     H_    0.597105 0.204734 0.023861 -0.000245
H138  H     H_    0.602635 0.797790 0.027425 -0.002024
H139  H     H_    0.097106 0.704734 0.023862 -0.000242
H140  H     H_    0.102636 0.297790 0.027425 -0.002024
O17   O     O_3   0.202919 0.739910 0.176179 -0.623017
C129  C     C_3   0.149502 0.718211 0.209238 -0.324420
H141  H     H_    0.185781 0.727388 0.298063 0.161974
H142  H     H_    0.142659 0.673150 0.199064 0.153506
H143  H     H_    0.079523 0.738144 0.162653 0.156200
O18   O     O_3   0.204622 0.261769 0.178217 -0.623869
C130  C     C_3   0.173989 0.297857 0.224218 -0.286209
H144  H     H_    0.100390 0.289049 0.191020 0.126697
H145  H     H_    0.181753 0.341438 0.210741 0.162060
H146  H     H_    0.217287 0.290974 0.314652 0.155686
O19   O     O_3   0.702920 0.239910 0.176179 -0.623016
C131  C     C_3   0.649492 0.218219 0.209231 -0.324427
H147  H     H_    0.685767 0.227397 0.298054 0.161975
H148  H     H_    0.642640 0.173158 0.199058 0.153502
H149  H     H_    0.579517 0.238157 0.162640 0.156204
O20   O     O_3   0.704622 0.761768 0.178217 -0.623869
C132  C     C_3   0.673989 0.797856 0.224219 -0.286209
H150  H     H_    0.600389 0.789049 0.191020 0.126696
H151  H     H_    0.681753 0.841438 0.210742 0.162060
H152  H     H_    0.717286 0.790974 0.314652 0.155686
H153  H     H_    0.384743 0.739401 0.108839 0.004073
H154  H     H_    0.388281 0.253883 0.113557 0.014141
H155  H     H_    0.884743 0.239400 0.108839 0.004072
H156  H     H_    0.888280 0.753883 0.113556 0.014143
H157  H     H_    0.302708 0.804179 0.122686 0.142240
H158  H     H_    0.299831 0.190506 0.123139 0.145341
H159  H     H_    0.802709 0.304178 0.122687 0.142241
H160  H     H_    0.799831 0.690507 0.123138 0.145341
H161  H     H_    0.468255 0.948752 0.278709 0.151958
H162  H     H_    0.468543 0.051515 0.279855 0.151529
H163  H     H_    0.968255 0.448752 0.278709 0.151958
H164  H     H_    0.968543 0.551515 0.279855 0.151529
H165  H     H_    0.624223 0.948754 0.427514 0.149281
H166  H     H_    0.624172 0.052533 0.429572 0.149484
H167  H     H_    0.124223 0.448754 0.427514 0.149281
H168  H     H_    0.124172 0.552533 0.429573 0.149483

loop_
_geom_bond_atom_site_label_1
_geom_bond_atom_site_label_2
_ccdc_geom_bond_type
C39   H13   S    
C55   C59   S    
C24   H72   S    
C15   C109  A    
C77   C101  A    
N32   Ni3   S    
C42   C58   S    
C82   H166  S    
N1    N6    A    
O13   C125  S    
C26   H78   S    
C69   O17   S    
C46   C62   S    
N4    N7    A    
C53   H25   S    
C106  H54   S    
C123  H111  S    
C56   H28   S    
C86   C88   S    
C52   H156  S    
C40   H16   S    
C55   H27   S    
C115  H87   S    
C62   C70   S    
C121  H105  S    
C86   H44   S    
C117  H94   S    
C17   C61   S    
C65   H121  S    
C32   C104  S    
C79   C102  A    
C36   C97   A    
C51   C57   S    
C36   H118  S    
C49   O9    S    
N15   N16   A    
C78   C101  A    
N25   Ni6   S    
C113  H82   S    
C73   C81   S    
C44   C46   S    
C80   N12   A    
C107  H55   S    
C11   C20   A    
O18   C130  S    
O20   C132  S    
C13   C106  A    
C6    H62   S    
C9    N29   A    
C81   H165  S    
O19   C131  S    
O16   C128  S    
C113  H83   S    
C128  H136  S    
C24   C32   S    
C95   H51   S    
C46   H22   S    
C90   C92   S    
C93   H49   S    
C29   H10   S    
C129  H143  S    
O14   C126  S    
C52   C58   S    
C76   H32   S    
C14   C107  A    
C35   H117  S    
C63   C71   S    
C7    C19   A    
C120  H103  S    
C11   H67   S    
C12   N32   A    
N13   Ni2   S    
C53   C71   S    
N7    Ni7   S    
C9    H65   S    
C89   C101  S    
C123  H113  S    
C131  H147  S    
C118  H97   S    
C3    N3    A    
C1    N1    A    
C45   H21   S    
C115  H89   S    
C92   H48   S    
C4    N4    A    
C14   C88   S    
N31   Ni4   S    
C2    H2    S    
C41   O1    S    
C81   H37   S    
C122  H109  S    
C78   H34   S    
N11   N12   A    
C61   C65   S    
C80   H36   S    
N9    N10   A    
C126  H129  S    
C56   O16   S    
C16   C111  A    
N23   Ni7   S    
C93   C103  A    
C42   O2    S    
C73   H161  S    
C23   H71   S    
C21   C31   S    
C116  H90   S    
C82   C89   S    
C47   H17   S    
C36   N6    A    
C64   C68   S    
N6    Ni6   S    
C46   H20   S    
O5    C117  S    
N27   Ni8   S    
C41   O5    S    
C108  N20   A    
C79   N11   A    
C127  H131  S    
C90   C102  S    
C91   H46   S    
C77   N9    A    
C16   C34   S    
C105  H53   S    
C119  H99   S    
C74   C87   S    
C89   C91   S    
O1    C113  S    
C28   H80   S    
C43   C59   S    
N27   N32   A    
C108  H56   S    
C37   H119  S    
C38   H120  S    
C59   C100  S    
C84   C90   S    
C131  H149  S    
C109  H57   S    
C132  H151  S    
C125  H126  S    
C71   H137  S    
C62   C66   S    
C74   H162  S    
C28   H8    S    
C19   C63   S    
C18   C62   S    
C51   C67   S    
C117  H95   S    
C66   H122  S    
C96   H52   S    
C80   C102  A    
C93   N13   A    
C107  N19   A    
C130  H145  S    
C26   C33   S    
C105  N17   A    
N28   N31   A    
C13   C87   S    
C124  H114  S    
C41   C47   S    
C114  H85   S    
C42   C48   S    
C109  N21   A    
C43   C45   S    
N3    N8    A    
C129  H141  S    
C83   H167  S    
C12   H68   S    
C111  N23   A    
C96   N16   A    
C21   C25   S    
C116  H92   S    
C67   H123  S    
C5    H61   S    
C48   H24   S    
C24   C28   S    
C52   O12   S    
C7    N27   A    
N29   Ni2   S    
C8    H64   S    
C22   H74   S    
N24   Ni8   S    
N26   N29   A    
C5    N25   A    
C50   O10   S    
C38   N8    A    
C49   C59   S    
C127  H133  S    
C66   H158  S    
C126  H130  S    
C50   C60   S    
C55   C69   S    
C123  H112  S    
O6    C118  S    
C53   O13   S    
C42   O6    S    
C43   O7    S    
N22   Ni6   S    
C119  H101  S    
C115  H88   S    
C111  H59   S    
C85   H42   S    
N13   N14   A    
C130  H146  S    
C3    C99   A    
C9    C18   A    
C69   H139  S    
C30   H11   S    
O11   C123  S    
O10   C122  S    
C129  H142  S    
C8    N28   A    
C37   C100  A    
C25   C33   S    
C121  H107  S    
C114  H84   S    
N19   N20   A    
C76   C84   S    
O7    C119  S    
C73   H29   S    
C25   H77   S    
C1    H1    S    
N20   Ni4   S    
C47   C63   S    
N11   Ni8   S    
C48   C64   S    
C5    C17   A    
O3    C115  S    
C124  H116  S    
C78   N10   A    
C128  H135  S    
C55   O15   S    
C73   C87   S    
C49   H153  S    
C29   H9    S    
C122  H108  S    
C76   H164  S    
C35   C98   A    
C65   H157  S    
C81   C89   S    
C60   C99   S    
C14   C108  A    
C28   C34   S    
C35   N5    A    
C39   H14   S    
C120  H102  S    
C15   C110  A    
C48   H18   S    
C74   C82   S    
C50   H154  S    
C83   H39   S    
N4    Ni4   S    
N23   N24   A    
C26   H6    S    
N8    Ni8   S    
C13   C105  A    
C53   C57   S    
C10   N30   A    
C79   H35   S    
C43   O3    S    
C132  H150  S    
C40   H15   S    
C126  H128  S    
C130  H144  S    
C70   O18   S    
C117  H93   S    
N2    Ni2   S    
C47   H23   S    
C33   C39   S    
N1    Ni1   S    
N10   Ni5   S    
C110  H58   S    
C131  H148  S    
C94   C103  A    
C45   H19   S    
N14   Ni1   S    
C113  H81   S    
O4    C116  S    
C16   C112  A    
C70   H140  S    
O2    C114  S    
C4    H4    S    
C38   C99   A    
C82   H38   S    
N25   N30   A    
C23   C32   S    
C68   H124  S    
N2    N5    A    
C41   C57   S    
C3    H3    S    
C67   H159  S    
C75   C83   S    
C112  H60   S    
C44   C60   S    
C57   C98   S    
C12   C19   A    
C45   C61   S    
C127  H132  S    
O17   C129  S    
C91   H45   S    
N12   Ni7   S    
C44   O4    S    
C56   C60   S    
O8    C120  S    
C119  H100  S    
C22   C26   S    
C120  H104  S    
N16   Ni3   S    
C8    C20   A    
O15   C127  S    
N17   N18   A    
C86   H43   S    
C118  H98   S    
C75   H163  S    
C85   C91   S    
C44   O8    S    
N3    Ni3   S    
N21   N22   A    
C21   H69   S    
C125  H127  S    
C72   O20   S    
C49   C65   S    
C92   H47   S    
C34   C40   S    
C84   H168  S    
N5    Ni5   S    
C10   C17   A    
C122  H110  S    
C7    H63   S    
N18   Ni2   S    
C23   C27   S    
C76   C88   S    
C121  H106  S    
C52   C68   S    
C74   H30   S    
N26   Ni5   S    
C51   O11   S    
C58   C97   S    
C84   H40   S    
C85   C87   S    
C27   C34   S    
C72   H138  S    
C6    C18   A    
C63   C67   S    
C116  H91   S    
C22   C31   S    
C10   H66   S    
C112  N24   A    
C1    C97   A    
C94   N14   A    
C31   C103  S    
C20   C64   S    
C2    N2    A    
C106  N18   A    
C29   C39   S    
C71   O19   S    
O9    C121  S    
C30   C40   S    
C110  N22   A    
C85   H41   S    
C50   C66   S    
C68   H160  S    
C75   H31   S    
C22   H70   S    
C27   H79   S    
C37   N7    A    
C30   H12   S    
C56   C70   S    
C4    C100  A    
C118  H96   S    
C77   H33   S    
C95   C104  A    
C54   C58   S    
C132  H152  S    
C61   C69   S    
C83   C90   S    
C94   H50   S    
C125  H125  S    
N9    Ni6   S    
C51   H155  S    
N15   Ni4   S    
C54   O14   S    
N30   Ni1   S    
C25   H5    S    
C23   H75   S    
C6    N26   A    
C27   H7    S    
C21   H73   S    
N19   Ni3   S    
O12   C124  S    
C96   C104  A    
N17   Ni1   S    
C29   C31   S    
C86   C92   S    
C30   C32   S    
C54   H26   S    
N21   Ni5   S    
C124  H115  S    
C114  H86   S    
C64   C72   S    
C128  H134  S    
C75   C88   S    
C54   C72   S    
C2    C98   A    
C95   N15   A    
C11   N31   A    
C24   H76   S    
C15   C33   S    
N28   Ni7   S    
