data_mof_unit_13145.cif
_audit_creation_date              2012-10-26T17:11:04-0400
_audit_creation_method            fapswitch 2.2
_symmetry_space_group_name_H-M    P1
_symmetry_Int_Tables_number       1
_space_group_crystal_system       triclinic
_cell_length_a                    27.863408
_cell_length_b                    18.842422
_cell_length_c                    16.870742
_cell_angle_alpha                 90.021449
_cell_angle_beta                  63.124072
_cell_angle_gamma                 89.999845
_cell_volume                      7900.66943436

loop_
_atom_site_label
_atom_site_type_symbol
_atom_type_description
_atom_site_fract_x
_atom_site_fract_y
_atom_site_fract_z
_atom_type_partial_charge
C1    C     C_R   0.295795 0.730155 0.329078 0.560780
C2    C     C_R   0.438593 0.119270 0.537188 0.123755
C3    C     C_R   0.927340 0.098074 0.065842 0.556916
C4    C     C_R   0.427412 0.401840 0.065846 0.555802
C5    C     C_R   0.572742 0.597963 0.934099 0.556872
C6    C     C_R   0.572508 0.401733 0.934207 0.555872
C7    C     C_R   0.427340 0.598073 0.065843 0.556916
C8    C     C_R   0.047954 0.496221 0.508418 -0.048207
C9    C     C_R   0.951880 0.496202 0.492026 -0.048056
C10   C     C_R   0.547955 0.996221 0.508414 -0.048206
C11   C     C_R   0.451881 0.996202 0.492023 -0.048056
C12   C     C_R   0.026587 0.560288 0.494939 0.066684
C13   C     C_R   0.465306 0.872071 0.450894 0.126416
C14   C     C_R   0.978899 0.431687 0.487247 0.064577
C15   C     C_R   0.973152 0.560263 0.505758 0.066807
C16   C     C_R   0.021001 0.431687 0.513024 0.064365
C17   C     C_R   0.526588 0.060288 0.494935 0.066684
C18   C     C_R   0.478900 0.931687 0.487243 0.064577
C19   C     C_R   0.473153 0.060263 0.505754 0.066807
C20   C     C_R   0.521002 0.931687 0.513021 0.064365
C21   C     C_R   0.114145 0.434297 0.540927 -0.021325
C22   C     C_R   0.873239 0.559926 0.499362 -0.022440
C23   C     C_R   0.885808 0.434288 0.459206 -0.020935
C24   C     C_R   0.561083 0.119339 0.463609 0.123566
C25   C     C_R   0.126615 0.559957 0.500968 -0.022581
C26   C     C_R   0.614146 0.934297 0.540924 -0.021326
C27   C     C_R   0.373240 0.059926 0.499360 -0.022441
C28   C     C_R   0.385808 0.934288 0.459204 -0.020936
C29   C     C_R   0.626616 0.059957 0.500965 -0.022582
C30   C     C_R   0.164394 0.434263 0.543704 -0.034186
C31   C     C_R   0.829152 0.562917 0.477671 -0.029658
C32   C     C_R   0.835589 0.434245 0.456343 -0.034325
C33   C     C_R   0.170785 0.562937 0.522460 -0.029720
C34   C     C_R   0.664394 0.934263 0.543704 -0.034184
C35   C     C_R   0.034676 0.372043 0.549176 0.125940
C36   C     C_R   0.329152 0.062918 0.477671 -0.029659
C37   C     C_R   0.335589 0.934245 0.456342 -0.034325
C38   C     C_R   0.670785 0.062937 0.522460 -0.029718
C39   C     C_R   0.187638 0.499610 0.548214 -0.065694
C40   C     C_R   0.812340 0.499582 0.451832 -0.065655
C41   C     C_R   0.687636 0.999610 0.548215 -0.065690
C42   C     C_R   0.312340 0.999582 0.451831 -0.065654
C43   C     C_R   0.096135 0.496955 0.517538 0.007969
C44   C     C_R   0.903745 0.496934 0.482775 0.008202
C45   C     C_R   0.596136 0.996955 0.517535 0.007969
C46   C     C_R   0.938592 0.619270 0.537190 0.123755
C47   C     C_R   0.403745 0.996934 0.482772 0.008201
C48   C     C_R   0.580083 0.874413 0.564369 -0.110208
C49   C     C_R   0.388289 0.117165 0.537673 -0.112601
C50   C     C_R   0.419906 0.874424 0.435676 -0.109466
C51   C     C_R   0.611451 0.117219 0.462881 -0.111880
C52   C     C_R   0.080083 0.374413 0.564372 -0.110208
C53   C     C_R   0.888288 0.617165 0.537675 -0.112601
C54   C     C_R   0.919906 0.374424 0.435679 -0.109466
C55   C     C_R   0.111449 0.617219 0.462884 -0.111880
C56   C     C_R   0.224383 0.501480 0.590761 0.082560
C57   C     C_R   0.965305 0.372071 0.450897 0.126416
C58   C     C_R   0.280774 0.500620 0.539473 -0.003111
C59   C     C_R   0.314275 0.502287 0.580981 -0.104317
C60   C     C_R   0.291943 0.504728 0.673642 -0.096130
C61   C     C_R   0.236081 0.505406 0.724956 -0.103027
C62   C     C_R   0.202376 0.503679 0.683773 -0.087060
C63   C     C_R   0.775593 0.501379 0.409285 0.082580
C64   C     C_R   0.719202 0.500657 0.460586 -0.003073
C65   C     C_R   0.685696 0.502000 0.419078 -0.104489
C66   C     C_R   0.708025 0.503924 0.326401 -0.096203
C67   C     C_R   0.763886 0.504424 0.275074 -0.102810
C68   C     C_R   0.061082 0.619339 0.463612 0.123566
C69   C     C_R   0.797596 0.503054 0.316259 -0.087181
C70   C     C_R   0.724376 0.001482 0.590774 0.082551
C71   C     C_R   0.780767 0.000620 0.539498 -0.003115
C72   C     C_R   0.814262 0.002290 0.581018 -0.104315
C73   C     C_R   0.791922 0.004737 0.673680 -0.096129
C74   C     C_R   0.736059 0.005417 0.724983 -0.103034
C75   C     C_R   0.702361 0.003686 0.683787 -0.087069
C76   C     C_R   0.275593 0.001379 0.409285 0.082580
C77   C     C_R   0.219202 0.000657 0.460587 -0.003073
C78   C     C_R   0.185696 0.002001 0.419079 -0.104489
C79   C     C_R   0.219143 0.768088 0.956263 0.027595
C80   C     C_R   0.208024 0.003925 0.326402 -0.096201
C81   C     C_R   0.263886 0.004425 0.275075 -0.102807
C82   C     C_R   0.297595 0.003055 0.316259 -0.087181
C83   C     C_R   0.091440 0.817283 0.773370 0.078846
C84   C     C_R   0.089998 0.872437 0.718015 -0.003635
C85   C     C_R   0.054132 0.869227 0.681058 -0.112865
C86   C     C_R   0.019609 0.811125 0.698693 -0.103352
C87   C     C_R   0.020806 0.756226 0.753479 -0.103333
C88   C     C_R   0.056570 0.759213 0.790710 -0.092265
C89   C     C_R   0.908415 0.180888 0.226093 0.080284
C90   C     C_R   0.780057 0.230691 0.044367 0.028035
C91   C     C_R   0.948441 0.233319 0.199058 -0.094295
C92   C     C_R   0.988039 0.231201 0.228266 -0.123487
C93   C     C_R   0.987783 0.177012 0.285050 -0.120373
C94   C     C_R   0.947890 0.124805 0.312862 -0.110562
C95   C     C_R   0.908485 0.126309 0.283226 -0.002677
C96   C     C_R   0.908337 0.817909 0.226890 0.079306
C97   C     C_R   0.909637 0.873174 0.282273 -0.003712
C98   C     C_R   0.945416 0.870135 0.319408 -0.112974
C99   C     C_R   0.979978 0.812085 0.301951 -0.103352
C100  C     C_R   0.978909 0.757070 0.247159 -0.102474
C101  C     C_R   0.779822 0.769796 0.044900 0.026802
C102  C     C_R   0.943242 0.759890 0.209733 -0.091638
C103  C     C_R   0.091801 0.180368 0.773683 0.080837
C104  C     C_R   0.051818 0.232862 0.800509 -0.093903
C105  C     C_R   0.012321 0.230739 0.771082 -0.123190
C106  C     C_R   0.012640 0.176488 0.714278 -0.120465
C107  C     C_R   0.052493 0.124212 0.686678 -0.110697
C108  C     C_R   0.091800 0.125724 0.716528 -0.002694
C109  C     C_R   0.591440 0.317283 0.773370 0.078846
C110  C     C_R   0.589998 0.372437 0.718015 -0.003635
C111  C     C_R   0.554132 0.369227 0.681058 -0.112865
C112  C     C_R   0.704083 0.269576 0.670991 0.576439
C113  C     C_R   0.220941 0.228965 0.954555 0.027931
C114  C     C_R   0.519609 0.311125 0.698692 -0.103352
C115  C     C_R   0.520806 0.256226 0.753479 -0.103333
C116  C     C_R   0.556570 0.259213 0.790709 -0.092266
C117  C     C_R   0.408414 0.680887 0.226094 0.080285
C118  C     C_R   0.448441 0.733317 0.199058 -0.094294
C119  C     C_R   0.488039 0.731197 0.228266 -0.123486
C120  C     C_R   0.487783 0.677009 0.285051 -0.120372
C121  C     C_R   0.447889 0.624803 0.312863 -0.110561
C122  C     C_R   0.408484 0.626308 0.283227 -0.002677
C123  C     C_R   0.408336 0.317911 0.226892 0.079307
C124  C     C_R   0.719142 0.268086 0.956264 0.027597
C125  C     C_R   0.409635 0.373177 0.282274 -0.003711
C126  C     C_R   0.445413 0.370140 0.319411 -0.112974
C127  C     C_R   0.479976 0.312091 0.301955 -0.103354
C128  C     C_R   0.478909 0.257075 0.247163 -0.102473
C129  C     C_R   0.443242 0.259893 0.209736 -0.091637
C130  C     C_R   0.591801 0.680368 0.773683 0.080837
C131  C     C_R   0.551819 0.732863 0.800508 -0.093903
C132  C     C_R   0.512322 0.730739 0.771080 -0.123189
C133  C     C_R   0.512641 0.676488 0.714276 -0.120465
C134  C     C_R   0.552493 0.624212 0.686678 -0.110697
C135  C     C_R   0.280057 0.730691 0.044367 0.028034
C136  C     C_R   0.591800 0.625724 0.716528 -0.002694
C137  C     C_R   0.279822 0.269795 0.044899 0.026802
C138  C     C_R   0.720941 0.728966 0.954555 0.027930
C139  C     C_R   0.217217 0.698583 0.987388 -0.121790
C140  C     C_R   0.781957 0.300201 0.013294 -0.120929
C141  C     C_R   0.730474 0.802518 0.064531 -0.121691
C142  C     C_R   0.270290 0.196234 0.934922 -0.122657
C143  C     C_R   0.717226 0.198577 0.987371 -0.121789
C144  C     C_R   0.704128 0.730346 0.670946 0.560687
C145  C     C_R   0.281967 0.800197 0.013276 -0.120930
C146  C     C_R   0.230475 0.302518 0.064530 -0.121691
C147  C     C_R   0.770290 0.696235 0.934921 -0.122658
C148  C     C_R   0.247670 0.679904 0.031026 -0.122550
C149  C     C_R   0.751505 0.318878 0.969661 -0.120777
C150  C     C_R   0.701074 0.782025 0.019726 -0.121673
C151  C     C_R   0.299687 0.216719 0.979746 -0.122483
C152  C     C_R   0.747681 0.179899 0.031007 -0.122550
C153  C     C_R   0.251516 0.818875 0.969642 -0.120777
C154  C     C_R   0.201075 0.282025 0.019725 -0.121673
C155  C     C_R   0.295988 0.269398 0.328992 0.576268
C156  C     C_R   0.799687 0.716721 0.979745 -0.122483
C157  C     C_R   0.145234 0.831220 0.942555 -0.158016
C158  C     C_R   0.854309 0.168109 0.057599 -0.158783
C159  C     C_R   0.854190 0.832078 0.058033 -0.158160
C160  C     C_R   0.146281 0.167217 0.941791 -0.159005
C161  C     C_R   0.645233 0.331219 0.942556 -0.158017
C162  C     C_R   0.354309 0.668109 0.057600 -0.158782
C163  C     C_R   0.354190 0.332078 0.058032 -0.158160
C164  C     C_R   0.646280 0.667217 0.941791 -0.159005
C165  C     C_R   0.115734 0.848428 0.896255 -0.030697
C166  C     C_R   0.795795 0.230155 0.329078 0.560781
C167  C     C_R   0.883872 0.151076 0.103812 -0.031397
C168  C     C_R   0.884003 0.848822 0.103974 -0.031296
C169  C     C_R   0.116399 0.150668 0.895945 -0.031911
C170  C     C_R   0.615734 0.348427 0.896255 -0.030697
C171  C     C_R   0.383872 0.651076 0.103812 -0.031398
C172  C     C_R   0.384004 0.348822 0.103974 -0.031296
C173  C     C_R   0.616399 0.650668 0.895945 -0.031911
C174  C     C_R   0.130373 0.818346 0.811682 -0.072651
C175  C     C_R   0.869194 0.180936 0.188442 -0.072689
C176  C     C_R   0.869425 0.818767 0.188526 -0.072618
C177  C     C_R   0.204083 0.769575 0.670991 0.576438
C178  C     C_R   0.131015 0.180519 0.811348 -0.072575
C179  C     C_R   0.630372 0.318346 0.811682 -0.072651
C180  C     C_R   0.369194 0.680936 0.188442 -0.072689
C181  C     C_R   0.369425 0.318768 0.188526 -0.072619
C182  C     C_R   0.631015 0.680519 0.811348 -0.072574
C183  C     C_R   0.180145 0.782430 0.768056 0.010731
C184  C     C_R   0.819418 0.216761 0.232251 0.011044
C185  C     C_R   0.819848 0.782438 0.232008 0.011519
C186  C     C_R   0.180584 0.216781 0.767700 0.011779
C187  C     C_R   0.680145 0.282430 0.768056 0.010731
C188  C     C_R   0.204128 0.230346 0.670946 0.560685
C189  C     C_R   0.319419 0.716762 0.232251 0.011044
C190  C     C_R   0.319848 0.282438 0.232008 0.011518
C191  C     C_R   0.680584 0.716781 0.767700 0.011780
C192  C     C_R   0.208653 0.763611 0.816696 0.088027
C193  C     C_R   0.790577 0.235007 0.183910 0.087887
C194  C     C_R   0.791300 0.763610 0.183491 0.088014
C195  C     C_R   0.209449 0.235079 0.815937 0.087708
C196  C     C_R   0.708653 0.263612 0.816696 0.088028
C197  C     C_R   0.290578 0.735010 0.183909 0.087886
C198  C     C_R   0.291301 0.263609 0.183490 0.088014
C199  C     C_R   0.795988 0.769398 0.328992 0.576269
C200  C     C_R   0.709449 0.735079 0.815937 0.087708
C201  C     C_R   0.189829 0.786562 0.905023 -0.012173
C202  C     C_R   0.809445 0.212260 0.095490 -0.012155
C203  C     C_R   0.809201 0.788165 0.096043 -0.012790
C204  C     C_R   0.191519 0.210652 0.903461 -0.012630
C205  C     C_R   0.689829 0.286560 0.905024 -0.012170
C206  C     C_R   0.309445 0.712260 0.095490 -0.012157
C207  C     C_R   0.309201 0.288164 0.096043 -0.012790
C208  C     C_R   0.691519 0.710653 0.903461 -0.012631
C209  C     C_R   0.198944 0.630889 0.519292 0.545096
C210  C     C_R   0.534676 0.872043 0.549173 0.125941
C211  C     C_R   0.803836 0.367752 0.470352 0.546325
C212  C     C_R   0.801038 0.630885 0.480748 0.545262
C213  C     C_R   0.196161 0.367762 0.529655 0.546497
C214  C     C_R   0.698944 0.130889 0.519292 0.545098
C215  C     C_R   0.303836 0.867752 0.470352 0.546324
C216  C     C_R   0.301038 0.130885 0.480747 0.545261
C217  C     C_R   0.696161 0.867762 0.529655 0.546500
C218  C     C_R   0.927412 0.901840 0.065846 0.555803
C219  C     C_R   0.072742 0.097963 0.934099 0.556871
C220  C     C_R   0.072509 0.901734 0.934207 0.555872
Cu1   Cu    Cu3+1 0.209920 0.785290 0.495070 0.927693
Cu2   Cu    Cu3+1 0.504760 0.500000 0.075850 0.919622
Cu3   Cu    Cu3+1 0.995240 0.000000 0.924150 0.919554
Cu4   Cu    Cu3+1 0.004760 0.000000 0.075850 0.919622
Cu5   Cu    Cu3+1 0.790080 0.214710 0.504930 0.935644
Cu6   Cu    Cu3+1 0.790080 0.785290 0.504930 0.927194
Cu7   Cu    Cu3+1 0.209920 0.214710 0.495070 0.934275
Cu8   Cu    Cu3+1 0.709920 0.285290 0.495070 0.927693
Cu9   Cu    Cu3+1 0.290080 0.714710 0.504930 0.935646
Cu10  Cu    Cu3+1 0.290080 0.285290 0.504930 0.927199
Cu11  Cu    Cu3+1 0.709920 0.714710 0.495070 0.934275
Cu12  Cu    Cu3+1 0.495240 0.500000 0.924150 0.919554
H1    H     H_    0.586680 0.829804 0.598543 0.146120
H2    H     H_    0.745534 0.126226 0.055365 0.107467
H3    H     H_    0.446178 0.412658 0.361991 0.074144
H4    H     H_    0.507528 0.309659 0.331003 0.109901
H5    H     H_    0.505635 0.212112 0.233902 0.112008
H6    H     H_    0.442573 0.216756 0.167794 0.093137
H7    H     H_    0.550785 0.774680 0.845324 0.092947
H8    H     H_    0.481213 0.770907 0.792912 0.100692
H9    H     H_    0.481854 0.674776 0.691940 0.105779
H10   H     H_    0.552581 0.582068 0.642993 0.075269
H11   H     H_    0.621825 0.584071 0.696373 0.097252
H12   H     H_    0.251394 0.674309 0.809954 0.223770
H13   H     H_    0.837551 0.690740 0.964491 0.104687
H14   H     H_    0.288407 0.750327 0.780018 0.237124
H15   H     H_    0.710617 0.246661 0.221205 0.227357
H16   H     H_    0.746777 0.323382 0.191226 0.226510
H17   H     H_    0.751694 0.673464 0.181631 0.227638
H18   H     H_    0.711465 0.745436 0.225960 0.233046
H19   H     H_    0.289515 0.251854 0.772784 0.223259
H20   H     H_    0.250022 0.324451 0.817263 0.230210
H21   H     H_    0.751398 0.174310 0.809945 0.223768
H22   H     H_    0.788407 0.250332 0.780020 0.237125
H23   H     H_    0.210618 0.746670 0.221207 0.227356
H24   H     H_    0.163203 0.307997 0.035002 0.104423
H25   H     H_    0.246783 0.823387 0.191216 0.226511
H26   H     H_    0.251694 0.173463 0.181631 0.227638
H27   H     H_    0.211466 0.245434 0.225959 0.233046
H28   H     H_    0.789515 0.751855 0.772784 0.223259
H29   H     H_    0.750021 0.824452 0.817264 0.230212
H30   H     H_    0.753657 0.372554 0.945306 0.108846
H31   H     H_    0.245516 0.626234 0.055398 0.107467
H32   H     H_    0.337551 0.190738 0.964492 0.104687
H33   H     H_    0.663202 0.807997 0.035004 0.104423
H34   H     H_    0.192404 0.658860 0.977301 0.101404
H35   H     H_    0.806754 0.339930 0.023412 0.101810
H36   H     H_    0.714673 0.843463 0.114945 0.108461
H37   H     H_    0.361196 0.160034 0.571737 0.150253
H38   H     H_    0.286087 0.155283 0.884513 0.103930
H39   H     H_    0.692421 0.158851 0.977271 0.101401
H40   H     H_    0.306772 0.839922 0.023380 0.101812
H41   H     H_    0.214674 0.343463 0.114944 0.108461
H42   H     H_    0.786088 0.655285 0.884512 0.103930
H43   H     H_    0.133616 0.852417 0.008465 0.141437
H44   H     H_    0.866044 0.147101 0.991567 0.142062
H45   H     H_    0.865616 0.853503 0.992309 0.142030
H46   H     H_    0.134742 0.145951 0.007625 0.142453
H47   H     H_    0.633615 0.352414 0.008466 0.141435
H48   H     H_    0.413344 0.829830 0.401408 0.145916
H49   H     H_    0.366043 0.647099 0.991568 0.142064
H50   H     H_    0.365616 0.353502 0.992309 0.142031
H51   H     H_    0.634742 0.645951 0.007625 0.142452
H52   H     H_    0.298469 0.498836 0.467594 0.096909
H53   H     H_    0.357536 0.501730 0.541291 0.074080
H54   H     H_    0.317923 0.506077 0.705709 0.100476
H55   H     H_    0.218888 0.507281 0.796701 0.096745
H56   H     H_    0.159152 0.504224 0.724227 0.092053
H57   H     H_    0.701511 0.499185 0.532474 0.096913
H58   H     H_    0.642436 0.501554 0.458778 0.074061
H59   H     H_    0.638492 0.160096 0.428782 0.152608
H60   H     H_    0.682042 0.504987 0.294333 0.100472
H61   H     H_    0.781077 0.505855 0.203316 0.097257
H62   H     H_    0.840819 0.503413 0.275793 0.092009
H63   H     H_    0.798468 0.998832 0.467619 0.096916
H64   H     H_    0.857523 0.001732 0.541337 0.074085
H65   H     H_    0.817897 0.006089 0.705756 0.100477
H66   H     H_    0.718860 0.007297 0.796728 0.096743
H67   H     H_    0.659136 0.004234 0.724233 0.092056
H68   H     H_    0.201511 0.999185 0.532474 0.096913
H69   H     H_    0.142436 0.001554 0.458779 0.074061
H70   H     H_    0.086680 0.329804 0.598545 0.146119
H71   H     H_    0.182041 0.004988 0.294334 0.100472
H72   H     H_    0.281076 0.005856 0.203316 0.097257
H73   H     H_    0.340818 0.003414 0.275792 0.092009
H74   H     H_    0.483408 0.811580 0.650767 0.213783
H75   H     H_    0.521187 0.766283 0.556299 0.236165
H76   H     H_    0.422596 0.179441 0.645495 0.208335
H77   H     H_    0.447734 0.224578 0.548723 0.232350
H78   H     H_    0.516665 0.811780 0.349108 0.212625
H79   H     H_    0.478928 0.766331 0.443418 0.236738
H80   H     H_    0.576883 0.179685 0.355569 0.210952
H81   H     H_    0.861195 0.660034 0.571739 0.150253
H82   H     H_    0.551817 0.224665 0.452500 0.232413
H83   H     H_    0.983407 0.311579 0.650770 0.213784
H84   H     H_    0.021187 0.266283 0.556302 0.236166
H85   H     H_    0.922595 0.679442 0.645497 0.208335
H86   H     H_    0.947733 0.724578 0.548724 0.232351
H87   H     H_    0.016665 0.311780 0.349111 0.212625
H88   H     H_    0.978928 0.266331 0.443420 0.236738
H89   H     H_    0.076881 0.679682 0.355571 0.210951
H90   H     H_    0.051817 0.724665 0.452500 0.232412
H91   H     H_    0.116905 0.917419 0.703342 0.099372
H92   H     H_    0.913344 0.329830 0.401410 0.145916
H93   H     H_    0.053260 0.911660 0.638493 0.074229
H94   H     H_    0.991982 0.808566 0.669798 0.109785
H95   H     H_    0.994100 0.711230 0.766901 0.109860
H96   H     H_    0.057328 0.716171 0.832668 0.092728
H97   H     H_    0.949443 0.275067 0.154218 0.092577
H98   H     H_    0.019184 0.271312 0.206265 0.097461
H99   H     H_    0.018654 0.175291 0.307199 0.105147
H100  H     H_    0.947857 0.082702 0.356520 0.075332
H101  H     H_    0.878457 0.084669 0.303487 0.097667
H102  H     H_    0.882682 0.918101 0.296834 0.098915
H103  H     H_    0.138491 0.660096 0.428784 0.152606
H104  H     H_    0.946181 0.912653 0.361988 0.074145
H105  H     H_    0.007531 0.809652 0.330998 0.109902
H106  H     H_    0.005635 0.712107 0.233897 0.112006
H107  H     H_    0.942572 0.716753 0.167791 0.093137
H108  H     H_    0.050784 0.274680 0.845326 0.092947
H109  H     H_    0.981212 0.270906 0.792915 0.100693
H110  H     H_    0.981853 0.174775 0.691943 0.105779
H111  H     H_    0.052581 0.082068 0.642993 0.075270
H112  H     H_    0.121826 0.084071 0.696373 0.097252
H113  H     H_    0.616905 0.417419 0.703342 0.099372
H114  H     H_    0.253677 0.872547 0.945273 0.108847
H115  H     H_    0.553261 0.411660 0.638493 0.074229
H116  H     H_    0.491982 0.308566 0.669797 0.109785
H117  H     H_    0.494100 0.211230 0.766900 0.109860
H118  H     H_    0.557328 0.216171 0.832667 0.092728
H119  H     H_    0.449444 0.775065 0.154218 0.092577
H120  H     H_    0.519185 0.771308 0.206265 0.097460
H121  H     H_    0.518653 0.675287 0.307200 0.105147
H122  H     H_    0.447855 0.582699 0.356522 0.075331
H123  H     H_    0.378456 0.584668 0.303487 0.097664
H124  H     H_    0.382680 0.418104 0.296835 0.098912
N1    N     N_3   0.498876 0.812702 0.581676 -0.612558
N2    N     N_3   0.741597 0.275380 0.225102 -0.598801
N3    N     N_3   0.745021 0.718037 0.222231 -0.592758
N4    N     N_3   0.256143 0.279911 0.776814 -0.598004
N5    N     N_3   0.757202 0.222342 0.775911 -0.591398
N6    N     N_3   0.241601 0.775388 0.225099 -0.598798
N7    N     N_3   0.245021 0.218036 0.222230 -0.592758
N8    N     N_3   0.756142 0.779912 0.776814 -0.598004
N9    N     N_3   0.451337 0.177713 0.578808 -0.621255
N10   N     N_3   0.501182 0.812799 0.418206 -0.613841
N11   N     N_3   0.548212 0.177851 0.422290 -0.620767
N12   N     N_3   0.998876 0.312702 0.581679 -0.612558
N13   N     N_3   0.951336 0.677714 0.578811 -0.621254
N14   N     N_3   0.001181 0.312799 0.418209 -0.613841
N15   N     N_3   0.048211 0.677850 0.422292 -0.620768
N16   N     N_3   0.257200 0.722337 0.775913 -0.591398
O1    O     O_R   0.255040 0.869590 0.478480 -0.509609
O2    O     O_R   0.817950 0.203450 0.375560 -0.531423
O3    O     O_R   0.817950 0.796550 0.375560 -0.518653
O4    O     O_R   0.182050 0.203450 0.624440 -0.531175
O5    O     O_R   0.682050 0.296550 0.624440 -0.518825
O6    O     O_R   0.317950 0.703450 0.375560 -0.531423
O7    O     O_R   0.317950 0.296550 0.375560 -0.518653
O8    O     O_R   0.682050 0.703450 0.624440 -0.531175
O9    O     O_R   0.250530 0.763330 0.367210 -0.468606
O10   O     O_R   0.749470 0.236670 0.632790 -0.454779
O11   O     O_R   0.749470 0.763330 0.632790 -0.469811
O12   O     O_R   0.744960 0.130410 0.521520 -0.509587
O13   O     O_R   0.250530 0.236670 0.367210 -0.456222
O14   O     O_R   0.750530 0.263330 0.367210 -0.468605
O15   O     O_R   0.249470 0.736670 0.632790 -0.454780
O16   O     O_R   0.249470 0.263330 0.632790 -0.469811
O17   O     O_R   0.750530 0.736670 0.367210 -0.456221
O18   O     O_R   0.177260 0.690030 0.513710 -0.519755
O19   O     O_R   0.822740 0.309970 0.486290 -0.514793
O20   O     O_R   0.822740 0.690030 0.486290 -0.520084
O21   O     O_R   0.177260 0.309970 0.513710 -0.516002
O22   O     O_R   0.677260 0.190030 0.513710 -0.519755
O23   O     O_R   0.744960 0.869590 0.521520 -0.508844
O24   O     O_R   0.322740 0.809970 0.486290 -0.514794
O25   O     O_R   0.322740 0.190030 0.486290 -0.520084
O26   O     O_R   0.677260 0.809970 0.513710 -0.516002
O27   O     O_R   0.051640 0.926880 0.885090 -0.509827
O28   O     O_R   0.948360 0.073120 0.114910 -0.505254
O29   O     O_R   0.948360 0.926880 0.114910 -0.509663
O30   O     O_R   0.051640 0.073120 0.885090 -0.505169
O31   O     O_R   0.551640 0.426880 0.885090 -0.509827
O32   O     O_R   0.448360 0.573120 0.114910 -0.505254
O33   O     O_R   0.448360 0.426880 0.114910 -0.509663
O34   O     O_R   0.255040 0.130410 0.478480 -0.508821
O35   O     O_R   0.551640 0.573120 0.885090 -0.505169
O36   O     O_R   0.940620 0.926560 0.986760 -0.513460
O37   O     O_R   0.059380 0.073440 0.013240 -0.512197
O38   O     O_R   0.059380 0.926560 0.013240 -0.513417
O39   O     O_R   0.940620 0.073440 0.986760 -0.512194
O40   O     O_R   0.440620 0.426560 0.986760 -0.513460
O41   O     O_R   0.559380 0.573440 0.013240 -0.512197
O42   O     O_R   0.559380 0.426560 0.013240 -0.513417
O43   O     O_R   0.440620 0.573440 0.986760 -0.512194
O44   O     O_R   0.755040 0.369590 0.478480 -0.509610
O45   O     O_R   0.244960 0.630410 0.521520 -0.509586
O46   O     O_R   0.244960 0.369590 0.521520 -0.508841
O47   O     O_R   0.755040 0.630410 0.478480 -0.508821
O48   O     O_R   0.182050 0.796550 0.624440 -0.518825

loop_
_geom_bond_atom_site_label_1
_geom_bond_atom_site_label_2
_ccdc_geom_bond_type
C79   C139  A    
C28   C47   A    
C126  C127  A    
C96   C102  A    
C36   C42   A    
Cu3   Cu4   S    
C199  O3    A    
C197  N6    S    
C3    O39   A    
C114  C115  A    
Cu2   O42   S    
H20   N4    S    
C13   C18   A    
C210  N1    S    
C156  H13   S    
C16   C35   A    
C187  C196  A    
C152  H2    S    
C106  C107  A    
C184  C193  A    
Cu5   Cu8   S    
C113  C142  A    
C37   C42   A    
C110  C111  A    
C165  C220  S    
H87   N14   S    
C211  O19   A    
C162  C171  A    
C10   C20   A    
C79   C201  S    
C20   C210  A    
C185  C194  A    
Cu10  O46   S    
C24   C51   A    
C83   C88   A    
C112  O5    A    
C200  C208  A    
Cu12  O40   S    
C6    O31   A    
C161  C205  A    
C197  C206  A    
C108  H112  S    
Cu8   O22   S    
C38   C214  S    
Cu9   O15   S    
C104  C105  A    
C158  C167  A    
C68   N15   S    
C73   H65   S    
H82   N11   S    
C213  O21   A    
C137  C146  A    
C160  H46   S    
C90   C152  A    
C22   C31   A    
C110  H113  S    
C212  O20   A    
C128  H5    S    
C115  H117  S    
C200  N8    S    
C29   C45   A    
C142  C151  A    
C199  O17   A    
H12   N16   S    
C51   H59   S    
C97   H102  S    
C181  C190  A    
C39   C56   S    
C146  C154  A    
Cu6   O23   S    
C98   H104  S    
H83   N12   S    
C140  H35   S    
C164  C173  A    
C71   H63   S    
C163  C172  A    
Cu3   O30   S    
C150  H33   S    
C151  H32   S    
C135  C206  S    
C82   H73   S    
C1    O9    A    
C173  C182  A    
H79   N10   S    
C101  C203  S    
C106  H110  S    
C56   C62   A    
C160  C204  A    
C157  C165  A    
Cu4   O28   S    
C21   C30   A    
C189  C197  A    
C14   C57   A    
Cu7   O21   S    
C220  O38   A    
C2    C19   A    
C120  H121  S    
H19   N4    S    
C25   C55   A    
C72   C73   A    
C90   C140  A    
C144  C191  S    
H75   N1    S    
C112  O10   A    
C130  C131  A    
C9    C15   A    
C209  O18   A    
C123  C181  S    
C23   C32   A    
C30   C213  S    
Cu4   O29   S    
C24   N11   S    
C216  O34   A    
H76   N9    S    
C46   C53   A    
Cu6   O11   S    
C218  O29   A    
C62   H56   S    
H21   N5    S    
C104  H108  S    
C178  C186  A    
C98   C99   A    
C69   H62   S    
C118  H119  S    
C194  N3    S    
Cu4   O38   S    
C211  O44   A    
C80   H71   S    
C90   C202  S    
C65   H58   S    
C124  C149  A    
C11   C18   A    
C55   H103  S    
Cu9   O6    S    
C128  C129  A    
C25   C43   A    
C97   C98   A    
C144  O8    A    
C34   C217  S    
C3    C167  S    
C85   C86   A    
H18   N3    S    
C59   H53   S    
Cu12  O31   S    
C143  H39   S    
C100  H106  S    
C4    O40   A    
Cu9   O24   S    
C5    O41   A    
C180  C189  A    
Cu7   O34   S    
C78   C80   A    
C115  C116  A    
C50   H48   S    
H26   N7    S    
Cu1   O18   S    
H22   N5    S    
Cu1   O48   S    
C172  C181  A    
C63   C69   A    
C29   C38   A    
C107  C108  A    
C89   C91   A    
Cu8   O44   S    
C48   H1    S    
C46   N13   S    
C87   H95   S    
H25   N6    S    
C66   C67   A    
Cu2   Cu12  S    
C153  H114  S    
C91   H97   S    
C86   H94   S    
C141  C150  A    
C215  O1    A    
C155  O13   A    
C139  C148  A    
H90   N15   S    
C3    O28   A    
Cu12  O43   S    
Cu11  O26   S    
C191  C200  A    
C38   C41   A    
C164  C208  A    
C76   C82   A    
C91   C92   A    
C32   C211  S    
C138  C208  S    
H27   N7    S    
C165  C174  A    
C117  C122  A    
H84   N12   S    
C79   C153  A    
Cu11  O47   S    
C83   C84   A    
C8    C12   A    
C10   C45   A    
Cu9   O45   S    
Cu11  O17   S    
C185  C199  S    
C4    O33   A    
C57   N14   S    
Cu1   O1    S    
Cu11  O8    S    
Cu3   O39   S    
H85   N13   S    
C159  H45   S    
C74   H66   S    
C157  C201  A    
C214  O22   A    
Cu1   Cu9   S    
C103  C104  A    
C120  C121  A    
C167  C175  A    
C6    C170  S    
C162  H49   S    
C27   C47   A    
C168  C176  A    
C1    O6    A    
C4    C172  S    
C136  H11   S    
C198  C207  A    
C5    C173  S    
C121  H122  S    
C42   C76   S    
C215  O24   A    
C103  C178  S    
C188  O16   A    
C132  H8    S    
C71   C72   A    
C117  C118  A    
C36   C216  S    
C28   C37   A    
C56   C58   A    
C30   C39   A    
C75   H67   S    
C61   C62   A    
Cu8   O14   S    
C102  H107  S    
C196  N5    S    
C13   C50   A    
Cu6   O20   S    
C59   C60   A    
C8    C16   A    
C83   C174  S    
C70   C75   A    
C175  C184  A    
C15   C46   A    
C140  C149  A    
C27   C49   A    
C25   C33   A    
C54   C57   A    
C1    C189  S    
C87   C88   A    
C13   N10   S    
H17   N3    S    
Cu10  O25   S    
C7    C171  S    
C124  C205  S    
C73   C74   A    
C11   C47   A    
C8    C43   A    
C113  C154  A    
C183  C192  A    
C88   H96   S    
C112  C187  S    
C55   C68   A    
C160  C169  A    
C176  C185  A    
C154  H24   S    
C77   C78   A    
C213  O46   A    
C11   C19   A    
C40   C63   S    
C111  H115  S    
C145  H40   S    
C188  O4    A    
C29   C51   A    
C144  O11   A    
C123  C125  A    
C179  C187  A    
C166  O2    A    
C99   H105  S    
C31   C40   A    
H78   N10   S    
C7    O32   A    
C134  H10   S    
H23   N6    S    
C109  C116  A    
C31   C212  S    
C135  C145  A    
C192  C201  A    
C124  C143  A    
C70   C71   A    
C192  N16   S    
H15   N2    S    
C26   C48   A    
C162  C206  A    
H89   N15   S    
C34   C41   A    
H14   N16   S    
Cu2   O41   S    
H88   N14   S    
Cu5   O19   S    
C84   H91   S    
C141  H36   S    
C52   H70   S    
C216  O25   A    
C94   H100  S    
C84   C85   A    
Cu8   O5    S    
C161  H47   S    
Cu5   O2    S    
C86   C87   A    
C195  C204  A    
C101  C156  A    
C58   C59   A    
C177  C183  S    
C105  H109  S    
C23   C44   A    
C60   C61   A    
C89   C95   A    
C9    C14   A    
C2    N9    S    
C155  C190  S    
C12   C68   A    
C12   C15   A    
C166  C184  S    
C147  C156  A    
C121  C122  A    
C143  C152  A    
C169  C219  S    
C125  C126  A    
C7    O43   A    
C182  C191  A    
C89   C175  S    
C186  C188  S    
C131  C132  A    
C149  H30   S    
C107  H111  S    
C190  C198  A    
H77   N9    S    
C155  O7    A    
Cu3   O36   S    
C96   C176  S    
C219  O30   A    
C174  C183  A    
C157  H43   S    
C119  C120  A    
C158  H44   S    
C27   C36   A    
C105  C106  A    
C170  C179  A    
C64   C65   A    
C109  C110  A    
C177  O15   A    
C166  O14   A    
C163  C207  A    
C92   C93   A    
Cu2   O33   S    
C219  O37   A    
C111  C114  A    
C94   C95   A    
C193  C202  A    
C217  O26   A    
H74   N1    S    
H16   N2    S    
C35   C52   A    
C177  O48   A    
C37   C215  S    
C41   C70   S    
C78   H69   S    
C93   C94   A    
C129  H6    S    
C146  H41   S    
C142  H38   S    
C81   C82   A    
C138  C150  A    
H28   N8    S    
C127  H4    S    
C33   C39   A    
C122  H123  S    
Cu2   O32   S    
C93   H99   S    
Cu1   O9    S    
Cu7   O13   S    
C10   C17   A    
Cu6   Cu11  S    
C159  C168  A    
C218  O36   A    
C113  C204  S    
C196  C205  A    
C118  C119  A    
C6    O42   A    
C133  H9    S    
C21   C43   A    
C28   C50   A    
C26   C34   A    
C22   C44   A    
Cu10  O16   S    
C132  C133  A    
C163  H50   S    
C103  C108  A    
H80   N11   S    
Cu4   O37   S    
C26   C45   A    
C117  C180  S    
C145  C153  A    
C32   C40   A    
C66   H60   S    
Cu6   O3    S    
C123  C129  A    
C212  O47   A    
C33   C209  S    
C85   H93   S    
C22   C53   A    
C198  N7    S    
C17   C24   A    
C74   C75   A    
C186  C195  A    
C76   C77   A    
H86   N13   S    
C130  C182  S    
C131  H7    S    
C134  C136  A    
Cu7   O4    S    
C209  O45   A    
C35   N12   S    
C63   C64   A    
C164  H51   S    
C64   H57   S    
C67   C69   A    
C2    C49   A    
C125  H124  S    
C72   H64   S    
C109  C179  S    
C159  C203  A    
C99   C100  A    
C138  C147  A    
C96   C97   A    
C67   H61   S    
C100  C102  A    
C126  H3    S    
C193  N2    S    
C77   H68   S    
C161  C170  A    
C119  H120  S    
C139  H34   S    
C48   C210  A    
C195  N4    S    
C65   C66   A    
Cu5   O12   S    
C116  H118  S    
C158  C202  A    
C14   C16   A    
C171  C180  A    
C54   H92   S    
C214  O12   A    
C81   H72   S    
C169  C178  A    
C23   C54   A    
C137  C207  S    
C9    C44   A    
C101  C141  A    
C130  C136  A    
C80   C81   A    
C5    O35   A    
C95   H101  S    
Cu3   O27   S    
C133  C134  A    
C58   H52   S    
C194  C203  A    
Cu12  O35   S    
C17   C19   A    
C60   H54   S    
C18   C20   A    
C61   H55   S    
C148  H31   S    
C147  H42   S    
Cu10  O7    S    
Cu7   Cu10  S    
C92   H98   S    
C135  C148  A    
C220  O27   A    
C53   H81   S    
C137  C151  A    
C168  C218  S    
C21   C52   A    
C127  C128  A    
C114  H116  S    
Cu5   O10   S    
C217  O23   A    
H29   N8    S    
C49   H37   S    
