data_mof_unit_34155.cif
_audit_creation_date              2012-12-10T16:51:47-0500
_audit_creation_method            fapswitch 2.2
_symmetry_space_group_name_H-M    P1
_symmetry_Int_Tables_number       1
_space_group_crystal_system       triclinic
_cell_length_a                    15.355431
_cell_length_b                    15.62078
_cell_length_c                    9.719806
_cell_angle_alpha                 90.304339
_cell_angle_beta                  87.659272
_cell_angle_gamma                 90.002471
_cell_volume                      2329.45148789

loop_
_atom_site_label
_atom_site_type_symbol
_atom_type_description
_atom_site_fract_x
_atom_site_fract_y
_atom_site_fract_z
_atom_type_partial_charge
C1    C     C_R   0.385518 0.879818 0.502108 0.743734
C2    C     C_R   0.385471 0.120171 0.502506 0.738549
C3    C     C_R   0.885518 0.379819 0.502108 0.743747
C4    C     C_R   0.885471 0.620171 0.502505 0.738544
C5    C     C_R   0.614874 0.119320 0.498130 0.764407
C6    C     C_R   0.614832 0.880616 0.497727 0.770024
C7    C     C_R   0.114874 0.619320 0.498130 0.764405
C8    C     C_R   0.114832 0.380617 0.497727 0.770016
C9    C     C_2   0.735029 0.797413 0.396305 0.451192
C10   C     C_2   0.733781 0.203021 0.395113 0.460004
C11   C     C_2   0.235032 0.297417 0.396309 0.451189
C12   C     C_2   0.233773 0.703031 0.395104 0.459992
C13   C     C_2   0.668346 0.803401 0.491022 0.304708
C14   C     C_2   0.668605 0.196303 0.492343 0.304412
C15   C     C_2   0.168347 0.303402 0.491021 0.304712
C16   C     C_2   0.168605 0.696303 0.492347 0.304413
C17   C     C_2   0.288764 0.219155 0.395993 -0.286650
C18   C     C_2   0.287922 0.780995 0.395512 -0.295910
C19   C     C_2   0.788761 0.719151 0.395993 -0.286650
C20   C     C_2   0.787931 0.280986 0.395513 -0.295908
C21   C     C_2   0.330178 0.196643 0.508877 0.328893
C22   C     C_2   0.330203 0.803406 0.507963 0.321054
C23   C     C_2   0.830177 0.696643 0.508876 0.328903
C24   C     C_2   0.830202 0.303407 0.507967 0.321050
C25   C     C_2   0.432318 0.019898 0.926384 -0.079659
C26   C     C_2   0.932318 0.519899 0.926384 -0.079658
C27   C     C_2   0.429302 0.005087 0.079768 0.403704
C28   C     C_2   0.929302 0.505087 0.079768 0.403702
Cu1   Cu    Cu3+1 0.500020 0.000000 0.638630 0.955390
Cu2   Cu    Cu3+1 0.000020 0.500000 0.638630 0.955396
Cu3   Cu    Cu3+1 0.499980 0.000000 0.361370 1.020628
Cu4   Cu    Cu3+1 0.999980 0.500000 0.361370 1.020628
H1    H     H_    0.293170 0.180825 0.302403 0.156724
H2    H     H_    0.292122 0.819126 0.302450 0.166279
H3    H     H_    0.793163 0.680817 0.302406 0.156722
H4    H     H_    0.792139 0.319108 0.302441 0.166274
H5    H     H_    0.374110 0.043776 0.880100 0.147469
H6    H     H_    0.874110 0.543777 0.880100 0.147467
H7    H     H_    0.547150 0.964406 0.888498 0.230867
H8    H     H_    0.047150 0.464405 0.888498 0.230866
N1    N     N_2   0.498660 0.000000 0.846910 -0.278087
N2    N     N_2   0.998660 0.500000 0.846910 -0.278084
N3    N     N_2   0.498630 0.000000 0.153040 -0.014186
N4    N     N_2   0.998630 0.500000 0.153040 -0.014187
O1    O     O_R   0.410990 0.910970 0.617040 -0.592699
O2    O     O_R   0.410990 0.089030 0.617040 -0.594289
O3    O     O_R   0.910990 0.410970 0.617040 -0.592695
O4    O     O_R   0.910990 0.589030 0.617040 -0.594292
O5    O     O_R   0.410950 0.910970 0.382900 -0.569023
O6    O     O_R   0.410950 0.089030 0.382900 -0.557479
O7    O     O_R   0.910950 0.410970 0.382900 -0.569024
O8    O     O_R   0.910950 0.589030 0.382900 -0.557478
O9    O     O_R   0.589050 0.089030 0.617100 -0.555736
O10   O     O_R   0.589050 0.910970 0.617100 -0.578545
O11   O     O_R   0.089050 0.589030 0.617100 -0.555722
O12   O     O_R   0.089050 0.410970 0.617100 -0.578547
O13   O     O_R   0.589010 0.089030 0.382960 -0.540627
O14   O     O_R   0.589010 0.910970 0.382960 -0.592134
O15   O     O_R   0.089010 0.589030 0.382960 -0.540624
O16   O     O_R   0.089010 0.410970 0.382960 -0.592137
O17   O     O_3   0.748907 0.863369 0.301162 -0.626530
C29   C     C_3   0.830253 0.857377 0.228852 -0.342250
H9    H     H_    0.831604 0.801804 0.156888 0.170797
H10   H     H_    0.884829 0.854166 0.300589 0.187319
H11   H     H_    0.839835 0.915895 0.165926 0.178558
O18   O     O_3   0.744615 0.139012 0.294702 -0.598192
C30   C     C_3   0.827002 0.142117 0.225116 -0.311024
H12   H     H_    0.880755 0.141982 0.298593 0.171590
H13   H     H_    0.831824 0.198426 0.155794 0.168979
H14   H     H_    0.834659 0.084005 0.159695 0.177191
O19   O     O_3   0.248911 0.363374 0.301169 -0.626538
C31   C     C_3   0.330268 0.357396 0.228887 -0.342240
H15   H     H_    0.331638 0.301826 0.156917 0.170800
H16   H     H_    0.384834 0.354189 0.300644 0.187315
H17   H     H_    0.339852 0.415918 0.165970 0.178565
O20   O     O_3   0.244598 0.639032 0.294673 -0.598178
C32   C     C_3   0.326976 0.642147 0.225062 -0.311021
H18   H     H_    0.380740 0.642006 0.298521 0.171585
H19   H     H_    0.331787 0.698463 0.155753 0.168983
H20   H     H_    0.334629 0.584042 0.159623 0.177181
O21   O     O_3   0.651879 0.736579 0.583011 -0.602729
C33   C     C_3   0.562658 0.714423 0.587980 -0.310582
H21   H     H_    0.535621 0.710524 0.483436 0.140834
H22   H     H_    0.524303 0.759976 0.654238 0.196028
H23   H     H_    0.555474 0.650199 0.635213 0.198708
O22   O     O_3   0.653430 0.262296 0.587346 -0.599532
C34   C     C_3   0.564750 0.286495 0.592077 -0.297111
H24   H     H_    0.524810 0.240782 0.654865 0.200631
H25   H     H_    0.538633 0.292811 0.487285 0.141118
H26   H     H_    0.558701 0.350042 0.643017 0.197153
O23   O     O_3   0.151878 0.236577 0.583004 -0.602730
C35   C     C_3   0.062656 0.214423 0.587972 -0.310576
H27   H     H_    0.035619 0.210527 0.483428 0.140825
H28   H     H_    0.024302 0.259976 0.654233 0.196038
H29   H     H_    0.055470 0.150198 0.635201 0.198707
O24   O     O_3   0.153438 0.762284 0.587372 -0.599505
C36   C     C_3   0.064765 0.786506 0.592079 -0.297137
H30   H     H_    0.024801 0.740787 0.654822 0.200623
H31   H     H_    0.038667 0.792855 0.487277 0.141128
H32   H     H_    0.058724 0.850043 0.643056 0.197158
O25   O     O_3   0.332705 0.254829 0.618310 -0.592615
C37   C     C_3   0.312571 0.215850 0.746503 -0.192574
H33   H     H_    0.373584 0.199375 0.797771 0.157423
H34   H     H_    0.269730 0.158513 0.739047 0.175984
H35   H     H_    0.277168 0.263063 0.813603 0.180171
O26   O     O_3   0.333333 0.745318 0.616532 -0.597760
C38   C     C_3   0.314293 0.784469 0.745698 -0.166178
H36   H     H_    0.270983 0.841521 0.739946 0.181630
H37   H     H_    0.375679 0.801555 0.795760 0.150123
H38   H     H_    0.279852 0.737195 0.813081 0.188442
O27   O     O_3   0.832707 0.754831 0.618304 -0.592611
C39   C     C_3   0.812577 0.715856 0.746501 -0.192585
H39   H     H_    0.873592 0.699381 0.797764 0.157428
H40   H     H_    0.769735 0.658520 0.739053 0.175985
H41   H     H_    0.777178 0.763071 0.813602 0.180168
O28   O     O_3   0.833333 0.245327 0.616550 -0.597768
C40   C     C_3   0.814269 0.284489 0.745703 -0.166159
H42   H     H_    0.770964 0.341542 0.739927 0.181613
H43   H     H_    0.875649 0.301576 0.795780 0.150144
H44   H     H_    0.779818 0.237221 0.813084 0.188442
Br1   Br    Br    0.314329 0.993636 0.161589 -0.600543
Br2   Br    Br    0.814329 0.493634 0.161589 -0.600538
O29   O     O_3   0.569523 0.037846 0.093445 -0.516465
C41   C     C_3   0.641585 0.984274 0.112348 -0.036730
H45   H     H_    0.624894 0.914955 0.105715 0.126043
H46   H     H_    0.671787 0.999270 0.210751 0.255866
H47   H     H_    0.691374 0.997382 0.029225 0.113184
O30   O     O_3   0.069523 0.537846 0.093445 -0.516458
C42   C     C_3   0.141585 0.484274 0.112349 -0.036715
H48   H     H_    0.124894 0.414955 0.105718 0.126039
H49   H     H_    0.171788 0.499270 0.210751 0.255859
H50   H     H_    0.191374 0.497381 0.029225 0.113180

loop_
_geom_bond_atom_site_label_1
_geom_bond_atom_site_label_2
_ccdc_geom_bond_type
C34   H24   S    
O25   C37   S    
C6    O14   A    
O27   C39   S    
C7    O11   A    
O30   C42   S    
C8    O12   A    
C39   H40   S    
C36   H30   S    
C27   Br1   S    
O29   C41   S    
H7    N1    S    
C32   H18   S    
C2    O2    A    
Cu3   N3    S    
C4    O8    A    
C9    O17   S    
Cu3   O14   S    
C5    O9    A    
C6    O10   A    
C40   H43   S    
C28   Br2   S    
O26   C38   S    
C13   O21   S    
O28   C40   S    
C37   H35   S    
C3    O3    A    
C9    C13   D    
Cu4   O8    S    
C29   H10   S    
C2    O6    A    
C25   H5    S    
C11   C15   D    
C9    C19   S    
C11   C17   S    
C20   C24   D    
C10   C20   S    
C38   H36   S    
C42   H50   S    
C21   O25   S    
C10   O18   S    
O18   C30   S    
C1    C22   S    
C38   H37   S    
C3    C24   S    
C37   H33   S    
C17   H1    S    
Cu3   O5    S    
C31   H17   S    
C7    O15   A    
C39   H39   S    
C36   H31   S    
O21   C33   S    
C32   H19   S    
C16   O24   S    
C30   H12   S    
C12   C16   D    
Cu2   O3    S    
O20   C32   S    
C14   O22   S    
C31   H16   S    
C10   C14   D    
C40   H44   S    
C25   N1    D    
O23   C35   S    
C4    C23   S    
C3    O7    A    
O22   C34   S    
C26   H6    S    
C22   O26   S    
Cu2   O12   S    
C28   N4    D    
C35   H29   S    
C17   C21   D    
Cu1   O1    S    
C30   H13   S    
C19   C23   D    
Cu4   O7    S    
C29   H9    S    
O24   C36   S    
C2    C21   S    
C35   H28   S    
Cu4   N4    S    
C37   H34   S    
C18   H2    S    
C5    C14   S    
C41   H47   S    
C7    C16   S    
C24   O28   S    
C8    C15   S    
C33   H22   S    
C34   H25   S    
C38   H38   S    
Cu4   O16   S    
Cu3   O6    S    
N3    O29   S    
C36   H32   S    
C26   N2    D    
C41   H46   S    
C42   H48   S    
C4    O4    A    
C32   H20   S    
Cu2   O4    S    
N4    O30   S    
C29   H11   S    
Cu1   N1    S    
C18   C22   D    
C31   H15   S    
C25   C27   S    
C33   H23   S    
C23   O27   S    
Cu2   O11   S    
C26   C28   S    
C5    O13   A    
Cu1   O2    S    
C30   H14   S    
Cu3   O13   S    
C12   O20   S    
O19   C31   S    
Cu1   Cu3   S    
C19   H3    S    
C40   H42   S    
C8    O16   A    
C6    C13   S    
Cu2   Cu4   S    
C1    O1    A    
Cu1   O9    S    
H8    N2    S    
C35   H27   S    
C11   O19   S    
O17   C29   S    
C15   O23   S    
C20   H4    S    
C27   N3    D    
C33   H21   S    
Cu1   O10   S    
C34   H26   S    
C12   C18   S    
Cu2   N2    S    
Cu4   O15   S    
C1    O5    A    
C39   H41   S    
C41   H45   S    
C42   H49   S    
