data_mof_unit_50965.cif
_audit_creation_date              2013-03-05T15:44:23-0500
_audit_creation_method            fapswitch 2.2
_symmetry_space_group_name_H-M    P1
_symmetry_Int_Tables_number       1
_space_group_crystal_system       triclinic
_cell_length_a                    19.311171
_cell_length_b                    18.919415
_cell_length_c                    20.609762
_cell_angle_alpha                 106.495581
_cell_angle_beta                  106.376438
_cell_angle_gamma                 112.151797
_cell_volume                      6011.36729606

loop_
_atom_site_label
_atom_site_type_symbol
_atom_site_description
_atom_site_fract_x
_atom_site_fract_y
_atom_site_fract_z
_atom_type_partial_charge
C1    C     C_R   0.073086 0.090699 0.350610 0.450481
N1    N     N_R   0.052580 0.056040 0.395500 -0.130965
C2    C     C_R   0.757281 0.930836 0.456203 -0.215409
H1    H     H_    0.707845 0.866870 0.421903 0.157590
N2    N     N_R   0.834730 0.954500 0.499860 -0.058278
C3    C     C_R   0.844785 0.781925 0.288318 -0.170897
H2    H     H_    0.869282 0.761408 0.250451 0.175236
N3    N     N_R   0.890210 0.849400 0.355780 -0.067436
C4    C     C_R   0.002102 0.237001 0.567250 -0.143069
H3    H     H_    0.981498 0.255826 0.609417 0.092084
N4    N     N_R   0.997110 0.161140 0.539580 -0.036404
C5    C     C_R   0.768171 0.772674 0.351937 0.503921
N5    N     N_R   0.841950 0.845400 0.395490 -0.082521
C6    C     C_R   0.076574 0.242205 0.502133 -0.103913
H4    H     H_    0.125123 0.266981 0.485920 0.133142
N6    N     N_R   0.045360 0.165140 0.499870 -0.042825
C7    C     C_R   0.826256 0.071742 0.523568 -0.119143
H5    H     H_    0.842005 0.136836 0.551981 0.090681
N7    N     N_R   0.877490 0.041510 0.539580 -0.047006
C8    C     C_R   0.003490 0.950606 0.285477 0.489677
N8    N     N_R   0.009820 0.969030 0.355780 -0.137954
C9    C     C_R   0.041052 0.026188 0.279398 -0.210628
C10   C     C_R   0.749976 0.002816 0.470519 0.172850
C11   C     C_R   0.768713 0.731324 0.284107 -0.150856
C12   C     C_R   0.052415 0.289660 0.545083 0.054691
C13   C     C_R   0.237811 0.190903 0.652962 -0.126610
H6    H     H_    0.288449 0.204517 0.637565 0.155487
N9    N     N_R   0.158050 0.154600 0.604510 -0.056738
C14   C     C_R   0.967294 0.787002 0.535241 0.525676
N10   N     N_R   0.954640 0.834860 0.500130 -0.105933
C15   C     C_R   0.172773 0.933222 0.442439 -0.224528
H7    H     H_    0.154529 0.870566 0.402912 0.096735
N11   N     N_R   0.122510 0.958490 0.460420 -0.040771
C16   C     C_R   0.000636 0.052601 0.715286 -0.288846
H8    H     H_    0.026762 0.116181 0.757772 0.144697
N12   N     N_R   0.990180 0.030970 0.644220 -0.063853
C17   C     C_R   0.929654 0.913036 0.652927 0.611798
N13   N     N_R   0.947420 0.943960 0.604500 -0.125630
C18   C     C_R   0.243082 0.074232 0.507713 -0.151196
H9    H     H_    0.289572 0.139900 0.529422 0.115837
N14   N     N_R   0.165270 0.045500 0.500140 -0.055523
C19   C     C_R   0.161737 0.184298 0.717386 -0.138784
H10   H     H_    0.143832 0.190426 0.762524 0.095593
N15   N     N_R   0.109790 0.150600 0.644220 -0.034720
C20   C     C_R   0.046305 0.800417 0.474318 -0.217042
H11   H     H_    0.088527 0.796784 0.451047 0.136780
N16   N     N_R   0.002890 0.838860 0.460420 -0.070280
Ni1   Ni    Ni4+2 0.104370 0.104380 0.500010 0.195062
Ni2   Ni    Ni4+2 0.895630 0.895620 0.499990 0.228832
Ni3   Ni    Ni4+2 0.006300 0.904810 0.408930 0.180769
Ni4   Ni    Ni4+2 0.993700 0.095190 0.591070 0.197187
C21   C     C_R   0.242018 0.206616 0.724404 0.122973
C22   C     C_R   0.030040 0.770955 0.525101 -0.078710
C23   C     C_R   0.248480 0.004341 0.473295 0.162347
C24   C     C_R   0.968897 0.979556 0.724174 -0.074168
C25   C     C_R   0.073914 0.724059 0.626366 0.529878
C26   C     C_R   0.074764 0.733206 0.560614 -0.092248
C27   C     C_R   0.117264 0.702770 0.526106 -0.228444
C28   C     C_R   0.140521 0.647623 0.543964 0.105447
C29   C     C_R   0.117700 0.619167 0.594675 -0.082884
C30   C     C_R   0.085877 0.658559 0.638125 -0.190998
C31   C     C_R   0.176759 0.612676 0.504413 -0.347403
C32   C     C_R   0.183166 0.543285 0.509003 0.547208
C33   C     C_R   0.147183 0.505269 0.549426 -0.036858
C34   C     C_R   0.119234 0.546165 0.595968 0.017889
C35   C     C_R   0.084381 0.508946 0.637181 0.144826
C36   C     C_R   0.058600 0.550678 0.684321 -0.425199
C37   C     C_R   0.062310 0.627465 0.687932 0.576173
C38   C     C_R   0.130845 0.423503 0.538131 -0.229493
C39   C     C_R   0.086007 0.381674 0.571375 0.098255
C40   C     C_R   0.068829 0.427012 0.625366 -0.216785
H12   H     H_    0.126298 0.714894 0.480215 0.145685
H13   H     H_    0.195668 0.635971 0.466452 0.164931
H14   H     H_    0.146645 0.390446 0.497904 0.159756
H15   H     H_    0.038013 0.397012 0.654318 0.114217
H16   H     H_    0.030810 0.520856 0.715042 0.147599
C41   C     C_R   0.346285 0.955969 0.496351 -0.277864
C42   C     C_R   0.319528 0.003533 0.467284 -0.108727
C43   C     C_R   0.356020 0.043350 0.428557 0.484082
C44   C     C_R   0.428576 0.045136 0.428505 0.032353
C45   C     C_R   0.457502 0.998587 0.459842 -0.053796
C46   C     C_R   0.414329 0.951293 0.491721 -0.013696
C47   C     C_R   0.470831 0.089744 0.395447 -0.197056
C48   C     C_R   0.542177 0.089588 0.394303 -0.199790
C49   C     C_R   0.573940 0.047173 0.428455 -0.014464
C50   C     C_R   0.528779 0.998226 0.458295 0.019778
C51   C     C_R   0.554423 0.948057 0.485975 0.113906
C52   C     C_R   0.509760 0.898515 0.514393 -0.393217
C53   C     C_R   0.440350 0.901383 0.519449 0.556615
C54   C     C_R   0.649679 0.051865 0.433678 0.470066
C55   C     C_R   0.672672 0.000063 0.460523 -0.062522
C56   C     C_R   0.624912 0.947968 0.485085 -0.314911
H17   H     H_    0.313677 0.923142 0.523037 0.198053
H18   H     H_    0.448941 0.124967 0.370421 0.163281
H19   H     H_    0.571649 0.122279 0.366095 0.155273
H20   H     H_    0.644841 0.909659 0.506861 0.166464
H21   H     H_    0.528741 0.857616 0.532425 0.146702
C57   C     C_R   0.315160 0.233934 0.793711 -0.075697
C58   C     C_R   0.315460 0.268442 0.863704 -0.430387
C59   C     C_R   0.384355 0.298768 0.931149 0.596519
C60   C     C_R   0.457066 0.299601 0.928476 0.009239
C61   C     C_R   0.454920 0.260146 0.858841 -0.409600
C62   C     C_R   0.383944 0.224752 0.791665 0.570405
C63   C     C_R   0.644232 0.536813 0.099065 -0.143036
C64   C     C_R   0.693733 0.621144 0.152557 -0.188803
C65   C     C_R   0.691889 0.576427 0.251242 -0.180049
C66   C     C_R   0.641575 0.491797 0.197755 -0.200207
C67   C     C_R   0.616883 0.471218 0.121167 0.212579
C68   C     C_2   0.540023 0.356449 0.993093 -0.160991
C69   C     C_2   0.552241 0.383820 0.064886 -0.169321
C70   C     C_R   0.715926 0.641708 0.228807 0.143681
H22   H     H_    0.263675 0.276076 0.867019 0.161832
H23   H     H_    0.712846 0.670667 0.134267 0.138886
H24   H     H_    0.709489 0.591051 0.309786 0.162832
H25   H     H_    0.507133 0.347045 0.080563 0.156624
H26   H     H_    0.510175 0.260143 0.856096 0.174730
H27   H     H_    0.624180 0.524004 0.040385 0.120136
H28   H     H_    0.590719 0.387760 0.980094 0.129902
H29   H     H_    0.620264 0.442613 0.215998 0.119134
C71   C     C_R   0.064161 0.034162 0.218427 0.019043
C72   C     C_R   0.008940 0.975740 0.142956 0.618246
C73   C     C_R   0.038323 0.973100 0.088226 -0.387859
C74   C     C_R   0.120840 0.031248 0.107471 0.196290
C75   C     C_R   0.171560 0.095889 0.180106 -0.210326
C76   C     C_R   0.144120 0.096545 0.235429 -0.214505
C77   C     C_R   0.131568 0.014008 0.898198 -0.166241
C78   C     C_R   0.092074 0.023971 0.836852 -0.304025
C79   C     C_R   0.957664 0.914825 0.813962 0.636109
C80   C     C_R   0.998550 0.903603 0.874740 -0.387902
C81   C     C_R   0.084827 0.954177 0.917589 0.174354
C82   C     C_2   0.152239 0.029191 0.050596 -0.180472
C83   C     C_2   0.120555 0.955898 0.990745 -0.215151
C84   C     C_R   0.005274 0.974041 0.793805 0.013265
H30   H     H_    0.129969 0.069466 0.821903 0.157430
H31   H     H_    0.091465 0.896852 0.995068 0.150158
H32   H     H_    0.234122 0.143163 0.194933 0.126621
H33   H     H_    0.198206 0.054190 0.931610 0.129390
H34   H     H_    0.188613 0.143013 0.291785 0.184505
H35   H     H_    0.183272 0.089297 0.048627 0.135395
H36   H     H_    0.996137 0.925659 0.030797 0.147727
H37   H     H_    0.962421 0.858045 0.890679 0.140872
O1    O     O_3   0.129034 0.175279 0.375045 -0.657794
C85   C     C_3   0.205844 0.198006 0.431549 0.122947
H38   H     H_    0.227885 0.153058 0.412104 0.135348
H39   H     H_    0.200174 0.198423 0.483733 0.109845
C86   C     C_3   0.271117 0.287076 0.450107 -0.262822
H40   H     H_    0.278460 0.287980 0.398726 0.205225
H41   H     H_    0.250367 0.333071 0.469570 0.194869
C87   C     C_3   0.355021 0.314671 0.511455 -1.015466
H42   H     H_    0.349433 0.315694 0.563874 0.264581
H43   H     H_    0.401051 0.379512 0.523780 0.268322
H44   H     H_    0.377804 0.270416 0.492627 0.286998
O2    O     O_3   0.921039 0.755198 0.570562 -0.617343
C88   C     C_3   0.876912 0.665223 0.535542 0.307052
H45   H     H_    0.858223 0.644346 0.576080 0.160696
H46   H     H_    0.914931 0.636660 0.522394 0.067054
C89   C     C_3   0.798536 0.630331 0.463981 -0.364902
H47   H     H_    0.759885 0.658045 0.476841 0.231297
H48   H     H_    0.817299 0.648709 0.422520 0.197888
C90   C     C_3   0.747220 0.533678 0.430185 -1.013890
H49   H     H_    0.783245 0.504399 0.413002 0.272091
H50   H     H_    0.689222 0.509922 0.379924 0.271188
H51   H     H_    0.729862 0.514013 0.471766 0.269443
O3    O     O_3   0.864399 0.834772 0.633686 -0.588891
C91   C     C_3   0.788150 0.820969 0.583758 0.269921
H52   H     H_    0.741276 0.753840 0.564370 0.144323
H53   H     H_    0.790628 0.825722 0.531981 0.096554
C92   C     C_3   0.759713 0.880358 0.622027 -0.350407
H54   H     H_    0.800566 0.917084 0.683262 0.233798
H55   H     H_    0.764816 0.927413 0.598937 0.175138
C93   C     C_3   0.670626 0.831812 0.611268 -1.007942
H56   H     H_    0.627215 0.794516 0.550534 0.259190
H57   H     H_    0.652442 0.877322 0.637813 0.258169
H58   H     H_    0.665771 0.788078 0.638216 0.284385
O4    O     O_3   0.054705 0.772653 0.674802 -0.595955
C94   C     C_3   0.116386 0.859617 0.708875 0.250698
H59   H     H_    0.087506 0.897727 0.726016 0.133904
H60   H     H_    0.139098 0.880276 0.669844 0.067750
C95   C     C_3   0.189830 0.880857 0.779096 -0.306184
H61   H     H_    0.169334 0.875920 0.823586 0.211994
H62   H     H_    0.212392 0.835076 0.765428 0.187863
C96   C     C_3   0.261740 0.970439 0.809014 -1.042979
H63   H     H_    0.287014 0.974479 0.767212 0.258383
H64   H     H_    0.312088 0.985819 0.862081 0.275679
H65   H     H_    0.240790 0.017871 0.820490 0.267597
O5    O     O_3   0.213621 0.505891 0.465134 -0.661708
C97   C     C_3   0.299961 0.540143 0.507609 0.157344
H66   H     H_    0.314436 0.488303 0.489944 0.135602
H67   H     H_    0.319975 0.563089 0.569599 0.080843
C98   C     C_3   0.350204 0.611403 0.490724 -0.273047
H68   H     H_    0.330288 0.587196 0.429021 0.215706
H69   H     H_    0.338506 0.665035 0.509694 0.214541
C99   C     C_3   0.443336 0.644421 0.530532 -1.018723
H70   H     H_    0.465097 0.671054 0.592507 0.267732
H71   H     H_    0.477433 0.695415 0.516584 0.274195
H72   H     H_    0.457441 0.592492 0.511836 0.270602
O6    O     O_3   0.029604 0.663474 0.730110 -0.583657
C100  C     C_3   0.076619 0.689414 0.807198 0.293151
H73   H     H_    0.143930 0.732204 0.825604 0.066129
H74   H     H_    0.068718 0.634140 0.819583 0.080479
C101  C     C_3   0.046226 0.737640 0.853037 -0.881060
H75   H     H_    0.980432 0.695289 0.839004 0.256136
H76   H     H_    0.085148 0.762367 0.914044 0.198936
H77   H     H_    0.050579 0.791273 0.839608 0.273998
O7    O     O_3   0.316626 0.072815 0.384942 -0.690095
C102  C     C_3   0.250713 0.002503 0.316809 0.168224
H78   H     H_    0.196563 0.012607 0.304695 0.122691
H79   H     H_    0.229650 0.940082 0.319354 0.085417
C103  C     C_3   0.274661 0.995769 0.251493 -0.291047
H80   H     H_    0.290494 0.055054 0.244459 0.205386
H81   H     H_    0.329928 0.987235 0.263603 0.200183
C104  C     C_3   0.203900 0.919617 0.178466 -0.984518
H82   H     H_    0.194743 0.859547 0.182166 0.262335
H83   H     H_    0.219271 0.920695 0.130622 0.270559
H84   H     H_    0.144947 0.921031 0.167603 0.277734
O8    O     O_3   0.698334 0.101000 0.408067 -0.659716
C105  C     C_3   0.741927 0.187740 0.460552 0.167366
H85   H     H_    0.766807 0.197066 0.519904 0.073607
H86   H     H_    0.700739 0.215809 0.454376 0.107368
C106  C     C_3   0.814204 0.236263 0.445307 -0.245960
H87   H     H_    0.857189 0.210233 0.452506 0.210372
H88   H     H_    0.789834 0.227640 0.386249 0.207445
C107  C     C_3   0.861908 0.330956 0.498360 -1.007942
H89   H     H_    0.820477 0.358687 0.490240 0.267436
H90   H     H_    0.914382 0.364134 0.486317 0.282695
H91   H     H_    0.887097 0.341162 0.557788 0.264358
O9    O     O_3   0.392578 0.850048 0.544321 -0.643035
C108  C     C_3   0.441431 0.865847 0.617811 0.234550
H92   H     H_    0.487602 0.934666 0.654152 0.084612
H93   H     H_    0.474609 0.828965 0.615349 0.119356
C109  C     C_3   0.384567 0.837119 0.654329 -0.906400
H94   H     H_    0.339315 0.768081 0.621137 0.258788
H95   H     H_    0.422076 0.849377 0.712272 0.213804
H96   H     H_    0.350037 0.872560 0.657194 0.252857
O10   O     O_3   0.386181 0.189241 0.724303 -0.648115
C110  C     C_3   0.378603 0.108505 0.711182 0.241808
H97   H     H_    0.314237 0.058810 0.668462 0.120247
H98   H     H_    0.391267 0.096282 0.762040 0.082326
C111  C     C_3   0.439263 0.099653 0.680386 -0.895766
H99   H     H_    0.504135 0.145784 0.723910 0.247524
H100  H     H_    0.429763 0.034401 0.664532 0.215944
H101  H     H_    0.429431 0.112359 0.630117 0.270273
O11   O     O_3   0.384513 0.339344 0.998736 -0.664193
C112  C     C_3   0.324228 0.281060 0.011637 0.146881
H102  H     H_    0.357402 0.277050 0.062949 0.111902
H103  H     H_    0.286283 0.214845 0.965406 0.077549
C113  C     C_3   0.266159 0.314091 0.025543 -0.240843
H104  H     H_    0.303264 0.377802 0.074552 0.207827
H105  H     H_    0.234079 0.320537 0.975399 0.189430
C114  C     C_3   0.200964 0.254245 0.041122 -1.038696
H106  H     H_    0.161666 0.190731 0.991952 0.273735
H107  H     H_    0.160315 0.280351 0.051471 0.276982
H108  H     H_    0.231528 0.247608 0.091700 0.264942
O12   O     O_3   0.928304 0.916709 0.123531 -0.620228
C115  C     C_3   0.871899 0.939092 0.086906 0.166345
H109  H     H_    0.810677 0.880003 0.051407 0.142502
H110  H     H_    0.889233 0.965116 0.048070 0.073323
C116  C     C_3   0.861963 0.001607 0.144590 -0.305104
H111  H     H_    0.845021 0.974743 0.182880 0.217665
H112  H     H_    0.921761 0.062503 0.178880 0.199231
C117  C     C_3   0.794796 0.019355 0.105946 -0.985600
H113  H     H_    0.811139 0.047312 0.068119 0.264803
H114  H     H_    0.789357 0.065034 0.149078 0.275157
H115  H     H_    0.733775 0.959732 0.072588 0.266035
O13   O     O_3   0.872156 0.865890 0.772290 -0.632633
C118  C     C_3   0.830713 0.880625 0.817146 0.145310
H116  H     H_    0.794923 0.909482 0.794945 0.124998
H117  H     H_    0.872533 0.925404 0.877894 0.069980
C119  C     C_3   0.769978 0.795860 0.810606 -0.226849
H118  H     H_    0.727456 0.751600 0.750275 0.210605
H119  H     H_    0.805246 0.767286 0.834315 0.192072
C120  C     C_3   0.718418 0.807265 0.852584 -1.044833
H120  H     H_    0.759626 0.851146 0.913106 0.261178
H121  H     H_    0.675882 0.744870 0.847683 0.275802
H122  H     H_    0.680575 0.833246 0.828098 0.269905
O14   O     O_3   0.716018 0.735310 0.381116 -0.677392
C121  C     C_3   0.631921 0.704091 0.332692 0.223537
H123  H     H_    0.605671 0.641629 0.285274 0.131902
H124  H     H_    0.624087 0.748259 0.309022 0.087382
C122  C     C_3   0.580310 0.691396 0.376502 -0.926510
H125  H     H_    0.600485 0.753195 0.422092 0.243982
H126  H     H_    0.513617 0.662894 0.338273 0.226992
H127  H     H_    0.587647 0.648353 0.401547 0.262136
O15   O     O_3   0.977194 0.870827 0.231994 -0.588044
C123  C     C_3   0.025457 0.837297 0.261403 0.245990
H128  H     H_    0.012015 0.821531 0.306001 0.096389
H129  H     H_    0.092499 0.882633 0.284726 0.070035
C124  C     C_3   0.005560 0.756654 0.198487 -0.884219
H130  H     H_    0.019784 0.771045 0.153627 0.264577
H131  H     H_    0.043741 0.730036 0.221051 0.206142
H132  H     H_    0.938716 0.708727 0.174012 0.253535

loop_
_geom_bond_atom_site_label_1
_geom_bond_atom_site_label_2
_geom_bond_distance
_ccdc_geom_bond_type
C85   C86   1.528124 S    
C28   C29   1.405960 A    
C51   C52   1.397293 A    
C115  H110  1.116109 S    
C77   H33   1.083226 S    
C77   C78   1.384116 A    
C61   C62   1.398257 A    
C101  H75   1.110602 S    
C2    C10   1.379011 A    
C107  H89   1.110987 S    
C30   C37   1.418229 A    
C122  H127  1.110910 S    
C93   H56   1.108187 S    
C17   C24   1.384960 A    
C79   C80   1.399027 A    
C5    O14   1.386256 S    
C54   O8    1.387524 S    
C45   C46   1.416886 A    
C26   C27   1.401416 A    
C107  H91   1.110388 S    
C4    C12   1.387116 A    
C72   O12   1.383991 S    
C18   N14   1.334685 A    
N13   Ni2   1.858194 S    
O7    C102  1.419860 S    
C25   C26   1.417805 A    
C105  C106  1.527871 S    
C9    C71   1.474464 S    
C5    N5    1.352026 A    
C93   H57   1.110319 S    
C13   H6    1.074592 S    
C7    C10   1.378164 A    
C46   C53   1.404644 A    
N7    Ni4   1.876188 S    
C65   H24   1.075238 S    
C41   C46   1.377369 A    
C64   H23   1.083709 S    
O3    C91   1.413570 S    
C17   N13   1.352584 A    
C112  H102  1.111168 S    
C80   C81   1.399856 A    
C123  C124  1.519963 S    
C87   H43   1.110384 S    
C49   C50   1.418862 A    
C117  H113  1.110932 S    
C102  H79   1.117064 S    
C18   C23   1.369486 A    
C80   H37   1.083578 S    
C65   C66   1.394058 A    
C77   C81   1.394839 A    
C114  H107  1.110222 S    
C57   C62   1.413428 A    
C115  H109  1.110789 S    
C56   H20   1.082827 S    
C103  C104  1.527238 S    
C23   C42   1.417255 S    
C110  H97   1.111608 S    
C123  H128  1.110429 S    
C16   H8    1.078574 S    
C20   N16   1.325407 A    
C41   H17   1.085863 S    
O9    C108  1.413466 S    
C120  H122  1.110925 S    
C96   H63   1.110268 S    
N8    Ni3   1.848322 S    
C97   C98   1.533138 S    
C1    O1    1.383235 S    
C98   C99   1.525635 S    
C103  H81   1.109073 S    
N1    N8    1.374901 A    
C92   C93   1.526455 S    
N9    Ni1   1.857976 S    
C111  H99   1.110393 S    
C67   C69   1.474991 S    
C120  H120  1.110108 S    
C99   H71   1.110036 S    
O11   C112  1.419486 S    
C62   O10   1.380840 S    
C79   O13   1.384664 S    
C15   N11   1.326711 A    
C31   H13   1.084073 S    
C94   H59   1.106981 S    
C100  H73   1.114838 S    
C102  H78   1.105903 S    
C109  H96   1.111136 S    
C14   N10   1.357343 A    
C4    H3    1.080067 S    
C15   C23   1.363315 A    
C105  H86   1.109362 S    
C88   H46   1.110284 S    
C52   H21   1.082407 S    
C99   H70   1.110905 S    
C95   C96   1.526393 S    
C99   H72   1.110807 S    
C114  H108  1.110858 S    
C92   H55   1.108864 S    
C35   C36   1.395967 A    
C64   C70   1.397108 A    
C115  C116  1.533088 S    
C20   C22   1.374565 A    
C1    C9    1.388435 A    
C91   H53   1.108677 S    
C121  H123  1.105272 S    
C89   H47   1.109076 S    
C101  H76   1.110220 S    
N2    Ni2   1.900510 S    
C122  H126  1.110439 S    
O6    C100  1.413205 S    
C11   C70   1.468620 S    
C19   N15   1.343646 A    
C53   O9    1.389549 S    
C44   C47   1.401077 A    
C66   H29   1.083409 S    
C106  H87   1.110818 S    
C68   H28   1.087122 S    
C7    H5    1.076881 S    
N16   Ni3   1.848428 S    
C86   H41   1.110889 S    
C65   C70   1.402746 A    
C113  H105  1.110953 S    
C93   H58   1.110732 S    
C75   C76   1.385140 A    
C75   H32   1.083822 S    
C25   O4    1.387150 S    
C36   C37   1.406523 A    
C60   C61   1.397615 A    
C78   C84   1.407305 A    
N10   N16   1.398469 A    
C74   C75   1.387876 A    
C82   H35   1.086257 S    
O8    C105  1.417207 S    
C88   C89   1.528608 S    
C109  H95   1.110317 S    
C87   H44   1.111198 S    
C55   C56   1.392616 A    
C117  H114  1.110388 S    
C22   C26   1.482306 S    
C71   C76   1.409155 A    
C3    N3    1.338694 A    
C28   C31   1.398506 A    
N1    Ni1   1.858194 S    
N11   Ni3   1.876191 S    
C41   C42   1.384867 A    
C47   H18   1.083281 S    
N9    N15   1.398627 A    
C86   H40   1.111267 S    
C43   C44   1.389060 A    
C37   O6    1.384363 S    
C96   H65   1.110021 S    
C124  H131  1.110492 S    
C116  H112  1.111049 S    
C90   H51   1.110934 S    
C35   C40   1.394895 A    
C79   C84   1.405687 A    
C31   C32   1.390763 A    
O4    C94   1.418892 S    
C13   C21   1.388777 A    
C86   C87   1.525947 S    
N4    N6    1.398471 A    
C47   C48   1.385706 A    
C104  H84   1.108868 S    
C12   C39   1.469501 S    
O10   C110  1.415016 S    
C32   O5    1.383550 S    
C3    C11   1.379302 A    
C8    N8    1.347969 A    
C100  C101  1.515416 S    
C103  H80   1.109630 S    
C88   H45   1.110965 S    
C38   H14   1.078762 S    
C111  H100  1.109438 S    
C33   C38   1.390271 A    
C48   C49   1.401471 A    
C4    N4    1.339511 A    
C72   C73   1.395369 A    
C39   C40   1.401667 A    
N12   Ni4   1.848323 S    
C118  H117  1.117570 S    
C17   O3    1.383965 S    
N5    Ni2   1.857976 S    
C106  C107  1.526039 S    
N15   Ni4   1.874970 S    
C120  H121  1.110281 S    
C92   H54   1.106862 S    
C105  H85   1.113726 S    
N10   Ni2   1.899459 S    
C104  H83   1.110281 S    
C29   C34   1.400165 A    
C57   C58   1.401714 A    
C89   C90   1.527074 S    
C121  H124  1.115511 S    
C119  C120  1.525850 S    
N6    Ni1   1.899459 S    
C108  H93   1.111486 S    
C101  H77   1.105234 S    
C6    N6    1.331956 A    
C58   C59   1.400022 A    
C27   C28   1.379830 A    
C116  C117  1.525535 S    
C98   H68   1.111524 S    
C19   H10   1.071815 S    
C66   C67   1.398950 A    
C2    H1    1.066804 S    
N3    Ni3   1.874970 S    
C63   C67   1.410297 A    
C51   C56   1.367131 A    
C71   C72   1.406333 A    
C50   C51   1.405096 A    
C14   O2    1.378382 S    
C63   H27   1.081676 S    
O13   C118  1.418451 S    
C113  C114  1.526289 S    
C85   H39   1.109497 S    
C112  H103  1.118194 S    
C19   C21   1.395680 A    
O15   C123  1.408591 S    
C78   H30   1.083540 S    
C98   H69   1.109441 S    
C96   H64   1.110164 S    
C74   C82   1.461465 S    
C6    H4    1.069834 S    
C15   H7    1.080640 S    
C45   C50   1.388294 A    
C61   H26   1.084375 S    
C8    C9    1.399076 A    
C44   C45   1.412548 A    
C2    N2    1.324519 A    
C82   C83   1.334915 D    
C63   C64   1.389783 A    
C117  H115  1.110879 S    
C100  H74   1.111431 S    
C49   C54   1.402337 A    
C107  H90   1.110444 S    
C73   C74   1.407342 A    
C3    H2    1.076177 S    
N2    N7    1.374897 A    
C76   H34   1.071411 S    
C91   C92   1.546737 S    
C5    C11   1.399926 A    
C13   N9    1.336699 A    
C110  C111  1.519832 S    
C106  H88   1.111722 S    
C81   C83   1.455643 S    
C59   O11   1.384992 S    
C124  H130  1.110900 S    
C94   C95   1.532978 S    
O12   C115  1.414668 S    
C119  H119  1.111245 S    
C116  H111  1.111784 S    
C114  H106  1.110823 S    
N11   N14   1.374899 A    
C122  H125  1.108086 S    
C123  H129  1.104714 S    
C112  C113  1.529110 S    
C43   O7    1.384289 S    
C87   H42   1.111127 S    
C90   H49   1.111017 S    
N12   N13   1.374897 A    
C40   H15   1.081740 S    
O14   C121  1.417817 S    
C42   C43   1.399813 A    
C102  C103  1.529803 S    
C27   H12   1.078731 S    
C54   C55   1.400484 A    
C104  H82   1.110831 S    
C14   C22   1.410069 A    
C118  C119  1.528158 S    
C83   H31   1.087651 S    
C58   H22   1.080481 S    
C1    N1    1.340895 A    
C33   C34   1.412610 A    
C21   C57   1.481557 S    
C59   C60   1.415037 A    
C7    N7    1.328460 A    
N14   Ni1   1.900508 S    
C110  H98   1.117000 S    
C111  H101  1.110009 S    
C10   C55   1.426727 S    
C34   C35   1.405335 A    
C6    C12   1.380112 A    
C38   C39   1.403975 A    
C24   C84   1.461399 S    
C97   H67   1.118119 S    
N4    Ni4   1.848428 S    
C118  H116  1.110511 S    
C108  H92   1.115970 S    
C32   C33   1.408573 A    
C18   H9    1.080001 S    
N3    N5    1.398626 A    
C20   H11   1.069389 S    
C91   H52   1.110371 S    
C16   C24   1.373801 A    
C73   H36   1.082484 S    
C52   C53   1.393141 A    
C16   N12   1.335662 A    
C89   H48   1.109368 S    
C124  H132  1.110543 S    
C121  C122  1.521961 S    
C68   C69   1.337556 D    
C109  H94   1.110132 S    
O1    C85   1.414855 S    
C95   H61   1.109750 S    
C25   C30   1.415139 A    
C29   C30   1.418354 A    
C97   H66   1.110845 S    
C36   H16   1.083210 S    
C8    O15   1.382967 S    
C95   H62   1.111135 S    
O5    C97   1.416422 S    
C119  H118  1.111732 S    
C60   C68   1.476784 S    
C69   H25   1.084704 S    
C48   H19   1.081539 S    
C108  C109  1.521830 S    
C85   H38   1.113806 S    
C113  H104  1.111632 S    
C90   H50   1.109606 S    
C94   H60   1.113746 S    
O2    C88   1.416461 S    
