data_mof_unit_44886.cif
_audit_creation_date              2012-12-10T20:37:32-0500
_audit_creation_method            fapswitch 2.2
_symmetry_space_group_name_H-M    P1
_symmetry_Int_Tables_number       1
_space_group_crystal_system       triclinic
_cell_length_a                    15.701368
_cell_length_b                    10.659886
_cell_length_c                    9.899766
_cell_angle_alpha                 89.928814
_cell_angle_beta                  89.973858
_cell_angle_gamma                 90.322864
_cell_volume                      1656.94352019

loop_
_atom_site_label
_atom_site_type_symbol
_atom_type_description
_atom_site_fract_x
_atom_site_fract_y
_atom_site_fract_z
_atom_type_partial_charge
C1    C     C_R   0.496438 0.261000 0.500239 0.931591
C2    C     C_3   0.083649 0.503386 0.500293 0.120693
C3    C     C_3   0.972970 0.617793 0.470200 -0.019006
C4    C     C_3   0.916557 0.502560 0.498596 -0.053050
C5    C     C_3   0.029622 0.537927 0.376103 -0.235655
C6    C     C_3   0.972683 0.421936 0.405545 -0.043307
C7    C     C_1   0.174279 0.502902 0.500617 0.028935
C8    C     C_1   0.825733 0.501973 0.498878 0.144065
C9    C     C_R   0.544430 0.063151 0.580213 0.037185
C10   C     C_R   0.488594 0.129846 0.501122 -0.172282
C11   C     C_R   0.427097 0.065154 0.421758 -0.126205
C12   C     C_R   0.338138 0.500994 0.500071 0.965822
C13   C     C_R   0.429398 0.932524 0.419745 -0.107632
C14   C     C_R   0.491378 0.870128 0.498769 -0.169587
C15   C     C_R   0.545563 0.938474 0.579549 0.003483
C16   C     C_3   0.615116 0.928127 0.682134 -0.008205
C17   C     C_3   0.615284 0.073849 0.681174 0.009278
C18   C     C_R   0.425254 0.506719 0.071149 0.205545
C19   C     C_R   0.574202 0.502127 0.071638 -0.115075
C20   C     C_R   0.574211 0.501848 0.928151 -0.151125
C21   C     C_R   0.425338 0.508747 0.928821 0.188055
C22   C     C_3   0.349610 0.422454 0.919493 -0.029480
C23   C     C_R   0.498032 0.739057 0.499784 0.867095
C24   C     C_3   0.352176 0.415111 0.075021 -0.441121
C25   C     C_R   0.661868 0.500143 0.499954 0.860318
C26   C     C_3   0.971917 0.468748 0.621816 -0.073282
C27   C     C_3   0.027635 0.388791 0.528542 0.160169
C28   C     C_1   0.249458 0.502099 0.500405 -0.089737
C29   C     C_1   0.750540 0.501096 0.499567 -0.092739
C30   C     C_3   0.028828 0.585201 0.594065 -0.272675
H1    H     H_    0.593929 0.114663 0.778823 0.106861
H2    H     H_    0.634262 0.502081 0.124909 0.171047
H3    H     H_    0.634272 0.501402 0.874781 0.173867
H4    H     H_    0.372652 0.322572 0.115015 0.180424
H5    H     H_    0.054665 0.566900 0.275860 0.179177
H6    H     H_    0.053588 0.652337 0.670416 0.178375
H7    H     H_    0.592341 0.884391 0.777851 0.144735
N1    N     N_R   0.499430 0.499140 0.142800 -0.113652
N2    N     N_R   0.499430 0.499180 0.857150 -0.120596
O1    O     O_R   0.500010 0.316790 0.614690 -0.616071
O2    O     O_R   0.500000 0.316760 0.385350 -0.625551
O3    O     O_R   0.376780 0.500010 0.614650 -0.598827
O4    O     O_R   0.376770 0.499970 0.385310 -0.600003
O5    O     O_R   0.500000 0.683240 0.614650 -0.604802
O6    O     O_R   0.499990 0.683210 0.385310 -0.590929
O7    O     O_R   0.623230 0.500030 0.614690 -0.627342
O8    O     O_R   0.623220 0.499990 0.385350 -0.618523
Zn1   Zn    Zn3+2 0.500010 0.500020 0.653130 0.981460
Zn2   Zn    Zn3+2 0.499990 0.499980 0.346870 1.002383
N3    N     N_2   0.062148 0.266381 0.560250 -0.271551
H8    H     H_    0.108407 0.269757 0.634048 0.261334
C31   C     C_3   0.000283 0.167418 0.582462 -0.652007
H9    H     H_    0.033867 0.076780 0.595027 0.267902
H10   H     H_    0.956608 0.158536 0.494996 0.239607
H11   H     H_    0.962731 0.185846 0.675260 0.225188
N4    N     N_2   0.691552 0.871015 0.627883 -0.263093
H12   H     H_    0.679866 0.790122 0.573723 0.237528
C32   C     C_3   0.759156 0.855149 0.725495 -0.682415
H13   H     H_    0.817068 0.819900 0.674138 0.255238
H14   H     H_    0.739642 0.786066 0.803967 0.221555
H15   H     H_    0.775114 0.946070 0.774255 0.253697
N5    N     N_2   0.693569 0.132277 0.630445 -0.277973
H16   H     H_    0.707875 0.216269 0.677034 0.237745
C33   C     C_3   0.711658 0.133947 0.486676 -0.658816
H17   H     H_    0.671616 0.205025 0.435410 0.218594
H18   H     H_    0.700283 0.040624 0.440446 0.255351
H19   H     H_    0.779571 0.159459 0.470865 0.243781
C34   C     C_2   0.272225 0.488239 0.859264 0.994074
O9    O     O_2   0.202974 0.435216 0.857314 -0.608078
O10   O     O_R   0.278994 0.612093 0.813138 -0.771422
H20   H     H_    0.222947 0.645787 0.777985 0.342215
N6    N     N_2   0.371964 0.304519 0.853171 -0.297880
H21   H     H_    0.429809 0.268211 0.883208 0.233618
C35   C     C_3   0.306647 0.208546 0.843028 -0.618361
H22   H     H_    0.335872 0.118345 0.812044 0.230595
H23   H     H_    0.259712 0.234199 0.764118 0.259969
H24   H     H_    0.274173 0.194837 0.941625 0.257454
C36   C     C_2   0.274244 0.465329 0.145589 1.031677
O11   O     O_2   0.222449 0.391912 0.193851 -0.578994
O12   O     O_R   0.260286 0.594589 0.153112 -0.760125
H25   H     H_    0.205171 0.615569 0.201090 0.327198
C37   C     C_2   0.941693 0.431614 0.760003 0.917571
O13   O     O_2   0.993785 0.410014 0.848587 -0.556649
O14   O     O_R   0.854574 0.421675 0.786982 -0.834968
H26   H     H_    0.842426 0.395698 0.883672 0.343149
C38   C     C_2   0.943496 0.333351 0.297329 0.933571
O15   O     O_2   0.996231 0.276544 0.230714 -0.537971
O16   O     O_R   0.856607 0.316437 0.272686 -0.841089
H27   H     H_    0.845141 0.254215 0.197410 0.342033
C39   C     C_2   0.943950 0.747624 0.435533 0.918603
O17   O     O_2   0.996570 0.831716 0.422823 -0.606874
O18   O     O_R   0.857428 0.771848 0.416611 -0.825089
H28   H     H_    0.846028 0.863095 0.394367 0.347744
C40   C     C_2   0.358450 0.133439 0.348947 0.949126
O19   O     O_2   0.323942 0.223308 0.401949 -0.623877
O20   O     O_R   0.331612 0.092829 0.221570 -0.787479
H29   H     H_    0.281629 0.142701 0.186051 0.367786
C41   C     C_2   0.362008 0.860055 0.349481 0.993814
O21   O     O_2   0.376463 0.812842 0.239427 -0.540382
O22   O     O_R   0.281703 0.848058 0.409110 -0.792687
H30   H     H_    0.240611 0.797376 0.351848 0.355963

loop_
_geom_bond_atom_site_label_1
_geom_bond_atom_site_label_2
_ccdc_geom_bond_type
N6    C35   S    
C23   O6    A    
C18   C21   A    
C2    C7    S    
C4    C8    S    
O8    Zn2   S    
N1    Zn2   S    
C26   C27   S    
C35   H23   S    
C12   C28   S    
C3    C39   S    
C18   C24   S    
C8    C29   T    
C12   O4    A    
C5    C6    S    
C36   O12   S    
C32   H14   S    
C15   C16   S    
C41   O21   D    
N4    H12   S    
C22   N6    S    
C13   C41   S    
O18   H28   S    
C12   O3    A    
C1    O1    A    
C34   O9    D    
C19   C20   A    
C16   C17   S    
C35   H24   S    
N3    C31   S    
O10   H20   S    
C9    C10   A    
C25   O8    A    
N5    C33   S    
C31   H11   S    
C16   H7    S    
N6    H21   S    
C32   H15   S    
C26   C37   S    
C21   C22   S    
C19   H2    S    
O2    Zn2   S    
C31   H10   S    
C25   C29   S    
O7    Zn1   S    
C35   H22   S    
C33   H19   S    
O14   H26   S    
C4    C6    S    
C20   N2    A    
C38   O15   D    
O4    Zn2   S    
C32   H13   S    
C24   H4    S    
C23   O5    A    
C33   H18   S    
C14   C23   S    
C3    C30   S    
C16   N4    S    
N5    H16   S    
C19   N1    A    
C17   N5    S    
C39   O18   S    
C6    C27   S    
C21   N2    A    
O6    Zn2   S    
O20   H29   S    
N3    H8    S    
O3    Zn1   S    
C40   O20   S    
C22   C34   S    
C2    C27   S    
C20   H3    S    
C11   C40   S    
C9    C17   S    
C26   C30   S    
C41   O22   S    
C17   H1    S    
C22   C24   S    
C2    C5    S    
C3    C4    S    
C31   H9    S    
C24   C36   S    
O1    Zn1   S    
C36   O11   D    
C1    C10   S    
C1    O2    A    
O12   H25   S    
C3    C5    S    
C4    C26   S    
C27   N3    S    
C37   O14   S    
C6    C38   S    
C30   H6    S    
C2    C30   S    
C33   H17   S    
C18   N1    A    
C11   C13   A    
C39   O17   D    
C5    H5    S    
O22   H30   S    
N4    C32   S    
C38   O16   S    
C9    C15   A    
C40   O19   D    
C10   C11   A    
C7    C28   T    
O16   H27   S    
C34   O10   S    
C37   O13   D    
C14   C15   A    
C13   C14   A    
C25   O7    A    
O5    Zn1   S    
N2    Zn1   S    
