data_mof_unit_52802.cif
_audit_creation_date              2012-10-26T19:21:31-0400
_audit_creation_method            fapswitch 2.2
_symmetry_space_group_name_H-M    P1
_symmetry_Int_Tables_number       1
_space_group_crystal_system       triclinic
_cell_length_a                    9.869593
_cell_length_b                    11.086729
_cell_length_c                    15.669394
_cell_angle_alpha                 94.644594
_cell_angle_beta                  79.796917
_cell_angle_gamma                 112.489497
_cell_volume                      1558.95840504

loop_
_atom_site_label
_atom_site_type_symbol
_atom_type_description
_atom_site_fract_x
_atom_site_fract_y
_atom_site_fract_z
_atom_type_partial_charge
C1    C     C_R   0.558317 0.746442 0.505700 0.572039
C2    C     C_2   0.517885 0.070154 0.488351 -0.133559
C3    C     C_2   0.922413 0.490487 0.493165 0.018534
C4    C     C_2   0.077517 0.509410 0.506879 0.016129
C5    C     C_R   0.411412 0.484294 0.663183 0.543549
C6    C     C_R   0.587404 0.510821 0.336684 0.544674
C7    C     C_R   0.355579 0.457573 0.756093 -0.014191
C8    C     C_R   0.634930 0.501687 0.242594 -0.011097
C9    C     C_R   0.152600 0.377044 0.875092 -0.131564
C10   C     C_R   0.820031 0.495905 0.119849 -0.129051
C11   C     C_R   0.203337 0.413412 0.788571 -0.122347
C12   C     C_R   0.442160 0.253675 0.493475 0.570641
C13   C     C_R   0.780413 0.512981 0.208590 -0.123656
C14   C     C_R   0.455733 0.464907 0.811376 -0.130031
C15   C     C_R   0.529730 0.471811 0.186742 -0.132825
C16   C     C_R   0.405928 0.417610 0.896429 0.008427
C17   C     C_R   0.563784 0.442726 0.098444 0.007691
C18   C     C_R   0.252808 0.380397 0.929478 -0.003413
C19   C     C_R   0.713415 0.462669 0.064471 0.000692
C20   C     C_R   0.505439 0.414180 0.951043 -0.010063
C21   C     C_R   0.455422 0.403290 0.042005 -0.009907
C22   C     C_3   0.247930 0.018808 0.487306 -0.406955
C23   C     C_R   0.299040 0.353110 0.072134 0.224711
C24   C     C_3   0.743310 0.980580 0.530402 -0.405106
C25   C     C_3   0.099114 0.354253 0.395517 -0.206975
C26   C     C_3   0.900899 0.645727 0.604463 -0.217410
C27   C     C_R   0.652913 0.420858 0.918985 0.221588
C28   C     C_R   0.200943 0.344846 0.015990 -0.068800
C29   C     C_R   0.754819 0.447671 0.975787 -0.067375
C30   C     C_2   0.595480 0.888119 0.507001 -0.018791
C31   C     C_2   0.406688 0.112303 0.489054 -0.017741
C32   C     C_2   0.494715 0.931417 0.487436 -0.134970
Cu1   Cu    Cu3+1 0.362980 0.479380 0.485080 0.926713
Cu2   Cu    Cu3+1 0.637020 0.520620 0.514920 0.931656
H1    H     H_    0.082753 0.309075 0.040346 0.133767
H2    H     H_    0.390250 0.861622 0.471241 0.149968
H3    H     H_    0.127230 0.577770 0.556420 0.135323
H4    H     H_    0.872670 0.422092 0.443643 0.130452
H5    H     H_    0.301979 0.259466 0.169925 0.323259
H6    H     H_    0.610841 0.322220 0.813130 0.328587
H7    H     H_    0.170122 0.070288 0.491592 0.151757
H8    H     H_    0.240875 0.960797 0.425924 0.129154
H9    H     H_    0.209659 0.952221 0.543342 0.121261
H10   H     H_    0.810076 0.928102 0.547867 0.147947
H11   H     H_    0.809689 0.043553 0.474397 0.121245
H12   H     H_    0.867397 0.456106 0.950097 0.125992
H13   H     H_    0.724766 0.042466 0.587107 0.135776
H14   H     H_    0.182421 0.312180 0.366372 0.179531
H15   H     H_    0.996934 0.272822 0.423427 0.079692
H16   H     H_    0.076516 0.402406 0.343140 0.115975
H17   H     H_    0.817667 0.687910 0.633525 0.163586
H18   H     H_    0.923347 0.597517 0.656870 0.119990
H19   H     H_    0.003127 0.727081 0.576540 0.077013
H20   H     H_    0.421617 0.473570 0.212737 0.175927
H21   H     H_    0.573183 0.509217 0.787448 0.175553
H22   H     H_    0.863614 0.535421 0.250390 0.129996
H23   H     H_    0.123515 0.406180 0.747137 0.143461
H24   H     H_    0.034674 0.344386 0.899219 0.113502
H25   H     H_    0.933942 0.507897 0.094520 0.109853
H26   H     H_    0.629801 0.140782 0.489671 0.146505
N1    N     N_2   0.842890 0.551600 0.537350 -0.239351
N2    N     N_2   0.157110 0.448400 0.462650 -0.248556
O1    O     O_R   0.426810 0.668300 0.492040 -0.507311
O2    O     O_3   0.698165 0.389338 0.834726 -0.728716
O3    O     O_R   0.573190 0.331700 0.507960 -0.505381
O4    O     O_R   0.658240 0.703130 0.517240 -0.496823
O5    O     O_R   0.341760 0.296870 0.482760 -0.498844
O6    O     O_R   0.319390 0.472820 0.610170 -0.499064
O7    O     O_R   0.680610 0.527180 0.389830 -0.499979
O8    O     O_R   0.550820 0.507640 0.635370 -0.497273
O9    O     O_R   0.449180 0.492360 0.364630 -0.500658
O10   O     O_3   0.236331 0.299039 0.152765 -0.734328

loop_
_geom_bond_atom_site_label_1
_geom_bond_atom_site_label_2
_ccdc_geom_bond_type
C28   H1    S    
C6    O7    A    
C7    C11   A    
H5    O10   S    
C26   H19   S    
C8    C13   A    
C20   C27   A    
C26   H18   S    
C27   C29   A    
C5    C7    S    
C12   O3    A    
Cu2   O8    S    
C22   H9    S    
H6    O2    S    
C16   C20   A    
C29   H12   S    
Cu1   O1    S    
C13   H22   S    
Cu2   O4    S    
C21   C23   A    
C14   H21   S    
Cu2   N1    S    
C10   C13   A    
C26   H17   S    
C4    H3    S    
C30   C32   D    
C9    C11   A    
Cu2   O7    S    
Cu1   O5    S    
C4    N2    D    
C22   H8    S    
C2    H26   S    
C5    O6    A    
C24   H11   S    
C32   H2    S    
Cu2   O3    S    
C2    C32   S    
C1    C30   S    
C17   C19   A    
C10   C19   A    
Cu1   Cu2   S    
C10   H25   S    
C8    C15   A    
C24   C30   S    
C25   N2    S    
C3    N1    D    
C12   C31   S    
C6    O9    A    
C24   H10   S    
C12   O5    A    
C25   H15   S    
C22   H7    S    
C23   C28   A    
C27   O2    S    
Cu1   O9    S    
C3    C4    S    
C19   C29   A    
C15   H20   S    
C1    O1    A    
C9    C18   A    
C18   C28   A    
C20   C21   A    
Cu1   O6    S    
C16   C18   A    
C9    H24   S    
C22   C31   S    
C15   C17   A    
C25   H16   S    
C2    C31   D    
C6    C8    S    
C14   C16   A    
C11   H23   S    
C24   H13   S    
C25   H14   S    
C23   O10   S    
C26   N1    S    
C7    C14   A    
C17   C21   A    
C3    H4    S    
Cu1   N2    S    
C5    O8    A    
C1    O4    A    
