data_mof_unit_5509.cif
_audit_creation_date              2012-12-11T20:57:48-0500
_audit_creation_method            fapswitch 2.2
_symmetry_space_group_name_H-M    P1
_symmetry_Int_Tables_number       1
_space_group_crystal_system       triclinic
_cell_length_a                    8.214049
_cell_length_b                    18.78542
_cell_length_c                    22.830288
_cell_angle_alpha                 99.617471
_cell_angle_beta                  89.749723
_cell_angle_gamma                 91.483776
_cell_volume                      3472.13572962

loop_
_atom_site_label
_atom_site_type_symbol
_atom_type_description
_atom_site_fract_x
_atom_site_fract_y
_atom_site_fract_z
_atom_type_partial_charge
Ba1   Ba    Ba6+2 0.157800 0.534120 0.474430 1.639342
Ba2   Ba    Ba6+2 0.652390 0.465870 0.525520 1.649173
C1    C     C_3   0.358175 0.704366 0.262176 -0.305571
C2    C     C_R   0.070046 0.904975 0.563005 -0.091205
C3    C     C_R   0.207592 0.048423 0.553557 -0.101039
C4    C     C_3   0.911669 0.726816 0.355198 0.348394
C5    C     C_R   0.053460 0.024077 0.529798 0.018666
C6    C     C_R   0.264161 0.118885 0.554063 -0.100337
C7    C     C_R   0.170032 0.168775 0.531038 -0.030804
C8    C     C_R   0.020345 0.144850 0.502845 0.002436
C9    C     C_R   0.962102 0.072170 0.501841 0.023602
C10   C     C_R   0.221594 0.241852 0.534886 -0.032483
C11   C     C_R   0.121875 0.290370 0.512893 -0.292071
C12   C     C_3   0.389056 0.685561 0.323297 0.320685
C13   C     C_R   0.981514 0.266985 0.480423 0.045145
C14   C     C_R   0.931021 0.193093 0.474355 -0.043617
C15   C     C_R   0.841263 0.929121 0.502876 0.024655
C16   C     C_3   0.927506 0.802252 0.339577 -0.364213
C17   C     C_R   0.782339 0.856585 0.502179 -0.000712
C18   C     C_R   0.873651 0.807882 0.529437 -0.037569
C19   C     C_R   0.012172 0.834653 0.562238 -0.026183
C20   C     C_R   0.795220 0.165581 0.440233 -0.024382
C21   C     C_R   0.736595 0.095400 0.439914 -0.088554
C22   C     C_R   0.813561 0.048172 0.472580 0.011056
C23   C     C_3   0.481062 0.687186 0.623519 0.314929
C24   C     C_R   0.750152 0.977186 0.474812 0.017660
C25   C     C_R   0.595724 0.953032 0.451235 -0.103699
C26   C     C_R   0.631638 0.832876 0.474554 -0.035555
C27   C     C_R   0.538318 0.882710 0.451091 -0.088734
C28   C     C_3   0.822256 0.374221 0.343157 0.293820
C29   C     C_R   0.578945 0.759981 0.471352 0.001171
C30   C     C_R   0.677781 0.711539 0.493775 -0.305635
C31   C     C_R   0.822717 0.734156 0.523403 0.032812
C32   C     C_R   0.643298 0.525343 0.335426 -0.302837
C33   C     C_R   0.370602 0.554118 0.945927 -0.025016
C34   C     C_3   0.478448 0.768648 0.642682 -0.387212
C35   C     C_R   0.320286 0.548348 0.886164 0.589339
C36   C     C_R   0.285040 0.419784 0.878804 0.585535
C37   C     C_R   0.331014 0.423962 0.938755 -0.018570
C38   C     C_R   0.375056 0.491493 0.972340 -0.053982
C39   C     C_R   0.417068 0.621053 0.979872 -0.074681
C40   C     C_3   0.817922 0.354280 0.275792 -0.360259
C41   C     C_R   0.467696 0.625685 0.038749 -0.075464
C42   C     C_R   0.471844 0.563634 0.065759 -0.017916
C43   C     C_R   0.424510 0.496342 0.032517 -0.053376
C44   C     C_R   0.335712 0.361876 0.965678 -0.076321
C45   C     C_3   0.860555 0.269619 0.647598 0.431712
C46   C     C_R   0.383001 0.366733 0.024906 -0.075802
C47   C     C_R   0.427888 0.433775 0.059013 -0.024971
C48   C     C_R   0.476331 0.439585 0.118942 0.589902
C49   C     C_R   0.521740 0.567519 0.125309 0.577020
C50   C     C_2   0.100345 0.439177 0.768037 -0.087918
C51   C     C_3   0.078963 0.419657 0.701478 -0.062998
C52   C     C_3   0.982435 0.618372 0.654158 0.293883
C53   C     C_1   0.305442 0.505026 0.692488 0.012766
C54   C     C_2   0.348144 0.507401 0.748699 -0.073285
C55   C     C_2   0.236647 0.475941 0.790444 0.215861
C56   C     C_3   0.839416 0.197851 0.669583 -0.362897
C57   C     C_R   0.710766 0.545343 0.236010 -0.092289
C58   C     C_R   0.750654 0.551713 0.296227 -0.022187
C59   C     C_R   0.500864 0.487866 0.314603 0.031576
C60   C     C_R   0.458534 0.482213 0.254349 -0.100145
C61   C     C_R   0.562319 0.511821 0.214443 0.201568
C62   C     C_2   0.181635 0.465571 0.666726 -0.272242
C63   C     C_3   0.997128 0.634607 0.721489 -0.359659
C64   C     C_3   0.320302 0.313770 0.393115 0.314722
C65   C     C_3   0.321376 0.232071 0.374888 -0.382559
C66   C     C_3   0.347403 0.268525 0.671634 0.290567
C67   C     C_3   0.395345 0.251179 0.731764 -0.312827
C68   C     C_R   0.990823 0.952851 0.531571 0.012394
H1    H     H_    0.308885 0.638676 0.328417 0.107340
H2    H     H_    0.399112 0.329029 0.432813 0.070435
H3    H     H_    0.242410 0.733455 0.261755 0.146992
H4    H     H_    0.239298 0.215097 0.336276 0.127678
H5    H     H_    0.279185 0.205141 0.412032 0.059705
H6    H     H_    0.446850 0.214552 0.362578 0.119963
H7    H     H_    0.518352 0.670659 0.326198 -0.038879
H8    H     H_    0.347781 0.654001 0.229202 0.122072
H9    H     H_    0.609304 0.671318 0.614955 0.015444
H10   H     H_    0.409067 0.673308 0.581904 0.057718
H11   H     H_    0.551704 0.784806 0.683741 0.131069
H12   H     H_    0.730060 0.308587 0.262352 0.140621
H13   H     H_    0.530704 0.795944 0.607079 0.054811
H14   H     H_    0.351166 0.786130 0.651276 0.120601
H15   H     H_    0.459511 0.739133 0.249651 0.126898
H16   H     H_    0.867256 0.841521 0.374080 0.076422
H17   H     H_    0.807419 0.264310 0.602377 0.079961
H18   H     H_    0.993568 0.280747 0.644644 -0.141314
H19   H     H_    0.708659 0.182081 0.670957 0.143344
H20   H     H_    0.903379 0.155195 0.639125 0.066553
H21   H     H_    0.892128 0.202173 0.714789 0.111792
H22   H     H_    0.243539 0.231943 0.654860 -0.018194
H23   H     H_    0.779944 0.400853 0.255618 0.073511
H24   H     H_    0.311296 0.325672 0.677598 0.020558
H25   H     H_    0.287400 0.255274 0.761383 0.127066
H26   H     H_    0.492261 0.289661 0.752138 0.161408
H27   H     H_    0.972709 0.727471 0.398646 0.078226
H28   H     H_    0.440292 0.195236 0.726674 0.096405
H29   H     H_    0.160627 0.346482 0.517233 0.067741
H30   H     H_    0.382625 0.133653 0.573368 0.101520
H31   H     H_    0.078851 0.801744 0.587843 0.095542
H32   H     H_    0.730684 0.197905 0.413528 0.098705
H33   H     H_    0.419365 0.868181 0.432139 0.116465
H34   H     H_    0.099007 0.598234 0.634745 0.008047
H35   H     H_    0.638331 0.655554 0.489947 0.078165
H36   H     H_    0.289916 0.013885 0.571478 0.071212
H37   H     H_    0.176797 0.920440 0.589791 0.059194
H38   H     H_    0.631574 0.079302 0.412312 0.061377
H39   H     H_    0.779969 0.713238 0.359095 -0.056112
H40   H     H_    0.513761 0.987793 0.433361 0.073632
H41   H     H_    0.384477 0.317624 0.043895 0.123771
H42   H     H_    0.302611 0.309145 0.941000 0.120776
H43   H     H_    0.502945 0.678272 0.063189 0.122207
H44   H     H_    0.795984 0.565360 0.205912 0.112049
H45   H     H_    0.886716 0.575950 0.642402 0.089330
H46   H     H_    0.415288 0.670170 0.960902 0.124009
H47   H     H_    0.464230 0.531896 0.764732 0.109099
H48   H     H_    0.016521 0.415877 0.796951 0.106094
H49   H     H_    0.346291 0.454248 0.238476 0.118544
H50   H     H_    0.676150 0.529818 0.381762 0.083215
H51   H     H_    0.058048 0.818406 0.337143 0.139429
H52   H     H_    0.170559 0.454730 0.618670 0.076430
H53   H     H_    0.868638 0.803412 0.296061 0.125376
H54   H     H_    0.698710 0.388385 0.359442 0.013986
H55   H     H_    0.907352 0.421163 0.355438 0.067062
H56   H     H_    0.100158 0.673370 0.734569 0.145210
H57   H     H_    0.940859 0.338322 0.258777 0.128721
H58   H     H_    0.018605 0.584252 0.739260 0.071267
H59   H     H_    0.882667 0.658215 0.741163 0.130199
H60   H     H_    0.194478 0.330532 0.403799 0.004245
N1    N     N_R   0.279176 0.481596 0.853031 -0.425889
N2    N     N_R   0.519322 0.506229 0.151979 -0.424770
O1    O     O_2   0.110690 0.676100 0.539200 -0.462579
O2    O     O_2   0.749589 0.465136 0.707411 -0.486386
O3    O     O_3   0.781172 0.324234 0.686478 -0.569965
O4    O     O_3   0.863220 0.586720 0.534720 -0.488611
O5    O     O_3   0.450900 0.461390 0.429220 -0.489606
O6    O     O_2   0.599830 0.538970 0.641850 -0.459442
O7    O     O_3   0.413999 0.653382 0.668865 -0.632115
O8    O     O_2   0.557031 0.243259 0.521626 -0.491776
O9    O     O_3   0.480411 0.257395 0.632879 -0.580429
O10   O     O_2   0.311938 0.602848 0.863746 -0.594824
O11   O     O_2   0.252378 0.360802 0.849257 -0.621407
O12   O     O_3   0.377239 0.345486 0.345508 -0.626033
O13   O     O_2   0.482452 0.385096 0.141484 -0.596961
O14   O     O_2   0.566809 0.625707 0.153476 -0.616463
O15   O     O_3   0.368310 0.629070 0.432760 -0.489405
O16   O     O_2   0.239060 0.756327 0.473749 -0.488275
O17   O     O_3   0.942629 0.681797 0.633467 -0.640522
O18   O     O_3   0.353036 0.745252 0.366586 -0.612503
O19   O     O_2   0.210480 0.460990 0.358130 -0.464854
O20   O     O_3   0.959520 0.592090 0.401630 -0.486114
O21   O     O_2   0.088572 0.544887 0.295219 -0.502014
O22   O     O_3   0.986493 0.677599 0.310646 -0.599609
O23   O     O_2   0.699610 0.323860 0.460780 -0.467817
O24   O     O_3   0.947090 0.413280 0.465240 -0.490602
O25   O     O_3   0.442000 0.370930 0.567190 -0.461318
O26   O     O_3   0.873722 0.314518 0.366600 -0.639490
O27   O     O_3   0.359410 0.538600 0.570730 -0.478697
O28   O     O_3   0.850780 0.407910 0.598320 -0.479070
P1    P     P_3+3 0.935930 0.665430 0.555670 0.975732
P2    P     P_3+3 0.382700 0.439650 0.365620 0.993623
P3    P     P_3+3 0.947084 0.590252 0.325086 0.941995
P4    P     P_3+3 0.874370 0.334570 0.444280 0.974723
P5    P     P_3+3 0.863799 0.407356 0.674605 0.972329
P6    P     P_3+3 0.384648 0.722855 0.436994 0.934837
P7    P     P_3+3 0.415761 0.559731 0.645569 0.959308
P8    P     P_3+3 0.423076 0.277494 0.563970 0.947675

loop_
_geom_bond_atom_site_label_1
_geom_bond_atom_site_label_2
_ccdc_geom_bond_type
O8    P8    D    
C53   C54   D    
Ba2   O23   S    
C44   H42   S    
C1    H15   S    
C23   H10   S    
O16   P6    D    
C54   H47   S    
C17   C18   A    
C40   H12   S    
C53   P7    S    
C67   H26   S    
C5    C68   A    
C2    C68   A    
C52   C63   S    
C42   C43   A    
C5    C9    A    
C24   C25   A    
C16   H16   S    
O21   P3    D    
C15   C24   A    
C52   H34   S    
C26   C27   A    
C23   O7    S    
C22   C24   A    
Ba2   O25   S    
C36   C37   A    
C51   C62   S    
C64   O12   S    
C34   H13   S    
C13   C14   A    
C40   H23   S    
C9    C22   A    
C58   P3    S    
C54   C55   S    
C27   H33   S    
Ba1   O20   S    
Ba1   Ba2   S    
C12   H1    S    
C12   H7    S    
C15   C17   A    
C1    H3    S    
C64   H2    S    
C25   H40   S    
C6    C7    A    
Ba2   O24   S    
C21   C22   A    
C45   H18   S    
Ba1   O4    S    
C56   H21   S    
O26   P4    S    
C16   H53   S    
O4    P1    S    
C19   H31   S    
C67   H28   S    
C64   C65   S    
C28   H55   S    
Ba1   P1    S    
C57   C58   A    
C52   H45   S    
C32   C58   A    
C39   C41   A    
Ba1   O1    S    
O25   P8    S    
C56   H19   S    
C52   O17   S    
C3    H36   S    
C32   H50   S    
C38   C43   A    
C4    C16   S    
C2    H37   S    
C44   C46   A    
C35   O10   D    
C59   P2    S    
Ba2   O6    S    
C4    H27   S    
C13   P4    S    
Ba1   O27   S    
C8    C9    A    
Ba2   P4    S    
C37   C38   A    
C3    C5    A    
C66   C67   S    
C63   H56   S    
C16   H51   S    
C49   O14   D    
C61   N2    S    
C32   C59   A    
Ba2   O4    S    
C35   N1    Am   
O6    P7    D    
C45   H17   S    
C11   H29   S    
Ba1   O24   S    
C31   P1    S    
C41   C42   A    
C63   H58   S    
C60   C61   A    
O15   P6    S    
O22   P3    S    
C29   C30   A    
C29   P6    S    
C43   C47   A    
C34   H11   S    
O19   P2    D    
C53   C62   D    
C12   O18   S    
O3    P5    S    
O2    P5    D    
C45   O3    S    
C66   O9    S    
C65   H4    S    
O28   P5    S    
C10   C11   A    
O7    P7    S    
C17   C26   A    
C56   H20   S    
C60   H49   S    
C4    O22   S    
C1    C12   S    
C48   N2    Am   
C40   H57   S    
C36   O11   D    
C18   C31   A    
C48   O13   D    
C51   P5    S    
C46   C47   A    
C28   H54   S    
Ba1   P2    S    
C30   H35   S    
C37   C44   A    
C4    H39   S    
Ba1   O15   S    
O17   P1    S    
Ba2   O27   S    
C39   H46   S    
Ba1   O5    S    
C50   C51   S    
C42   C49   A    
C7    C8    A    
C33   C35   A    
C28   O26   S    
O9    P8    S    
C14   C20   A    
O12   P2    S    
C23   H9    S    
Ba2   O5    S    
C55   N1    S    
C26   C29   A    
C67   H25   S    
O1    P1    D    
C10   P8    S    
C3    C6    A    
C63   H59   S    
C49   N2    Am   
O23   P4    D    
C57   C61   A    
C20   H32   S    
C30   C31   A    
C11   C13   A    
C33   C38   A    
C6    H30   S    
C8    C14   A    
C36   N1    Am   
C45   C56   S    
C2    C19   A    
O5    P2    S    
C25   C27   A    
C34   H14   S    
C57   H44   S    
C62   H52   S    
C21   H38   S    
C66   H22   S    
O27   P7    S    
Ba1   O19   S    
C59   C60   A    
C33   C39   A    
C7    C10   A    
C66   H24   S    
O20   P3    S    
C50   C55   D    
C23   C34   S    
C15   C68   A    
C46   H41   S    
C65   H5    S    
C18   C19   A    
O24   P4    S    
Ba2   O28   S    
C47   C48   A    
C20   C21   A    
C28   C40   S    
C65   H6    S    
C1    H8    S    
C41   H43   S    
C50   H48   S    
C64   H60   S    
O18   P6    S    
