data_mof_unit_26087.cif
_audit_creation_date              2012-12-10T17:25:20-0500
_audit_creation_method            fapswitch 2.2
_symmetry_space_group_name_H-M    P1
_symmetry_Int_Tables_number       1
_space_group_crystal_system       triclinic
_cell_length_a                    27.821928
_cell_length_b                    10.861898
_cell_length_c                    9.56993
_cell_angle_alpha                 90.427618
_cell_angle_beta                  90.041155
_cell_angle_gamma                 92.557573
_cell_volume                      2889.05989478

loop_
_atom_site_label
_atom_site_type_symbol
_atom_type_description
_atom_site_fract_x
_atom_site_fract_y
_atom_site_fract_z
_atom_type_partial_charge
C1    C     C_R   0.503877 0.263095 0.500285 0.809433
C2    C     C_R   0.278758 0.492629 0.626014 -0.101204
C3    C     C_R   0.253687 0.500897 0.499774 0.357877
C4    C     C_R   0.101973 0.502456 0.500118 -0.043746
C5    C     C_R   0.125586 0.394413 0.533205 -0.020424
C6    C     C_R   0.098464 0.287239 0.565423 -0.146414
C7    C     C_R   0.129635 0.609949 0.466781 -0.021502
C8    C     C_R   0.354545 0.499973 0.499849 -0.042601
C9    C     C_R   0.645457 0.502746 0.500346 -0.037129
C10   C     C_R   0.972524 0.396336 0.542637 0.041995
C11   C     C_R   0.976530 0.611284 0.458939 0.042654
C12   C     C_R   0.407496 0.499742 0.499935 0.809629
C13   C     C_R   0.949289 0.504062 0.500895 0.067946
C14   C     C_R   0.943619 0.294149 0.589208 -0.205644
C15   C     C_R   0.893761 0.296253 0.590204 -0.144467
C16   C     C_R   0.870584 0.400289 0.545577 -0.020945
C17   C     C_R   0.898158 0.504555 0.501085 -0.043916
C18   C     C_R   0.874455 0.609289 0.456740 -0.019738
C19   C     C_R   0.823955 0.607826 0.457648 0.533289
C20   C     C_R   0.820166 0.402575 0.544750 0.534614
C21   C     C_R   0.721055 0.502806 0.627378 -0.101672
C22   C     C_R   0.670923 0.501518 0.627253 -0.224337
C23   C     C_R   0.497412 0.737656 0.501612 0.786783
C24   C     C_R   0.671086 0.506160 0.373757 -0.221580
C25   C     C_R   0.721225 0.507539 0.374218 -0.102583
C26   C     C_R   0.746380 0.505559 0.500939 0.356160
C27   C     C_R   0.023568 0.394371 0.537432 0.043028
C28   C     C_R   0.050844 0.503003 0.500376 0.068059
C29   C     C_R   0.027644 0.612169 0.463577 0.042284
C30   C     C_R   0.048557 0.286842 0.567213 -0.206040
C31   C     C_R   0.106546 0.717637 0.434721 -0.143771
C32   C     C_R   0.951424 0.714051 0.412739 -0.206266
C33   C     C_R   0.901494 0.712894 0.412077 -0.146847
C34   C     C_R   0.592502 0.500833 0.500091 0.776755
C35   C     C_R   0.056666 0.719096 0.433416 -0.205604
C36   C     C_R   0.532034 0.123095 0.754398 -0.150801
C37   C     C_R   0.526766 0.065460 0.883330 -0.154443
C38   C     C_R   0.503050 0.950624 0.891173 -0.138229
C39   C     C_R   0.489105 0.888191 0.768925 -0.156393
C40   C     C_R   0.499185 0.939848 0.635632 0.094673
C41   C     C_R   0.513596 0.065685 0.630729 0.097330
C42   C     C_R   0.508279 0.129341 0.502915 -0.118679
C43   C     C_R   0.500553 0.062911 0.378524 -0.203787
C44   C     C_R   0.496454 0.935720 0.380156 -0.206000
C45   C     C_R   0.176076 0.395813 0.532259 0.534188
C46   C     C_R   0.495643 0.872383 0.507182 -0.111332
C47   C     C_R   0.564042 0.664056 0.145651 -0.165681
C48   C     C_R   0.595280 0.744104 0.073879 -0.218766
C49   C     C_R   0.595334 0.743813 0.929949 -0.192472
C50   C     C_R   0.564071 0.663668 0.856974 -0.155006
C51   C     C_R   0.531470 0.580613 0.925787 0.192903
C52   C     C_R   0.531454 0.580671 0.075553 0.209134
C53   C     C_R   0.470199 0.422985 0.073265 -0.072094
C54   C     C_R   0.470214 0.423018 0.925172 -0.069191
C55   C     C_R   0.180056 0.607493 0.467368 0.534934
C56   C     C_R   0.279019 0.508636 0.373563 -0.101877
C57   C     C_R   0.329130 0.507977 0.373416 -0.214621
C58   C     C_R   0.328874 0.492353 0.626236 -0.214812
Cu1   Cu    Cu3+1 0.500000 0.499990 0.640660 0.923839
Cu2   Cu    Cu3+1 0.500000 0.500010 0.359340 0.934153
H1    H     H_    0.259800 0.514779 0.275603 0.140627
H2    H     H_    0.127001 0.802007 0.410532 0.189511
H3    H     H_    0.969147 0.796941 0.373891 0.139651
H4    H     H_    0.652467 0.507578 0.274394 0.164257
H5    H     H_    0.884133 0.794132 0.375910 0.187597
H6    H     H_    0.740586 0.509432 0.276082 0.143087
H7    H     H_    0.497595 0.109183 0.279177 0.161739
H8    H     H_    0.539818 0.111567 0.977550 0.138601
H9    H     H_    0.259345 0.486837 0.723949 0.140507
H10   H     H_    0.496332 0.908529 0.991910 0.139750
H11   H     H_    0.468922 0.802046 0.782213 0.170878
H12   H     H_    0.493059 0.887041 0.281161 0.164165
H13   H     H_    0.445805 0.359908 0.128139 0.139897
H14   H     H_    0.567266 0.671904 0.255778 0.203845
H15   H     H_    0.619668 0.806827 0.130702 0.164860
H16   H     H_    0.619658 0.806539 0.874070 0.164225
H17   H     H_    0.566940 0.671823 0.746946 0.204603
H18   H     H_    0.115740 0.202453 0.589372 0.187460
H19   H     H_    0.652181 0.499353 0.726422 0.163148
H20   H     H_    0.740295 0.501713 0.725732 0.142728
H21   H     H_    0.873392 0.215389 0.626564 0.188922
H22   H     H_    0.958260 0.211000 0.628081 0.140188
H23   H     H_    0.030728 0.199432 0.590329 0.138349
H24   H     H_    0.347905 0.514013 0.274444 0.158957
N1    N     N_R   0.202154 0.501408 0.499762 -0.469037
N2    N     N_R   0.797947 0.505386 0.501201 -0.467985
N3    N     N_R   0.500460 0.501210 0.147910 -0.197993
N4    N     N_R   0.500480 0.501290 0.852040 -0.203868
O1    O     O_R   0.500000 0.319640 0.618810 -0.587068
O2    O     O_2   0.793521 0.302478 0.585943 -0.537105
O3    O     O_2   0.206821 0.710452 0.436767 -0.533169
O4    O     O_2   0.801010 0.708275 0.416428 -0.539005
O5    O     O_R   0.500000 0.319660 0.381240 -0.579077
O6    O     O_R   0.430260 0.500010 0.618770 -0.582201
O7    O     O_R   0.430270 0.500030 0.381200 -0.579436
O8    O     O_R   0.500000 0.680340 0.618760 -0.612985
O9    O     O_R   0.500000 0.680360 0.381190 -0.598194
O10   O     O_R   0.569730 0.499970 0.618800 -0.605349
O11   O     O_R   0.569740 0.499990 0.381230 -0.598700
O12   O     O_2   0.198957 0.292330 0.562667 -0.534179
H25   H     H_    0.347443 0.485969 0.725239 0.157348
H26   H     H_    0.042130 0.806821 0.410341 0.138806
H27   H     H_    0.551477 0.211442 0.752958 0.163921
H28   H     H_    0.445841 0.359928 0.869070 0.146678

loop_
_geom_bond_atom_site_label_1
_geom_bond_atom_site_label_2
_ccdc_geom_bond_type
C10   C27   A    
C21   C26   A    
C38   H10   S    
C3    N1    S    
C41   C42   A    
C48   H15   S    
C7    C55   A    
Cu2   O11   S    
C33   H5    S    
C15   H21   S    
C53   C54   A    
C23   O8    A    
C40   C46   A    
C28   C29   A    
C36   H27   S    
C54   H28   S    
C36   C37   A    
C22   H19   S    
C5    C6    A    
C9    C22   A    
C6    H18   S    
C15   C16   A    
C37   H8    S    
C56   C57   A    
C18   C19   A    
Cu1   O1    S    
C30   H23   S    
Cu1   N4    S    
C55   O3    S    
C19   O4    S    
C8    C58   A    
C16   C17   A    
C20   N2    A    
C12   O7    A    
Cu1   O6    S    
C2    H9    S    
C16   C20   A    
Cu2   O5    S    
C19   N2    A    
C35   H26   S    
Cu1   Cu2   S    
C24   H4    S    
C23   C46   S    
C21   C22   A    
C27   C30   A    
C31   H2    S    
C12   O6    A    
C36   C41   A    
C4    C7    A    
C4    C28   A    
Cu2   N3    S    
C44   C46   A    
C34   O11   A    
C49   H16   S    
C7    C31   A    
C51   C52   A    
C24   C25   A    
C32   H3    S    
Cu2   O9    S    
C10   C14   A    
C39   C40   A    
C26   N2    S    
C50   C51   A    
C25   C26   A    
C20   O2    S    
C45   O12   S    
C55   N1    A    
C45   N1    A    
C43   C44   A    
C37   C38   A    
C8    C57   A    
C3    C56   A    
C47   C48   A    
C8    C12   S    
C17   C18   A    
C57   H24   S    
C53   N3    A    
C58   H25   S    
C1    O5    A    
C48   C49   A    
C6    C30   A    
C11   C32   A    
C9    C34   S    
C31   C35   A    
C42   C43   A    
C14   H22   S    
C50   H17   S    
C40   C41   A    
C1    O1    A    
C23   O9    A    
C14   C15   A    
C52   N3    A    
C53   H13   S    
C25   H6    S    
C47   H14   S    
C4    C5    A    
C10   C13   A    
C51   N4    A    
C2    C58   A    
C9    C24   A    
C47   C52   A    
C29   C35   A    
C13   C17   A    
C32   C33   A    
C2    C3    A    
C54   N4    A    
C11   C13   A    
C38   C39   A    
C5    C45   A    
C21   H20   S    
C34   O10   A    
C44   H12   S    
C18   C33   A    
Cu2   O7    S    
C1    C42   S    
C11   C29   A    
C43   H7    S    
C49   C50   A    
Cu1   O8    S    
C27   C28   A    
Cu1   O10   S    
C39   H11   S    
C56   H1    S    
