data_mof_unit_31776.cif
_audit_creation_date              2012-10-26T20:40:13-0400
_audit_creation_method            fapswitch 2.2
_symmetry_space_group_name_H-M    P1
_symmetry_Int_Tables_number       1
_space_group_crystal_system       triclinic
_cell_length_a                    15.068594
_cell_length_b                    10.860523
_cell_length_c                    9.574805
_cell_angle_alpha                 90.973689
_cell_angle_beta                  90.077798
_cell_angle_gamma                 92.780436
_cell_volume                      1564.86936017

loop_
_atom_site_label
_atom_site_type_symbol
_atom_type_description
_atom_site_fract_x
_atom_site_fract_y
_atom_site_fract_z
_atom_type_partial_charge
C1    C     C_R   0.507237 0.263336 0.499437 0.552569
C2    C     C_R   0.184068 0.469015 0.378307 -0.120509
C3    C     C_R   0.231843 0.500902 0.500140 -0.018443
C4    C     C_R   0.328702 0.499918 0.499961 0.555424
C5    C     C_R   0.187171 0.533808 0.622533 -0.115634
C6    C     C_R   0.576984 0.129888 0.741742 -0.068151
C7    C     C_R   0.576196 0.075503 0.872368 0.086844
C8    C     C_R   0.533956 0.960144 0.888493 -0.107658
C9    C     C_R   0.501214 0.894000 0.771695 -0.123374
C10   C     C_R   0.510250 0.942692 0.635430 0.017277
C11   C     C_R   0.535481 0.068796 0.625265 0.004057
C12   C     C_R   0.907983 0.534129 0.623727 -0.007311
C13   C     C_R   0.516374 0.130036 0.500071 0.000284
C14   C     C_R   0.493670 0.061731 0.379165 -0.135958
C15   C     C_R   0.487118 0.934525 0.382308 -0.148296
C16   C     C_R   0.496507 0.737937 0.502320 0.538126
C17   C     C_R   0.494737 0.872991 0.508956 -0.000781
C18   C     C_R   0.620387 0.661837 0.147246 -0.091085
C19   C     C_R   0.680148 0.739159 0.076215 -0.164527
C20   C     C_R   0.680301 0.738542 0.932328 -0.170140
C21   C     C_R   0.620307 0.661159 0.858694 -0.104167
C22   C     C_R   0.559222 0.579266 0.926666 0.152967
C23   C     C_R   0.951341 0.436681 0.256064 -0.111360
C24   C     C_R   0.559220 0.579384 0.076381 0.163409
C25   C     C_R   0.443885 0.424201 0.072397 0.024172
C26   C     C_R   0.443908 0.424240 0.924332 0.019413
C27   C     C_R   0.671280 0.500463 0.500075 0.535389
C28   C     C_R   0.815455 0.532713 0.622852 -0.133337
C29   C     C_R   0.768098 0.501137 0.500245 -0.009725
C30   C     C_R   0.813410 0.470255 0.377766 -0.127050
C31   C     C_R   0.905857 0.469639 0.377491 0.016383
C32   C     C_R   0.953494 0.502008 0.500936 0.056481
C33   C     C_R   0.043724 0.435633 0.256683 -0.102399
C34   C     C_R   0.091683 0.468841 0.378183 0.020914
C35   C     C_R   0.046597 0.502119 0.501461 0.042729
C36   C     C_R   0.094455 0.535364 0.624871 0.024761
C37   C     C_R   0.048156 0.569148 0.746767 0.083459
C38   C     C_R   0.955485 0.567565 0.745324 -0.102334
Cu1   Cu    Cu3+1 0.499990 0.499990 0.640660 0.927864
Cu2   Cu    Cu3+1 0.500010 0.500010 0.359340 0.952382
H1    H     H_    0.780444 0.557320 0.717353 0.129342
H2    H     H_    0.623798 0.671272 0.748838 0.185397
H3    H     H_    0.776763 0.445273 0.283058 0.150635
H4    H     H_    0.398020 0.362094 0.867594 0.127831
H5    H     H_    0.915468 0.411324 0.160852 0.132517
H6    H     H_    0.077726 0.408861 0.162112 0.144693
H7    H     H_    0.218710 0.443138 0.283835 0.135164
H8    H     H_    0.225469 0.558816 0.715120 0.170191
H9    H     H_    0.920514 0.593111 0.839519 0.139388
H10   H     H_    0.480142 0.106583 0.281767 0.162852
H11   H     H_    0.610872 0.219424 0.732608 0.167129
H12   H     H_    0.527868 0.920406 0.991201 0.137863
H13   H     H_    0.465524 0.808075 0.792724 0.162249
H14   H     H_    0.473648 0.884380 0.285182 0.145089
H15   H     H_    0.397999 0.362039 0.126539 0.116735
H16   H     H_    0.625235 0.671407 0.257428 0.184353
H17   H     H_    0.726169 0.800868 0.133563 0.146137
H18   H     H_    0.726173 0.800081 0.877036 0.141679
I1    I     I_    0.633652 0.171517 0.046173 -0.443788
I2    I     I_    0.111955 0.625710 0.937172 -0.456921
N1    N     N_R   0.500860 0.501210 0.147910 -0.237507
N2    N     N_R   0.500890 0.501290 0.852040 -0.247898
O1    O     O_R   0.499990 0.319640 0.618810 -0.509812
O2    O     O_R   0.500000 0.319660 0.381240 -0.487957
O3    O     O_R   0.370250 0.499960 0.618800 -0.503581
O4    O     O_R   0.370260 0.499980 0.381230 -0.500690
O5    O     O_R   0.500000 0.680340 0.618760 -0.537241
O6    O     O_R   0.500010 0.680360 0.381190 -0.524734
O7    O     O_R   0.629740 0.500020 0.618770 -0.525979
O8    O     O_R   0.629750 0.500040 0.381200 -0.515801

loop_
_geom_bond_atom_site_label_1
_geom_bond_atom_site_label_2
_ccdc_geom_bond_type
Cu1   N2    S    
C22   N2    A    
C15   H14   S    
C24   N1    A    
C23   H5    S    
C2    H7    S    
C27   C29   S    
C11   C13   A    
C9    C10   A    
C8    H12   S    
C32   C35   A    
C31   C32   A    
C27   O7    A    
C18   H16   S    
C30   C31   A    
C3    C5    A    
C2    C34   A    
C33   C34   A    
C26   N2    A    
C26   H4    S    
C7    C8    A    
C16   O5    A    
Cu2   O4    S    
C21   C22   A    
C19   H17   S    
C4    O4    A    
C33   H6    S    
Cu1   O3    S    
C29   C30   A    
C27   O8    A    
Cu2   O8    S    
C12   C28   A    
C16   O6    A    
C1    O1    A    
C7    I1    S    
C28   C29   A    
C37   C38   A    
C2    C3    A    
C6    C7    A    
C22   C24   A    
Cu1   O1    S    
Cu1   O7    S    
C4    O3    A    
C6    H11   S    
C5    H8    S    
C18   C24   A    
C30   H3    S    
C12   C38   A    
C9    H13   S    
C10   C11   A    
C14   H10   S    
C10   C17   A    
C20   H18   S    
C21   H2    S    
C37   I2    S    
C5    C36   A    
C25   H15   S    
C28   H1    S    
Cu1   Cu2   S    
C1    C13   S    
C20   C21   A    
C3    C4    S    
C34   C35   A    
Cu2   O6    S    
C6    C11   A    
C15   C17   A    
C18   C19   A    
C14   C15   A    
C36   C37   A    
C25   N1    A    
C38   H9    S    
C25   C26   A    
C13   C14   A    
Cu1   O5    S    
C1    O2    A    
C12   C32   A    
Cu2   N1    S    
C19   C20   A    
C16   C17   S    
C23   C31   A    
C8    C9    A    
C23   C33   A    
C35   C36   A    
Cu2   O2    S    
