data_mof_unit_62491.cif
_audit_creation_date              2013-03-05T16:05:49-0500
_audit_creation_method            fapswitch 2.2
_symmetry_space_group_name_H-M    P1
_symmetry_Int_Tables_number       1
_space_group_crystal_system       triclinic
_cell_length_a                    38.70383
_cell_length_b                    45.087914
_cell_length_c                    29.804664
_cell_angle_alpha                 89.949711
_cell_angle_beta                  130.782051
_cell_angle_gamma                 90.078962
_cell_volume                      39382.9592396

loop_
_atom_site_label
_atom_site_type_symbol
_atom_site_description
_atom_site_fract_x
_atom_site_fract_y
_atom_site_fract_z
_atom_type_partial_charge
O1    O     O_R   0.798060 0.763370 0.096070 -0.619052
O2    O     O_R   0.201940 0.763370 0.903930 -0.618409
O3    O     O_R   0.298060 0.263370 0.096070 -0.619185
O4    O     O_R   0.701940 0.263370 0.903930 -0.618913
O5    O     O_R   0.763350 0.798040 0.026640 -0.596648
O6    O     O_R   0.236650 0.798040 0.973360 -0.600410
O7    O     O_R   0.263350 0.298040 0.026640 -0.595523
O8    O     O_R   0.736650 0.298040 0.973360 -0.599541
C1    C     C_R   0.790599 0.790603 0.081081 0.896988
C2    C     C_R   0.209374 0.790602 0.918920 0.901123
C3    C     C_R   0.290601 0.290604 0.081081 0.896586
C4    C     C_R   0.709367 0.290602 0.918919 0.900459
O9    O     O_R   0.716420 0.732650 0.034650 -0.621027
O10   O     O_R   0.283580 0.732650 0.965350 -0.620901
O11   O     O_R   0.216420 0.232650 0.034650 -0.621534
O12   O     O_R   0.783580 0.232650 0.965350 -0.620947
O13   O     O_R   0.681710 0.767330 0.965220 -0.608425
O14   O     O_R   0.318290 0.767330 0.034780 -0.609536
O15   O     O_R   0.181710 0.267330 0.965220 -0.608316
O16   O     O_R   0.818290 0.267330 0.034780 -0.609109
C5    C     C_R   0.682591 0.750080 0.999990 0.892127
C6    C     C_R   0.317447 0.750113 0.000084 0.894969
C7    C     C_R   0.182592 0.250080 0.999991 0.891142
C8    C     C_R   0.817447 0.250113 0.000084 0.895223
Zn1   Zn    Zn3+2 0.773170 0.726840 0.046290 0.997760
Zn2   Zn    Zn3+2 0.226830 0.726840 0.953710 0.995912
Zn3   Zn    Zn3+2 0.273170 0.226840 0.046290 0.996389
Zn4   Zn    Zn3+2 0.726830 0.226840 0.953710 0.996329
Zn5   Zn    Zn3+2 0.726820 0.773140 0.953570 1.077740
Zn6   Zn    Zn3+2 0.273180 0.773140 0.046430 1.075923
Zn7   Zn    Zn3+2 0.226820 0.273140 0.953570 1.080234
Zn8   Zn    Zn3+2 0.773180 0.273140 0.046430 1.075985
O17   O     O_R   0.736630 0.701940 0.973210 -0.625348
O18   O     O_R   0.263370 0.701940 0.026790 -0.625687
O19   O     O_R   0.236630 0.201940 0.973210 -0.625654
O20   O     O_R   0.763370 0.201940 0.026790 -0.625506
O21   O     O_R   0.701920 0.736610 0.903790 -0.586350
O22   O     O_R   0.298080 0.736610 0.096210 -0.585494
O23   O     O_R   0.201920 0.236610 0.903790 -0.585599
O24   O     O_R   0.798080 0.236610 0.096210 -0.585979
O25   O     O_R   0.818270 0.732650 0.034640 -0.624753
O26   O     O_R   0.181730 0.732650 0.965360 -0.627899
O27   O     O_R   0.318270 0.232650 0.034640 -0.627318
O28   O     O_R   0.681730 0.232650 0.965360 -0.625491
O29   O     O_R   0.783570 0.767330 0.965210 -0.571968
O30   O     O_R   0.216430 0.767330 0.034790 -0.568438
O31   O     O_R   0.283570 0.267330 0.965210 -0.567811
O32   O     O_R   0.716430 0.267330 0.034790 -0.572347
C9    C     C_R   0.709312 0.709393 0.918805 0.869732
C10   C     C_R   0.290779 0.709394 0.081195 0.871327
C11   C     C_R   0.209219 0.209393 0.918805 0.870668
C12   C     C_R   0.790681 0.209393 0.081195 0.870487
C13   C     C_R   0.817203 0.749725 0.999516 0.929905
C14   C     C_R   0.182922 0.749570 0.000734 0.932678
C15   C     C_R   0.317057 0.249587 0.999224 0.933769
C16   C     C_R   0.682779 0.249705 0.000449 0.928910
C17   C     C_R   0.620555 0.777131 0.985957 -0.209577
C18   C     C_R   0.381948 0.776249 0.018628 -0.210614
C19   C     C_R   0.120568 0.277135 0.985980 -0.210556
C20   C     C_R   0.881950 0.276249 0.018632 -0.210700
H1    H     H_    0.628891 0.796651 0.973418 0.201114
H2    H     H_    0.373862 0.795733 0.031470 0.203030
H3    H     H_    0.128910 0.296657 0.973453 0.201276
H4    H     H_    0.873865 0.295733 0.031478 0.203148
C21   C     C_R   0.586520 0.778902 0.989837 0.323513
C22   C     C_R   0.419213 0.776973 0.020960 0.323059
C23   C     C_R   0.086534 0.278907 0.989865 0.323092
C24   C     C_R   0.919215 0.276974 0.020967 0.323020
C25   C     C_R   0.575805 0.753340 0.006437 -0.040751
C26   C     C_R   0.429575 0.751264 0.004640 -0.035452
C27   C     C_R   0.075811 0.253342 0.006448 -0.040826
C28   C     C_R   0.929576 0.251265 0.004642 -0.035452
C29   C     C_R   0.601422 0.727309 0.022152 -0.180694
C30   C     C_R   0.403157 0.725555 0.987008 -0.192092
C31   C     C_R   0.101419 0.227308 0.022145 -0.181215
C32   C     C_R   0.903156 0.225557 0.987005 -0.192131
H5    H     H_    0.594030 0.707470 0.035077 0.170857
H6    H     H_    0.410941 0.705845 0.974298 0.162393
H7    H     H_    0.094020 0.207467 0.035059 0.170872
H8    H     H_    0.910939 0.205848 0.974292 0.162362
C33   C     C_R   0.636346 0.726264 0.020316 -0.172191
C34   C     C_R   0.365967 0.725261 0.984414 -0.165335
C35   C     C_R   0.136341 0.226263 0.020306 -0.172497
C36   C     C_R   0.865966 0.225263 0.984409 -0.165322
H9    H     H_    0.655531 0.705913 0.032567 0.165304
H10   H     H_    0.345892 0.705188 0.970645 0.164568
H11   H     H_    0.155519 0.205910 0.032543 0.165355
H12   H     H_    0.845889 0.205190 0.970636 0.164541
C37   C     C_R   0.645655 0.751020 0.001488 -0.093857
C38   C     C_R   0.355396 0.750544 0.000547 -0.092269
C39   C     C_R   0.145657 0.251021 0.001492 -0.093864
C40   C     C_R   0.855396 0.250545 0.000546 -0.092450
N1    N     N_R   0.536372 0.732536 0.038546 -0.162498
N2    N     N_R   0.501558 0.731728 0.037574 -0.148515
N3    N     N_R   0.036371 0.232534 0.038544 -0.162896
N4    N     N_R   0.001556 0.231725 0.037569 -0.148610
C41   C     C_R   0.466547 0.751085 0.003470 0.339397
C42   C     C_R   0.537266 0.752660 0.005393 0.334005
C43   C     C_R   0.966550 0.251087 0.003476 0.339374
C44   C     C_R   0.037272 0.252663 0.005403 0.333924
N5    N     N_R   0.466790 0.770796 0.969374 -0.093819
N6    N     N_R   0.501417 0.771389 0.969996 -0.084408
N7    N     N_R   0.966801 0.270804 0.969392 -0.093896
N8    N     N_R   0.001429 0.271397 0.970016 -0.084175
C45   C     C_3   0.899428 0.841873 0.266049 -0.534520
C46   C     C_3   0.098969 0.842986 0.735454 -0.600382
C47   C     C_3   0.397221 0.341040 0.267682 -0.534918
C48   C     C_3   0.599271 0.342798 0.735079 -0.600521
C49   C     C_3   0.864358 0.881270 0.190305 -0.472182
C50   C     C_3   0.139308 0.882084 0.812012 -0.498207
C51   C     C_3   0.368013 0.380139 0.192562 -0.472436
C52   C     C_3   0.638629 0.381909 0.811661 -0.498167
C53   C     C_3   0.883736 0.906572 0.236430 0.340496
C54   C     C_3   0.116030 0.906525 0.763475 0.364447
C55   C     C_3   0.387362 0.405643 0.238283 0.340378
C56   C     C_3   0.615361 0.406360 0.763146 0.364211
H13   H     H_    0.918802 0.833586 0.252848 0.244137
H14   H     H_    0.079642 0.838964 0.750658 0.219749
H15   H     H_    0.417740 0.331365 0.257216 0.244062
H16   H     H_    0.579645 0.338520 0.749774 0.219883
H17   H     H_    0.835021 0.889298 0.145299 0.245020
H18   H     H_    0.171416 0.890414 0.854596 0.243528
H19   H     H_    0.340602 0.388464 0.146961 0.244792
H20   H     H_    0.670455 0.390337 0.854444 0.243553
H21   H     H_    0.890448 0.874925 0.187013 0.185938
H22   H     H_    0.116860 0.876618 0.821997 0.172671
H23   H     H_    0.395128 0.372331 0.192195 0.185965
H24   H     H_    0.615929 0.376183 0.821127 0.173163
H25   H     H_    0.916186 0.914558 0.248215 0.126327
H26   H     H_    0.082664 0.912005 0.751376 0.131131
H27   H     H_    0.421261 0.412235 0.252854 0.126483
H28   H     H_    0.581747 0.411584 0.750533 0.131424
C57   C     C_1   0.937498 0.936813 0.375698 -0.112013
C58   C     C_1   0.062624 0.936900 0.624486 -0.075240
C59   C     C_1   0.437465 0.436817 0.375690 -0.112100
C60   C     C_1   0.562624 0.436898 0.624482 -0.075755
C61   C     C_3   0.852124 0.853919 0.209606 -0.071904
C62   C     C_3   0.147805 0.853886 0.790380 -0.058548
C63   C     C_3   0.351960 0.354022 0.209402 -0.071827
C64   C     C_3   0.647812 0.353897 0.790401 -0.058752
C65   C     C_3   0.928577 0.866211 0.315125 0.626421
C66   C     C_3   0.072293 0.866496 0.683697 0.629704
C67   C     C_3   0.426596 0.365141 0.317225 0.626631
C68   C     C_3   0.572618 0.366304 0.683310 0.630410
C69   C     C_3   0.895977 0.894084 0.294584 -0.124828
C70   C     C_3   0.105121 0.894324 0.705986 -0.119773
C71   C     C_3   0.395726 0.394129 0.294496 -0.124492
C72   C     C_3   0.605148 0.394332 0.706002 -0.119587
C73   C     C_3   0.851412 0.883075 0.282029 -0.011618
C74   C     C_3   0.150086 0.883677 0.719181 -0.024169
C75   C     C_3   0.348931 0.385159 0.277902 -0.011103
C76   C     C_3   0.650523 0.384046 0.719920 -0.024298
C77   C     C_3   0.819652 0.864586 0.222319 0.666059
C78   C     C_3   0.179539 0.863047 0.775979 0.669024
C79   C     C_3   0.317905 0.366751 0.218038 0.666451
C80   C     C_3   0.679886 0.363426 0.776735 0.669415
C81   C     C_1   0.919027 0.917517 0.339364 0.120776
C82   C     C_1   0.081629 0.917719 0.661044 0.185240
C83   C     C_1   0.418902 0.417531 0.339336 0.121070
C84   C     C_1   0.581638 0.417720 0.661046 0.185400
C85   C     C_1   0.830112 0.831425 0.163143 0.098704
C86   C     C_1   0.169750 0.831414 0.836844 0.078443
C87   C     C_1   0.330052 0.331464 0.163067 0.098719
C88   C     C_1   0.669738 0.331415 0.836846 0.078579
C89   C     C_1   0.812114 0.812820 0.125436 -0.132655
C90   C     C_1   0.187786 0.812815 0.874560 -0.132006
C91   C     C_1   0.312102 0.312827 0.125422 -0.132291
C92   C     C_1   0.687772 0.312814 0.874558 -0.132074
H29   H     H_    0.863633 0.867635 0.318394 0.143315
H30   H     H_    0.138120 0.870028 0.680526 0.128995
H31   H     H_    0.358378 0.370098 0.313495 0.143084
H32   H     H_    0.639052 0.370470 0.681411 0.128329
H33   H     H_    0.895982 0.821775 0.283872 0.186150
H34   H     H_    0.099582 0.820735 0.720793 0.208482
H35   H     H_    0.391012 0.321662 0.284089 0.185894
H36   H     H_    0.600340 0.320626 0.720572 0.208574
C93   C     C_R   0.847761 0.753347 0.947099 0.447022
C94   C     C_R   0.156424 0.750554 0.058091 0.441380
C95   C     C_R   0.343446 0.250681 0.941730 0.441652
C96   C     C_R   0.652130 0.253265 0.052742 0.447464
C97   C     C_R   0.885359 0.755375 0.950018 0.418286
C98   C     C_R   0.120357 0.751208 0.058476 0.412927
C99   C     C_R   0.379471 0.251359 0.941258 0.413396
C100  C     C_R   0.614504 0.255304 0.049743 0.417532
C101  C     C_R   0.930166 0.753128 0.005363 -0.244583
C102  C     C_R   0.075118 0.747679 0.005042 -0.240245
C103  C     C_R   0.424714 0.247773 0.994627 -0.240141
C104  C     C_R   0.569708 0.253115 0.994349 -0.244656
C105  C     C_R   0.937119 0.748745 0.057746 0.290486
C106  C     C_R   0.065695 0.742940 0.951121 0.285562
C107  C     C_R   0.434181 0.242961 0.048569 0.284922
C108  C     C_R   0.562798 0.248746 0.942002 0.291484
C109  C     C_R   0.899370 0.746512 0.054024 -0.315328
C110  C     C_R   0.101765 0.743398 0.951100 -0.319651
C111  C     C_R   0.398159 0.243403 0.048685 -0.317138
C112  C     C_R   0.600577 0.246491 0.945805 -0.318575
H37   H     H_    0.904703 0.743911 0.094325 0.222314
H38   H     H_    0.094784 0.740472 0.909748 0.222797
H39   H     H_    0.405181 0.240421 0.090058 0.223905
H40   H     H_    0.595283 0.243910 0.905533 0.220989
C113  C     C_R   0.855067 0.749515 0.999725 -0.287191
C114  C     C_R   0.146660 0.747829 0.003595 -0.279186
C115  C     C_R   0.353263 0.247883 0.996259 -0.279861
C116  C     C_R   0.644870 0.249463 0.000150 -0.286569
N9    N     N_R   0.001899 0.731918 0.039526 -0.130476
N10   N     N_R   0.005230 0.770701 0.973763 -0.117161
N11   N     N_R   0.494689 0.270763 0.025897 -0.116138
N12   N     N_R   0.497800 0.232004 0.960014 -0.130342
N13   N     N_R   0.036020 0.730503 0.039236 -0.146542
N14   N     N_R   0.971179 0.772197 0.974274 -0.087110
N15   N     N_R   0.528754 0.272232 0.025399 -0.087013
N16   N     N_R   0.463665 0.230617 0.960290 -0.147065
C117  C     C_R   0.038117 0.749799 0.006240 0.446351
C118  C     C_R   0.968998 0.752845 0.007253 0.399521
C119  C     C_R   0.530830 0.252888 0.992371 0.399455
C120  C     C_R   0.461681 0.249899 0.993352 0.446140
C121  C     C_3   0.656097 0.615276 0.818516 -0.545987
C122  C     C_3   0.343572 0.615259 0.181425 -0.545936
C123  C     C_3   0.156979 0.115229 0.818617 -0.545884
C124  C     C_3   0.842806 0.115216 0.181340 -0.545771
C125  C     C_3   0.592776 0.651557 0.744437 0.425093
C126  C     C_3   0.407456 0.651394 0.255107 0.425057
C127  C     C_3   0.092552 0.151086 0.745324 0.425324
C128  C     C_3   0.907458 0.151064 0.254413 0.424886
C129  C     C_3   0.568181 0.625135 0.699473 -0.463612
C130  C     C_3   0.431986 0.624963 0.300046 -0.464041
C131  C     C_3   0.068099 0.124636 0.700412 -0.464000
C132  C     C_3   0.931934 0.124607 0.299291 -0.463919
H41   H     H_    0.644862 0.613973 0.844477 0.228586
H42   H     H_    0.354472 0.613827 0.155096 0.228733
H43   H     H_    0.146395 0.113551 0.845287 0.228710
H44   H     H_    0.853211 0.113530 0.154475 0.228669
H45   H     H_    0.586574 0.670818 0.716879 0.201774
H46   H     H_    0.414071 0.670697 0.282781 0.202272
H47   H     H_    0.085548 0.170462 0.717551 0.202005
H48   H     H_    0.914637 0.170437 0.282254 0.201841
H49   H     H_    0.546755 0.611269 0.703547 0.215885
H50   H     H_    0.453072 0.610971 0.295630 0.215741
H51   H     H_    0.047352 0.110406 0.705159 0.215822
H52   H     H_    0.952502 0.110368 0.294326 0.215556
H53   H     H_    0.543773 0.633819 0.653478 0.215080
H54   H     H_    0.456706 0.633641 0.346020 0.215176
H55   H     H_    0.043077 0.133296 0.654464 0.215122
H56   H     H_    0.957121 0.133259 0.345227 0.215175
C133  C     C_1   0.563082 0.562823 0.625605 -0.118673
C134  C     C_1   0.437014 0.562824 0.374394 -0.119392
C135  C     C_1   0.063078 0.062827 0.625600 -0.118890
C136  C     C_1   0.937010 0.062817 0.374385 -0.120079
C137  C     C_3   0.645666 0.646423 0.789767 0.007789
C138  C     C_3   0.354509 0.646425 0.210237 0.008394
C139  C     C_3   0.145547 0.146428 0.789759 0.008743
C140  C     C_3   0.854449 0.146417 0.210230 0.007702
C141  C     C_3   0.633667 0.590431 0.770697 0.371686
C142  C     C_3   0.366001 0.590421 0.229267 0.371384
C143  C     C_3   0.134572 0.090407 0.770750 0.371703
C144  C     C_3   0.865256 0.090393 0.229214 0.372341
C145  C     C_3   0.604429 0.604805 0.707929 0.008905
C146  C     C_3   0.395724 0.604806 0.292069 0.008864
C147  C     C_3   0.104378 0.104809 0.707926 0.008859
C148  C     C_3   0.895697 0.104793 0.292053 0.009328
C149  C     C_3   0.637183 0.623169 0.704705 0.007159
C150  C     C_3   0.363438 0.623354 0.295804 0.008010
C151  C     C_3   0.136201 0.123703 0.703703 0.007712
C152  C     C_3   0.864108 0.123701 0.296573 0.006947
C153  C     C_3   0.664481 0.646407 0.756360 -0.018341
C154  C     C_3   0.336137 0.646601 0.244177 -0.017342
C155  C     C_3   0.163497 0.146964 0.755315 -0.017652
C156  C     C_3   0.836752 0.146962 0.244975 -0.019105
C157  C     C_1   0.581802 0.581698 0.662739 0.059860
C158  C     C_1   0.418331 0.581698 0.337259 0.059759
C159  C     C_1   0.081784 0.081702 0.662733 0.059738
C160  C     C_1   0.918320 0.081688 0.337245 0.059352
C161  C     C_1   0.668841 0.668743 0.836557 0.109496
C162  C     C_1   0.331319 0.668746 0.163450 0.108869
C163  C     C_1   0.168723 0.168746 0.836550 0.108538
C164  C     C_1   0.831222 0.168738 0.163440 0.109347
C165  C     C_1   0.687479 0.687227 0.874457 -0.137874
C166  C     C_1   0.312653 0.687229 0.125546 -0.140884
C167  C     C_1   0.187369 0.187228 0.874455 -0.141203
C168  C     C_1   0.812545 0.187225 0.125542 -0.137437
H57   H     H_    0.700468 0.638482 0.788809 0.104377
H58   H     H_    0.300049 0.638786 0.212021 0.103429
H59   H     H_    0.199678 0.139352 0.787186 0.103058
H60   H     H_    0.800539 0.139354 0.213278 0.104016
H61   H     H_    0.662757 0.607352 0.712441 0.111820
H62   H     H_    0.337820 0.607654 0.288386 0.111500
H63   H     H_    0.161860 0.108228 0.710803 0.111102
H64   H     H_    0.838467 0.108235 0.289665 0.111537
H65   H     H_    0.693644 0.611545 0.851217 0.153459
H66   H     H_    0.305980 0.611641 0.149047 0.153409
H67   H     H_    0.194611 0.111831 0.850692 0.153100
H68   H     H_    0.805160 0.111827 0.149440 0.152959
H69   H     H_    0.661318 0.577400 0.777377 0.076800
H70   H     H_    0.338368 0.577515 0.222949 0.076991
H71   H     H_    0.162196 0.077756 0.776717 0.076496
H72   H     H_    0.837667 0.077756 0.223454 0.076024
O33   O     O_R   0.059430 0.969340 0.561280 -0.594187
O34   O     O_R   0.940570 0.969340 0.438720 -0.581604
O35   O     O_R   0.559430 0.469340 0.561280 -0.594716
O36   O     O_R   0.440570 0.469340 0.438720 -0.581665
O37   O     O_R   0.001940 0.969340 0.561310 -0.613687
O38   O     O_R   0.998060 0.969340 0.438690 -0.631822
O39   O     O_R   0.501940 0.469340 0.561310 -0.613687
O40   O     O_R   0.498060 0.469340 0.438690 -0.631792
C169  C     C_R   0.040549 0.959469 0.580899 0.890717
C170  C     C_R   0.959431 0.959468 0.419102 0.896023
C171  C     C_R   0.540547 0.459467 0.580895 0.889920
C172  C     C_R   0.459430 0.459467 0.419105 0.896003
Zn9   Zn    Zn3+2 0.538320 0.500060 0.499790 1.041585
Zn10  Zn    Zn3+2 0.461680 0.500060 0.500210 1.058779
Zn11  Zn    Zn3+2 0.038320 0.000060 0.499790 1.041247
Zn12  Zn    Zn3+2 0.961680 0.000060 0.500210 1.058616
O41   O     O_R   0.497920 0.530770 0.438300 -0.611646
O42   O     O_R   0.502080 0.530770 0.561700 -0.611916
O43   O     O_R   0.997920 0.030770 0.438300 -0.611749
O44   O     O_R   0.002080 0.030770 0.561700 -0.611819
O45   O     O_R   0.440430 0.530760 0.438330 -0.601216
O46   O     O_R   0.559570 0.530760 0.561670 -0.600478
O47   O     O_R   0.940430 0.030760 0.438330 -0.601690
O48   O     O_R   0.059570 0.030760 0.561670 -0.601045
C173  C     C_R   0.459244 0.540552 0.418562 0.898529
C174  C     C_R   0.540786 0.540552 0.581438 0.898224
C175  C     C_R   0.959243 0.040550 0.418561 0.898045
C176  C     C_R   0.040786 0.040553 0.581436 0.898412
O49   O     O_3   0.851236 0.929774 0.212329 -0.526030
C177  C     C_3   0.859096 0.951784 0.186192 -0.230236
H73   H     H_    0.859766 0.942185 0.152387 0.147286
H74   H     H_    0.891407 0.963873 0.220645 0.140197
H75   H     H_    0.830833 0.968103 0.163570 0.206089
O50   O     O_3   0.144099 0.932127 0.784546 -0.510771
C178  C     C_3   0.135140 0.951728 0.812776 -0.232753
H76   H     H_    0.160534 0.969977 0.833300 0.202750
H77   H     H_    0.138377 0.940461 0.848595 0.149414
H78   H     H_    0.100700 0.961784 0.779963 0.140064
O51   O     O_3   0.356433 0.429846 0.212170 -0.526808
C179  C     C_3   0.367872 0.450692 0.188358 -0.229966
H79   H     H_    0.369925 0.440155 0.156415 0.147779
H80   H     H_    0.400546 0.461999 0.224356 0.141986
H81   H     H_    0.340806 0.467850 0.164089 0.204500
O52   O     O_3   0.643129 0.432124 0.784541 -0.510930
C180  C     C_3   0.633526 0.451501 0.812342 -0.232061
H82   H     H_    0.658691 0.469892 0.833137 0.202704
H83   H     H_    0.636550 0.440093 0.847889 0.149647
H84   H     H_    0.598997 0.461386 0.779200 0.140162
O53   O     O_3   0.795665 0.841685 0.225777 -0.569029
C181  C     C_3   0.820339 0.816310 0.259972 -0.243721
H85   H     H_    0.851429 0.821414 0.305889 0.163435
H86   H     H_    0.827235 0.801554 0.236921 0.160127
H87   H     H_    0.798238 0.803283 0.264147 0.223580
O54   O     O_3   0.199236 0.839284 0.767198 -0.572358
C182  C     C_3   0.170946 0.815196 0.731901 -0.237452
H88   H     H_    0.138944 0.822113 0.688460 0.189165
H89   H     H_    0.165434 0.800443 0.756476 0.165433
H90   H     H_    0.189258 0.801600 0.722232 0.219524
O55   O     O_3   0.290815 0.345269 0.218669 -0.568421
C183  C     C_3   0.312702 0.319566 0.253468 -0.243465
H91   H     H_    0.342866 0.324268 0.300168 0.163010
H92   H     H_    0.320266 0.303840 0.232351 0.159239
H93   H     H_    0.288280 0.307851 0.255004 0.224114
O56   O     O_3   0.700173 0.339893 0.768414 -0.572197
C184  C     C_3   0.672324 0.315707 0.732929 -0.238569
H94   H     H_    0.640418 0.322527 0.689296 0.188813
H95   H     H_    0.666667 0.300787 0.757170 0.165616
H96   H     H_    0.691093 0.302329 0.723704 0.219311
N17   N     N_R   0.782544 0.883427 0.172176 0.268086
O57   O     O_R   0.757036 0.898825 0.177586 -0.228885
O58   O     O_R   0.763762 0.875979 0.118288 -0.372764
N18   N     N_R   0.219924 0.878703 0.829014 0.246959
O59   O     O_R   0.252527 0.863114 0.874672 -0.320159
O60   O     O_R   0.223624 0.907441 0.833437 -0.277420
N19   N     N_R   0.283469 0.386153 0.166814 0.268014
O61   O     O_R   0.257555 0.403065 0.169314 -0.230033
O62   O     O_R   0.266500 0.378215 0.113872 -0.372887
N20   N     N_R   0.719855 0.379209 0.830022 0.246942
O63   O     O_R   0.752457 0.363712 0.875862 -0.319926
O64   O     O_R   0.723171 0.407959 0.834466 -0.277405
N21   N     N_R   0.946299 0.853183 0.372620 0.173537
O65   O     O_R   0.943520 0.867098 0.408421 -0.389801
O66   O     O_R   0.968653 0.828248 0.390353 -0.347391
N22   N     N_R   0.058941 0.854189 0.627826 0.173873
O67   O     O_R   0.041133 0.871458 0.582425 -0.360793
O68   O     O_R   0.054500 0.825708 0.618263 -0.408608
N23   N     N_R   0.440700 0.352785 0.373388 0.173816
O69   O     O_R   0.436629 0.367815 0.406997 -0.393099
O70   O     O_R   0.461206 0.327195 0.392398 -0.347480
N24   N     N_R   0.559919 0.354140 0.627719 0.173605
O71   O     O_R   0.542215 0.371457 0.582409 -0.365318
O72   O     O_R   0.555921 0.325666 0.618170 -0.409197
N25   N     N_R   0.827147 0.905988 0.287399 0.277935
O73   O     O_R   0.804897 0.898230 0.304472 -0.286585
O74   O     O_R   0.827206 0.933800 0.275758 -0.282693
N26   N     N_R   0.177534 0.906987 0.720499 0.275938
O75   O     O_R   0.209886 0.899166 0.720499 -0.284483
O76   O     O_R   0.170061 0.935131 0.720360 -0.294375
N27   N     N_R   0.324843 0.409463 0.280527 0.277986
O77   O     O_R   0.299782 0.403351 0.294133 -0.285861
O78   O     O_R   0.327754 0.436912 0.269775 -0.285264
N28   N     N_R   0.677913 0.407606 0.721736 0.275755
O79   O     O_R   0.710668 0.400090 0.722343 -0.284779
O80   O     O_R   0.670014 0.435679 0.721458 -0.294505
O81   O     O_3   0.804261 0.756153 0.892528 -0.551874
C185  C     C_3   0.783105 0.727964 0.873249 -0.179006
H97   H     H_    0.768130 0.722284 0.893579 0.140186
H98   H     H_    0.806643 0.709893 0.882610 0.105317
H99   H     H_    0.754746 0.728755 0.824574 0.237810
O82   O     O_3   0.200679 0.754391 0.110825 -0.558451
C186  C     C_3   0.222810 0.726551 0.130186 -0.194853
H100  H     H_    0.229709 0.718450 0.101609 0.127343
H101  H     H_    0.202911 0.709455 0.131850 0.118018
H102  H     H_    0.256151 0.729078 0.175663 0.241844
O83   O     O_3   0.299186 0.254556 0.889055 -0.557915
C187  C     C_3   0.276951 0.226722 0.869591 -0.195427
H103  H     H_    0.270173 0.218519 0.898265 0.126835
H104  H     H_    0.296715 0.209678 0.867667 0.117748
H105  H     H_    0.243546 0.229300 0.824206 0.241682
O84   O     O_3   0.695618 0.256043 0.107359 -0.551252
C188  C     C_3   0.716699 0.227858 0.126561 -0.181964
H106  H     H_    0.731817 0.222281 0.106396 0.140798
H107  H     H_    0.693073 0.209745 0.116951 0.104716
H108  H     H_    0.744947 0.228589 0.175270 0.236519
O85   O     O_3   0.878116 0.761322 0.898839 -0.553574
C189  C     C_3   0.877131 0.734433 0.873785 -0.153165
H109  H     H_    0.904286 0.718569 0.907211 0.132560
H110  H     H_    0.882788 0.739508 0.842586 0.225814
H111  H     H_    0.843128 0.723815 0.847801 0.167172
O86   O     O_3   0.128504 0.758957 0.109647 -0.560936
C190  C     C_3   0.142823 0.733846 0.146365 -0.139795
H112  H     H_    0.129722 0.712352 0.121858 0.116915
H113  H     H_    0.129935 0.735961 0.170279 0.213833
H114  H     H_    0.180612 0.733389 0.180264 0.194983
O87   O     O_3   0.371297 0.259185 0.890085 -0.560839
C191  C     C_3   0.356868 0.234118 0.853253 -0.141591
H115  H     H_    0.369859 0.212594 0.877654 0.116880
H116  H     H_    0.369775 0.236276 0.829360 0.213371
H117  H     H_    0.319077 0.233689 0.819343 0.195072
O88   O     O_3   0.621722 0.261213 0.100903 -0.553326
C192  C     C_3   0.622528 0.234302 0.125823 -0.152132
H118  H     H_    0.595105 0.218562 0.092333 0.132846
H119  H     H_    0.617152 0.239367 0.157288 0.226233
H120  H     H_    0.656374 0.223547 0.151480 0.165867
N29   N     N_R   0.982094 0.748071 0.115251 0.233535
O89   O     O_R   0.990154 0.731755 0.157241 -0.350750
O90   O     O_R   0.013103 0.766847 0.128403 -0.344826
N30   N     N_R   0.020035 0.737605 0.896350 0.235030
O91   O     O_R   0.008711 0.745156 0.846088 -0.355375
O92   O     O_R   0.991284 0.722151 0.895700 -0.383950
N31   N     N_R   0.479836 0.237565 0.103267 0.235327
O93   O     O_R   0.491264 0.245057 0.153600 -0.348746
O94   O     O_R   0.508463 0.222109 0.103769 -0.384112
N32   N     N_R   0.517848 0.248117 0.884457 0.232276
O95   O     O_R   0.509751 0.231816 0.842460 -0.355869
O96   O     O_R   0.486923 0.266922 0.871288 -0.348840
N33   N     N_R   0.565333 0.807080 0.980130 0.217767
O97   O     O_R   0.563684 0.817555 0.019373 -0.289115
O98   O     O_R   0.555639 0.824574 0.938499 -0.326503
N34   N     N_R   0.446562 0.803479 0.041350 0.220844
O99   O     O_R   0.490590 0.801826 0.073616 -0.315140
O100  O     O_R   0.428310 0.829255 0.033756 -0.310998
N35   N     N_R   0.065359 0.307087 0.980177 0.217682
O101  O     O_R   0.063712 0.317555 0.019428 -0.290149
O102  O     O_R   0.055672 0.324589 0.938560 -0.325764
N36   N     N_R   0.946567 0.303478 0.041365 0.220849
O103  O     O_R   0.990596 0.301824 0.073636 -0.315555
O104  O     O_R   0.928317 0.329255 0.033773 -0.310836
O105  O     O_3   0.605713 0.572084 0.774377 -0.592324
C193  C     C_3   0.631355 0.548472 0.814267 -0.308363
H121  H     H_    0.661742 0.556660 0.858698 0.167910
H122  H     H_    0.641846 0.532759 0.796340 0.173101
H123  H     H_    0.609565 0.536100 0.819810 0.195444
O106  O     O_3   0.393523 0.571920 0.225142 -0.592885
C194  C     C_3   0.367479 0.548343 0.185321 -0.308304
H124  H     H_    0.337011 0.556578 0.141018 0.168556
H125  H     H_    0.357068 0.532723 0.203530 0.173896
H126  H     H_    0.388928 0.535852 0.179400 0.194810
O107  O     O_3   0.107482 0.071603 0.775296 -0.592418
C195  C     C_3   0.133919 0.048078 0.814989 -0.309081
H127  H     H_    0.164457 0.056385 0.859186 0.168124
H128  H     H_    0.144261 0.032674 0.796474 0.173473
H129  H     H_    0.112807 0.035325 0.821237 0.194947
O108  O     O_3   0.892126 0.071572 0.224411 -0.592230
C196  C     C_3   0.865504 0.048050 0.184771 -0.312165
H130  H     H_    0.834892 0.056362 0.140657 0.168560
H131  H     H_    0.855261 0.032648 0.203468 0.170890
H132  H     H_    0.886431 0.035294 0.178284 0.195469
O109  O     O_3   0.575847 0.661304 0.772616 -0.591744
C197  C     C_3   0.553476 0.639645 0.779790 -0.234595
H133  H     H_    0.571546 0.618110 0.795843 0.183504
H134  H     H_    0.517732 0.636850 0.737823 0.179784
H135  H     H_    0.551907 0.647716 0.813564 0.190124
O110  O     O_3   0.424099 0.660966 0.226448 -0.591351
C198  C     C_3   0.446016 0.639166 0.218901 -0.231546
H136  H     H_    0.427716 0.617685 0.203006 0.182754
H137  H     H_    0.481831 0.636298 0.260651 0.179811
H138  H     H_    0.447359 0.647133 0.184849 0.191381
O111  O     O_3   0.076171 0.160341 0.774425 -0.591750
C199  C     C_3   0.054707 0.138280 0.782335 -0.235157
H139  H     H_    0.073236 0.116906 0.798079 0.183660
H140  H     H_    0.018828 0.135259 0.740797 0.179559
H141  H     H_    0.053578 0.146058 0.816649 0.190033
O112  O     O_3   0.923663 0.160322 0.225063 -0.591422
C200  C     C_3   0.944910 0.138258 0.216918 -0.232259
H142  H     H_    0.926297 0.116889 0.201241 0.182818
H143  H     H_    0.980831 0.135225 0.258328 0.179591
H144  H     H_    0.945895 0.146042 0.182458 0.191235
N37   N     N_R   0.666667 0.675750 0.736367 0.252109
O113  O     O_R   0.689491 0.678526 0.718499 -0.317530
O114  O     O_R   0.649337 0.699425 0.739865 -0.364894
N38   N     N_R   0.334454 0.676009 0.264356 0.250491
O115  O     O_R   0.311929 0.678971 0.282600 -0.322006
O116  O     O_R   0.351969 0.699566 0.260696 -0.369349
N39   N     N_R   0.164689 0.176490 0.734975 0.250566
O117  O     O_R   0.186862 0.179772 0.716275 -0.321795
O118  O     O_R   0.147091 0.199850 0.738923 -0.368689
N40   N     N_R   0.835776 0.176490 0.265420 0.252637
O119  O     O_R   0.813866 0.179767 0.284479 -0.316074
O120  O     O_R   0.853289 0.199857 0.261214 -0.362708
N41   N     N_R   0.612999 0.636446 0.645809 0.271995
O121  O     O_R   0.584115 0.658062 0.626611 -0.323731
O122  O     O_R   0.621768 0.627162 0.612838 -0.320011
N42   N     N_R   0.388096 0.636659 0.354780 0.272082
O123  O     O_R   0.417166 0.658167 0.373699 -0.323508
O124  O     O_R   0.379576 0.627514 0.388117 -0.320801
N43   N     N_R   0.111078 0.137057 0.644660 0.272275
O125  O     O_R   0.081836 0.158365 0.626028 -0.322547
O126  O     O_R   0.119344 0.128168 0.610957 -0.320533
N44   N     N_R   0.889478 0.137056 0.355657 0.272109
O127  O     O_R   0.918769 0.158357 0.374117 -0.322869
O128  O     O_R   0.881395 0.128175 0.389584 -0.319768
O129  O     O_3   0.964967 0.873791 0.315913 -0.650048
C201  C     C_3   0.006077 0.882621 0.371800 -0.147637
H145  H     H_    0.026825 0.862823 0.397921 0.226164
H146  H     H_    0.000861 0.896350 0.397734 0.158921
H147  H     H_    0.026054 0.896119 0.364588 0.168109
O130  O     O_3   0.032559 0.876206 0.673648 -0.654469
C202  C     C_3   0.996602 0.855221 0.642801 -0.131735
H148  H     H_    0.008431 0.832092 0.658325 0.164455
H149  H     H_    0.977280 0.856717 0.594438 0.225883
H150  H     H_    0.972646 0.860695 0.650056 0.172889
O131  O     O_3   0.465278 0.370796 0.321817 -0.650891
C203  C     C_3   0.505634 0.378962 0.379002 -0.145015
H151  H     H_    0.524313 0.358816 0.405800 0.226821
H152  H     H_    0.499595 0.393671 0.403015 0.158955
H153  H     H_    0.528044 0.391158 0.374342 0.167895
O132  O     O_3   0.532500 0.375686 0.672610 -0.654601
C204  C     C_3   0.496819 0.354510 0.641380 -0.128890
H154  H     H_    0.508883 0.331420 0.656976 0.164339
H155  H     H_    0.477834 0.356058 0.593113 0.226634
H156  H     H_    0.472489 0.359722 0.648117 0.173270

loop_
_geom_bond_atom_site_label_1
_geom_bond_atom_site_label_2
_geom_bond_distance
_ccdc_geom_bond_type
C43   N7    1.354081 A    
C190  H112  1.116217 S    
C139  C155  1.571235 S    
C68   N24   1.491525 S    
C66   C70   1.588818 S    
O111  C199  1.410037 S    
C148  C152  1.567793 S    
C79   O55   1.435563 S    
O108  C196  1.411071 S    
C195  H128  1.112248 S    
C153  H57   1.115372 S    
C80   N20   1.487029 S    
C192  H118  1.114290 S    
C151  C155  1.568161 S    
C121  C137  1.554622 S    
C145  C149  1.567788 S    
C52   H20   1.111454 S    
C147  C151  1.567811 S    
C58   C169  1.415354 S    
C61   C77   1.605733 S    
N36   O104  1.301499 A    
C111  C115  1.398294 A    
N4    C43   1.354060 A    
C125  C129  1.566668 S    
C44   N8    1.356700 A    
C204  H156  1.109048 S    
C129  H49   1.105999 S    
C101  C118  1.466860 S    
Zn6   O22   1.993749 S    
C201  H145  1.109884 S    
C72   C84   1.463798 S    
C186  H102  1.109185 S    
C78   N18   1.487029 S    
C48   H16   1.113580 S    
C152  N44   1.472803 S    
C133  C174  1.414888 S    
O34   Zn12  1.997501 S    
C70   C74   1.587942 S    
C186  H100  1.108187 S    
O35   Zn9   1.996835 S    
C164  C168  1.194394 T    
C79   N19   1.488329 S    
C26   C30   1.400408 A    
C155  N39   1.475423 S    
C177  H73   1.112700 S    
C75   C79   1.585959 S    
C112  C116  1.397386 A    
C199  H139  1.106672 S    
C95   C99   1.403827 A    
C65   C69   1.593767 S    
C25   C42   1.471717 S    
C124  H68   1.113629 S    
C20   C40   1.401460 A    
C46   H14   1.113579 S    
C3    C91   1.416490 S    
C198  H137  1.110635 S    
C99   O87   1.385598 S    
C128  C132  1.566703 S    
C97   O85   1.384958 S    
N18   O59   1.302199 A    
C190  H114  1.109034 S    
C104  C119  1.466903 S    
C46   C66   1.577607 S    
C149  H61   1.115805 S    
C150  H62   1.115805 S    
C184  H96   1.108870 S    
O47   C175  1.277254 A    
C151  H63   1.115802 S    
O50   C178  1.411533 S    
C51   C63   1.558510 S    
C88   C92   1.195401 T    
O52   C180  1.411534 S    
N26   O76   1.301281 A    
C100  O88   1.384954 S    
Zn1   O25   2.006602 S    
N41   O122  1.301120 A    
Zn9   O41   1.994708 S    
N2    C41   1.354058 A    
Zn3   O19   1.995127 S    
C42   N6    1.356699 A    
Zn4   O28   2.007314 S    
C199  H141  1.109049 S    
O13   C5    1.277694 A    
Zn5   O29   2.004823 S    
C102  C106  1.412850 A    
N24   O72   1.302236 A    
N31   O94   1.301482 A    
C96   O84   1.385287 S    
C68   O132  1.430473 S    
C69   C81   1.462150 S    
O11   Zn3   2.004821 S    
O55   C183  1.410371 S    
C132  H56   1.110541 S    
O37   C169  1.278102 A    
N12   N16   1.327925 A    
C15   C115  1.462713 S    
Zn11  O48   2.003418 S    
C66   O130  1.430470 S    
C177  H75   1.109227 S    
Zn12  O47   2.002746 S    
C11   C167  1.414508 S    
C56   O52   1.419031 S    
C67   N23   1.488576 S    
O10   Zn2   2.004110 S    
C94   C98   1.403795 A    
C122  H66   1.113633 S    
C191  H115  1.116224 S    
O6    Zn6   1.994984 S    
N9    C118  1.355957 A    
C124  C140  1.554653 S    
O19   C11   1.272977 A    
N25   O73   1.301585 A    
O110  C198  1.410033 S    
C122  C138  1.554625 S    
C47   C67   1.568488 S    
N23   O69   1.301960 A    
C108  C112  1.394636 A    
C48   C68   1.577638 S    
C35   C39   1.397323 A    
O88   C192  1.411764 S    
Zn10  O42   1.993951 S    
C192  H120  1.108327 S    
O38   C170  1.277732 A    
C126  H46   1.108192 S    
C36   H12   1.083250 S    
C179  H79   1.112704 S    
C134  C158  1.194392 T    
C17   H1    1.083766 S    
C55   O51   1.419348 S    
C65   N21   1.488572 S    
C54   H26   1.118555 S    
C19   H3    1.083761 S    
C20   H4    1.083536 S    
O84   C188  1.414163 S    
C202  H150  1.109049 S    
N14   C118  1.356927 A    
N17   O57   1.301062 A    
O132  C204  1.415551 S    
C61   C85   1.459781 S    
O35   C171  1.277071 A    
C74   H30   1.106315 S    
C1    C89   1.416472 S    
N11   C120  1.355499 A    
C127  O111  1.431160 S    
C138  C162  1.458744 S    
C197  H133  1.106669 S    
C136  C175  1.414896 S    
O3    C3    1.273678 A    
O51   C179  1.411140 S    
C100  C104  1.414890 A    
O44   C176  1.277585 A    
N42   O124  1.301121 A    
C193  H121  1.112739 S    
C29   H5    1.083110 S    
O130  C202  1.415546 S    
C128  O112  1.431154 S    
C150  N42   1.472788 S    
C31   H7    1.083109 S    
C85   C89   1.195545 T    
C96   C100  1.402713 A    
N22   O67   1.301357 A    
N32   O96   1.301527 A    
O85   C189  1.411804 S    
Zn11  O43   1.994708 S    
C52   C64   1.555578 S    
C87   C91   1.195552 T    
C182  H88   1.101405 S    
C31   C35   1.388911 A    
O81   C185  1.414138 S    
C182  H90   1.108865 S    
C109  C113  1.397384 A    
C22   C26   1.413599 A    
C152  C156  1.568137 S    
N35   O102  1.301300 A    
C123  C143  1.556837 S    
C73   H29   1.101319 S    
C73   N25   1.474556 S    
C187  H103  1.108187 S    
C132  H52   1.105996 S    
C194  H125  1.112261 S    
C76   H32   1.106313 S    
C127  C131  1.566662 S    
C130  H54   1.110539 S    
C53   C69   1.572242 S    
C75   H31   1.101327 S    
O112  C200  1.410034 S    
C197  H135  1.109049 S    
O10   C6    1.278966 A    
C137  C153  1.571265 S    
N20   O63   1.302203 A    
C73   C77   1.585890 S    
C19   C23   1.398001 A    
O42   C174  1.277573 A    
C191  H117  1.109040 S    
C126  O110  1.431157 S    
C74   N26   1.475537 S    
N34   O99   1.301387 A    
O38   Zn11  1.988549 S    
C77   N17   1.488308 S    
C50   C54   1.554363 S    
C67   O131  1.434050 S    
O20   C12   1.272959 A    
C2    C90   1.416366 S    
C154  H58   1.115385 S    
O29   C13   1.277754 A    
C45   H33   1.101125 S    
C200  H142  1.106679 S    
N11   N15   1.329713 A    
O54   C182  1.406810 S    
C156  N40   1.475436 S    
C179  H81   1.109246 S    
C8    C40   1.459913 S    
O33   C169  1.277077 A    
O56   C184  1.406810 S    
C188  H107  1.114128 S    
C59   C172  1.415221 S    
O7    C3    1.273562 A    
C111  H39   1.083760 S    
C180  H83   1.112639 S    
N37   O114  1.301435 A    
C152  H64   1.115807 S    
C76   C80   1.584139 S    
Zn4   O20   1.995169 S    
C106  N30   1.441038 S    
C125  O109  1.431158 S    
N16   C120  1.354013 A    
O106  C194  1.411061 S    
N44   O128  1.301120 A    
N30   O91   1.301516 A    
C71   C75   1.586359 S    
C54   O50   1.419039 S    
O5    C1    1.273577 A    
O109  C197  1.410040 S    
O45   C173  1.277260 A    
Zn9   O46   2.003418 S    
N10   N14   1.329722 A    
C181  H86   1.107568 S    
O87   C191  1.412042 S    
C56   H28   1.118556 S    
C9    C165  1.414508 S    
O8    C4    1.273576 A    
C183  H92   1.107561 S    
C196  H130  1.112743 S    
C122  C142  1.556854 S    
O2    Zn2   1.993749 S    
C140  C164  1.458794 S    
O25   C13   1.277698 A    
C50   H22   1.114099 S    
C153  N37   1.475394 S    
C126  C138  1.567536 S    
O27   C15   1.278099 A    
C58   C82   1.195528 T    
C95   C115  1.412321 A    
N12   C119  1.355962 A    
C189  H109  1.114348 S    
C93   C113  1.410775 A    
C145  C157  1.457912 S    
N39   O117  1.301295 A    
C52   C56   1.554349 S    
C147  C159  1.457932 S    
Zn2   O26   2.007314 S    
C181  H87   1.108902 S    
C185  H97   1.107614 S    
O16   Zn8   2.007694 S    
C103  C120  1.458903 S    
C125  H45   1.108236 S    
O14   C6    1.276823 A    
Zn6   O30   2.004106 S    
C187  H105  1.109192 S    
C72   C76   1.587949 S    
C123  H43   1.109310 S    
N43   O125  1.301316 A    
C132  C148  1.553468 S    
C101  C105  1.414134 A    
C70   C82   1.463800 S    
Zn10  O45   2.002746 S    
C64   C88   1.459179 S    
C63   C79   1.605738 S    
C10   C166  1.414527 S    
C47   H15   1.114935 S    
N13   C117  1.353996 A    
C104  C108  1.414151 A    
C144  O108  1.421039 S    
O3    Zn3   1.993707 S    
N40   O119  1.301296 A    
C123  H67   1.113631 S    
C110  H38   1.083763 S    
N28   O79   1.301351 A    
C93   C97   1.402754 A    
C124  C144  1.556852 S    
C75   N27   1.474574 S    
C204  H155  1.110551 S    
C201  H146  1.107455 S    
C202  H149  1.110545 S    
C47   C63   1.566688 S    
C178  H78   1.112092 S    
C107  C111  1.396591 A    
C57   C170  1.415224 S    
N21   O66   1.302347 A    
C128  C140  1.567529 S    
C45   C61   1.566705 S    
C60   C84   1.195526 T    
C141  C145  1.560360 S    
O40   C172  1.277821 A    
C66   N22   1.491520 S    
O17   C9    1.272973 A    
C189  H111  1.108316 S    
C200  H144  1.109053 S    
O131  C203  1.414897 S    
C123  C139  1.554628 S    
C36   C40   1.399038 A    
C62   C78   1.596967 S    
C33   H9    1.083373 S    
Zn1   O17   1.995127 S    
N38   O115  1.301292 A    
C28   C43   1.454028 S    
C18   H2    1.083533 S    
C35   H11   1.083373 S    
N5    N6    1.328403 A    
C201  H147  1.109023 S    
O13   Zn5   2.006987 S    
O23   C11   1.273112 A    
O15   Zn7   2.006987 S    
C105  N29   1.439129 S    
C32   C36   1.390154 A    
N18   O60   1.300727 A    
C5    C37   1.459809 S    
C184  H95   1.108080 S    
C17   C37   1.399549 A    
C21   N33   1.436165 S    
O48   C176  1.277280 A    
N38   O116  1.301522 A    
C203  H151  1.109885 S    
C135  C176  1.414909 S    
N41   O121  1.301316 A    
N29   O90   1.301529 A    
C23   C27   1.418034 A    
O86   C190  1.412039 S    
C129  H53   1.110541 S    
N19   O61   1.301042 A    
C110  C114  1.398284 A    
C102  C117  1.458891 S    
C55   C71   1.572166 S    
C196  H132  1.109186 S    
C98   C102  1.408651 A    
C29   C33   1.388911 A    
N33   O98   1.301301 A    
C134  C173  1.414948 S    
C122  H42   1.109312 S    
C86   C90   1.195401 T    
C77   O53   1.435582 S    
C140  C156  1.571254 S    
O37   Zn12  1.989316 S    
C139  C163  1.458719 S    
C78   O54   1.435634 S    
C14   C114  1.462590 S    
C25   C29   1.405549 A    
O4    C4    1.273571 A    
C26   C41   1.454022 S    
C28   C32   1.400411 A    
C33   C37   1.397327 A    
C191  H116  1.109339 S    
Zn7   O31   2.004823 S    
C149  N41   1.472793 S    
Zn8   O32   2.004106 S    
C45   H13   1.114944 S    
C30   C34   1.390151 A    
C121  H65   1.113632 S    
C195  H127  1.112737 S    
C199  H140  1.110637 S    
C192  H119  1.109238 S    
O40   Zn9   1.988549 S    
C23   N35   1.436167 S    
O46   C174  1.277278 A    
C51   H19   1.109140 S    
N31   O93   1.301513 A    
C32   H8    1.083720 S    
C59   C83   1.195525 T    
C138  C154  1.571203 S    
C143  H71   1.119512 S    
C112  H40   1.084035 S    
C144  H72   1.119516 S    
N3    C44   1.357914 A    
C34   H10   1.083251 S    
C161  C165  1.194365 T    
C148  C160  1.457926 S    
C141  H69   1.119515 S    
C194  H124  1.112739 S    
C149  C153  1.568183 S    
C99   C103  1.408620 A    
C135  C159  1.194371 T    
O28   C16   1.277723 A    
C136  C160  1.194365 T    
C94   C114  1.412261 A    
C155  H59   1.115381 S    
C131  H51   1.105998 S    
O30   C14   1.277625 A    
C6    C38   1.459907 S    
O1    C1    1.273654 A    
C121  C141  1.556811 S    
N28   O80   1.301281 A    
C197  H134  1.110635 S    
C18   C38   1.401456 A    
O22   C10   1.273094 A    
N10   C117  1.355519 A    
C179  H80   1.112190 S    
C125  C137  1.567517 S    
C193  H122  1.112257 S    
C198  H138  1.109053 S    
C190  H113  1.109346 S    
N22   O68   1.302232 A    
C127  C139  1.567516 S    
N36   O103  1.301386 A    
C203  H153  1.109016 S    
C17   C21   1.397998 A    
N26   O75   1.301355 A    
C96   C116  1.410759 A    
O6    C2    1.273560 A    
N27   O77   1.301580 A    
C182  H89   1.107863 S    
C193  H123  1.109189 S    
C27   C44   1.471717 S    
C98   O86   1.385608 S    
C34   C38   1.399039 A    
C187  H104  1.112613 S    
N24   O71   1.301362 A    
C128  H48   1.108231 S    
C178  H76   1.109250 S    
C50   H18   1.111452 S    
C45   C65   1.568472 S    
N43   O126  1.301118 A    
C95   O83   1.384469 S    
C47   H35   1.101129 S    
C21   C25   1.418033 A    
C48   H36   1.101056 S    
C63   C87   1.459794 S    
C154  N38   1.475428 S    
C183  H93   1.108907 S    
O49   C177  1.411201 S    
C146  C158  1.457974 S    
C13   C113  1.461501 S    
C52   H24   1.114097 S    
C143  O107  1.421050 S    
Zn3   O27   2.006602 S    
C20   C24   1.398223 A    
N34   O100  1.301498 A    
C30   H6    1.083721 S    
Zn5   O21   1.993708 S    
O83   C187  1.413584 S    
N25   O74   1.301196 A    
C126  C130  1.566713 S    
O82   C186  1.413597 S    
C49   H17   1.109129 S    
C195  H129  1.109199 S    
C69   C73   1.586296 S    
O12   Zn4   2.004110 S    
N15   C119  1.356928 A    
N39   O118  1.301521 A    
N1    N2    1.329139 A    
C130  H50   1.105995 S    
O15   C7    1.277690 A    
N3    N4    1.329134 A    
C185  H98   1.114096 S    
C68   C72   1.588819 S    
C71   C83   1.462154 S    
C188  H106  1.107627 S    
N29   O89   1.301433 A    
C55   H27   1.119422 S    
C180  H82   1.109251 S    
C67   C71   1.593750 S    
N37   O113  1.301445 A    
C53   H25   1.119418 S    
C156  H60   1.115378 S    
N30   O92   1.301477 A    
C56   C72   1.572484 S    
N17   O58   1.302245 A    
C131  H55   1.110543 S    
C137  C161  1.458748 S    
C46   C62   1.565482 S    
C142  C146  1.560369 S    
C144  C148  1.560365 S    
O21   C9    1.273103 A    
C49   C61   1.558505 S    
C53   O49   1.419340 S    
O33   Zn11  1.996835 S    
C141  O105  1.421032 S    
N7    N8    1.328403 A    
C121  H41   1.109309 S    
C18   C22   1.398226 A    
O16   C8    1.276820 A    
N42   O123  1.301314 A    
N19   O62   1.302249 A    
C204  H154  1.111264 S    
C198  H136  1.106670 S    
C163  C167  1.194337 T    
O14   Zn6   2.007694 S    
C65   O129  1.434053 S    
C57   C81   1.195528 T    
C24   C28   1.413603 A    
C146  C150  1.567836 S    
O43   C175  1.277604 A    
O36   C172  1.277350 A    
C186  H101  1.112657 S    
N32   O95   1.301432 A    
O12   C8    1.278969 A    
O1    Zn1   1.993707 S    
C131  C147  1.553469 S    
O9    Zn1   2.004821 S    
O4    Zn4   1.993749 S    
Zn2   O18   1.995169 S    
O5    Zn5   1.994941 S    
C46   H34   1.101060 S    
C24   N36   1.440622 S    
C143  C147  1.560375 S    
O18   C10   1.272969 A    
O7    Zn7   1.994941 S    
C124  H44   1.109304 S    
O9    C5    1.278087 A    
O8    Zn8   1.994984 S    
O26   C14   1.278067 A    
C54   C70   1.572495 S    
C62   C86   1.459177 S    
C194  H126  1.109198 S    
O107  C195  1.411056 S    
C48   C64   1.565505 S    
C97   C101  1.414859 A    
O39   C171  1.278107 A    
O24   C12   1.273101 A    
C22   N34   1.440626 S    
Zn12  O44   1.993951 S    
N40   O120  1.301525 A    
N23   O70   1.302345 A    
C105  C109  1.394575 A    
C130  C146  1.553478 S    
C185  H99   1.109276 S    
N9    N13   1.327900 A    
C202  H148  1.111262 S    
O129  C201  1.414881 S    
O105  C193  1.411061 S    
C151  N43   1.472789 S    
C189  H110  1.109241 S    
C178  H77   1.112643 S    
N21   O65   1.301964 A    
C127  H47   1.108200 S    
O34   C170  1.277438 A    
O39   Zn10  1.989316 S    
C107  N31   1.441038 S    
C50   C62   1.555588 S    
C49   H21   1.114179 S    
C64   C80   1.596969 S    
C200  H143  1.110637 S    
C51   H23   1.114184 S    
C7    C39   1.459806 S    
O2    C2    1.273586 A    
C188  H108  1.109285 S    
O31   C15   1.277683 A    
C19   C39   1.399547 A    
C180  H84   1.112090 S    
O32   C16   1.277684 A    
C94   O82   1.384481 S    
C162  C166  1.194348 T    
C103  C107  1.412853 A    
O41   C173  1.277627 A    
C142  H70   1.119510 S    
C150  C154  1.568130 S    
C177  H74   1.112210 S    
C16   C116  1.461467 S    
C49   C53   1.551583 S    
C184  H94   1.101405 S    
C80   O56   1.435635 S    
C12   C168  1.414549 S    
C133  C157  1.194354 T    
C203  H152  1.107459 S    
C129  C145  1.553466 S    
C27   C31   1.405547 A    
N27   O78   1.301207 A    
C60   C171  1.415355 S    
C181  H85   1.105568 S    
C109  H37   1.084036 S    
O11   C7    1.278083 A    
C183  H91   1.105571 S    
C196  H131  1.112270 S    
N20   O64   1.300723 A    
Zn7   O23   1.993708 S    
Zn8   O24   1.993749 S    
N33   O97   1.301463 A    
C106  C110  1.396601 A    
C93   O81   1.385250 S    
N35   O101  1.301463 A    
O36   Zn10  1.997501 S    
C4    C92   1.416362 S    
C74   C78   1.584147 S    
N44   O127  1.301315 A    
C51   C55   1.551551 S    
C142  O106  1.421036 S    
O53   C181  1.410382 S    
N1    C42   1.357910 A    
C41   N5    1.354080 A    
C76   N28   1.475540 S    
C108  N32   1.439123 S    
