data_mof_unit_49015.cif
_audit_creation_date              2012-12-10T19:44:26-0500
_audit_creation_method            fapswitch 2.2
_symmetry_space_group_name_H-M    P1
_symmetry_Int_Tables_number       1
_space_group_crystal_system       triclinic
_cell_length_a                    10.790548
_cell_length_b                    12.325774
_cell_length_c                    13.141969
_cell_angle_alpha                 116.572815
_cell_angle_beta                  77.034436
_cell_angle_gamma                 101.404552
_cell_volume                      1513.87704799

loop_
_atom_site_label
_atom_site_type_symbol
_atom_type_description
_atom_site_fract_x
_atom_site_fract_y
_atom_site_fract_z
_atom_type_partial_charge
C1    C     C_R   0.514537 0.855123 0.286295 0.760512
C2    C     C_R   0.621201 0.848743 0.803693 -0.092181
C3    C     C_R   0.037966 0.957500 0.569375 -0.222448
C4    C     C_R   0.129179 0.997392 0.495410 -0.077127
C5    C     C_R   0.091436 0.039172 0.424142 0.002728
C6    C     C_R   0.962093 0.042358 0.430434 -0.230672
C7    C     C_R   0.870920 0.002453 0.504333 -0.075196
C8    C     C_R   0.908649 0.960830 0.575695 -0.003568
C9    C     C_R   0.202501 0.198280 0.355400 -0.143180
C10   C     C_R   0.295744 0.234882 0.280523 -0.162942
C11   C     C_R   0.370240 0.149810 0.189565 -0.076058
C12   C     C_R   0.737177 0.001062 0.501917 0.778703
C13   C     C_R   0.351087 0.027806 0.172806 -0.065315
C14   C     C_R   0.258422 0.990915 0.247820 -0.112982
C15   C     C_R   0.184158 0.076236 0.340242 0.119208
C16   C     C_R   0.310852 0.287009 0.020719 -0.236677
C17   C     C_R   0.449377 0.228064 0.836352 -0.140741
C18   C     C_R   0.628404 0.810347 0.089890 -0.203897
C19   C     C_R   0.667417 0.727491 0.978460 -0.169543
C20   C     C_R   0.613149 0.606548 0.938872 -0.141790
C21   C     C_R   0.515192 0.566027 0.010271 0.123676
C22   C     C_R   0.468919 0.653522 0.121105 0.076328
C23   C     C_R   0.478704 0.144999 0.714018 0.845303
C24   C     C_R   0.462411 0.441713 0.976331 0.105455
C25   C     C_R   0.361535 0.408948 0.051057 0.093716
C26   C     C_R   0.309783 0.498347 0.154425 -0.215509
C27   C     C_R   0.360690 0.619173 0.187815 -0.191533
C28   C     C_R   0.506224 0.348697 0.870338 -0.260198
C29   C     C_R   0.354071 0.196294 0.914427 0.360525
C30   C     C_R   0.532349 0.773597 0.163074 -0.108204
C31   C     C_R   0.713526 0.353420 0.337967 -0.308951
C32   C     C_R   0.326265 0.760343 0.645626 0.035214
C33   C     C_R   0.299568 0.674291 0.690791 -0.265817
C34   C     C_R   0.262865 0.998815 0.497879 0.803834
C35   C     C_R   0.371899 0.576151 0.645633 0.340544
C36   C     C_R   0.465579 0.557356 0.545430 -0.106224
C37   C     C_R   0.496175 0.654691 0.508991 0.245611
C38   C     C_R   0.534391 0.451058 0.482622 -0.027144
C39   C     C_R   0.640984 0.452527 0.397191 0.163382
C40   C     C_R   0.673287 0.551497 0.368999 -0.294675
C41   C     C_R   0.600585 0.648516 0.421368 -0.145467
C42   C     C_R   0.499639 0.340222 0.495519 0.085685
C43   C     C_R   0.679285 0.251354 0.361282 0.065066
C44   C     C_R   0.642927 0.971262 0.822219 -0.096132
C45   C     C_R   0.739734 0.008952 0.750417 -0.110786
C46   C     C_R   0.815435 0.923861 0.659335 0.128306
C47   C     C_R   0.795358 0.801505 0.643210 -0.138148
C48   C     C_R   0.698144 0.764175 0.715026 -0.147515
Cu1   Cu    Cu3+1 0.529370 0.098270 0.475420 0.956149
Cu2   Cu    Cu3+1 0.470630 0.901730 0.524580 0.954859
H1    H     H_    0.544750 0.819358 0.858080 0.163238
H2    H     H_    0.442824 0.178431 0.132090 0.130926
H3    H     H_    0.408800 0.962041 0.102284 0.133235
H4    H     H_    0.245740 0.896493 0.235028 0.100763
H5    H     H_    0.229155 0.474836 0.209804 0.138118
H6    H     H_    0.234569 0.262454 0.078671 0.173446
H7    H     H_    0.582624 0.367662 0.810155 0.163533
H8    H     H_    0.677728 0.902053 0.120566 0.153546
H9    H     H_    0.650163 0.547933 0.851920 0.136109
H10   H     H_    0.743616 0.756268 0.923486 0.156658
H11   H     H_    0.583536 0.036694 0.891138 0.140839
H12   H     H_    0.313273 0.685428 0.266414 0.160894
H13   H     H_    0.735889 0.175242 0.317140 0.121818
H14   H     H_    0.754014 0.552621 0.303104 0.153934
H15   H     H_    0.796144 0.354870 0.273862 0.141414
H16   H     H_    0.411670 0.324136 0.546624 0.192434
H17   H     H_    0.270249 0.836257 0.682313 0.200690
H18   H     H_    0.226085 0.687655 0.765276 0.197000
H19   H     H_    0.631049 0.717953 0.391107 0.204335
H20   H     H_    0.753637 0.103595 0.763803 0.102156
H21   H     H_    0.852067 0.734545 0.572903 0.130764
H22   H     H_    0.681258 0.669321 0.700952 0.151719
H23   H     H_    0.067718 0.927369 0.625263 0.167141
H24   H     H_    0.932269 0.072461 0.374561 0.150246
H25   H     H_    0.146735 0.265373 0.426600 0.136358
H26   H     H_    0.310964 0.329398 0.293531 0.133724
N1    N     N_R   0.573890 0.246290 0.438210 -0.192022
N2    N     N_R   0.426890 0.754320 0.561170 -0.205024
O1    O     O_R   0.536940 0.972510 0.318130 -0.580688
O2    O     O_R   0.487330 0.806530 0.359650 -0.604021
O3    O     O_R   0.705160 0.082990 0.479250 -0.590176
O4    O     O_R   0.655550 0.917010 0.520760 -0.587499
O5    O     O_R   0.512670 0.193470 0.640350 -0.569987
O6    O     O_R   0.463060 0.027490 0.681870 -0.533617
O7    O     O_R   0.344450 0.082990 0.479240 -0.571415
O8    O     O_R   0.294840 0.917010 0.520750 -0.596702
Cl1   Cl    Cl    0.278811 0.047098 0.882471 -0.694476
Cl2   Cl    Cl    0.355712 0.499512 0.734428 -0.683599

loop_
_geom_bond_atom_site_label_1
_geom_bond_atom_site_label_2
_ccdc_geom_bond_type
C17   C29   A    
C35   C36   A    
C26   H5    S    
Cu2   O6    S    
C7    C8    A    
C28   H7    S    
C26   C27   A    
C17   C23   S    
C31   C43   A    
C36   C37   A    
C38   C42   A    
C5    C6    A    
C18   C19   A    
C34   O8    A    
Cu1   O3    S    
C11   H2    S    
C10   H26   S    
C18   H8    S    
C19   C20   A    
Cu1   N1    S    
C18   C30   A    
C9    C10   A    
C21   C22   A    
C48   H22   S    
Cu2   N2    S    
C25   C26   A    
C6    H24   S    
C13   H3    S    
C7    C12   S    
C4    C34   S    
C5    C15   S    
C23   O6    A    
C43   H13   S    
Cu1   O7    S    
C24   C25   A    
C3    C8    A    
C10   C11   A    
C2    C44   A    
C39   C40   A    
C2    C48   A    
C16   C29   A    
C45   C46   A    
Cu1   O1    S    
C34   O7    A    
C16   H6    S    
C27   H12   S    
C35   Cl2   S    
C47   C48   A    
C12   O4    A    
C20   H9    S    
C47   H21   S    
C23   O5    A    
C32   H17   S    
C40   C41   A    
C14   H4    S    
C22   C27   A    
C1    O1    A    
C3    C4    A    
C44   C45   A    
Cu2   O4    S    
C41   H19   S    
C16   C25   A    
C31   H15   S    
C46   C47   A    
C22   C30   A    
C45   H20   S    
C17   C28   A    
C24   C28   A    
C4    C5    A    
Cu2   O2    S    
C6    C7    A    
C44   H11   S    
C43   N1    A    
C37   N2    A    
C40   H14   S    
C32   C33   A    
Cu1   O5    S    
C36   C38   A    
C9    C15   A    
C11   C13   A    
C38   C39   A    
C1    C30   S    
C33   C35   A    
C31   C39   A    
C12   O3    A    
C37   C41   A    
C3    H23   S    
C8    C46   S    
C29   Cl1   S    
C2    H1    S    
Cu2   O8    S    
C32   N2    A    
C20   C21   A    
C42   N1    A    
Cu1   Cu2   S    
C21   C24   A    
C42   H16   S    
C1    O2    A    
C14   C15   A    
C19   H10   S    
C9    H25   S    
C13   C14   A    
C33   H18   S    
