data_mof_unit_65838.cif
_audit_creation_date              2013-03-05T15:39:58-0500
_audit_creation_method            fapswitch 2.2
_symmetry_space_group_name_H-M    P1
_symmetry_Int_Tables_number       1
_space_group_crystal_system       triclinic
_cell_length_a                    19.193506
_cell_length_b                    18.984926
_cell_length_c                    18.927833
_cell_angle_alpha                 109.191603
_cell_angle_beta                  109.726766
_cell_angle_gamma                 109.991065
_cell_volume                      5276.42603116

loop_
_atom_site_label
_atom_site_type_symbol
_atom_site_description
_atom_site_fract_x
_atom_site_fract_y
_atom_site_fract_z
_atom_type_partial_charge
O1    O     O_R   0.411310 0.359450 0.448800 -0.592581
O2    O     O_R   0.410660 0.462490 0.551220 -0.556333
C1    C     C_R   0.384184 0.382030 0.501219 0.951480
O3    O     O_R   0.589930 0.448490 0.538390 -0.551074
O4    O     O_R   0.589280 0.551530 0.640800 -0.608302
C2    C     C_R   0.614598 0.497052 0.617997 0.868069
Cu1   Cu    Cu3+1 0.500390 0.438990 0.439360 0.991023
Cu2   Cu    Cu3+1 0.499610 0.561010 0.560640 1.027224
O5    O     O_R   0.589340 0.537510 0.448780 -0.583727
O6    O     O_R   0.588690 0.640550 0.551200 -0.595469
O7    O     O_R   0.410720 0.448470 0.359200 -0.584648
O8    O     O_R   0.410070 0.551510 0.461610 -0.551307
C3    C     C_R   0.615687 0.617507 0.498181 0.809759
C4    C     C_R   0.380728 0.497864 0.380986 0.780353
H1    H     H_    0.509912 0.216255 0.621667 0.206333
C5    C     C_R   0.777671 0.652308 0.742101 -0.355798
C6    C     C_R   0.849576 0.733296 0.811081 0.493115
C7    C     C_R   0.906641 0.737246 0.883647 0.497139
C8    C     C_R   0.890531 0.660340 0.886505 -0.355412
C9    C     C_R   0.821111 0.578407 0.815317 0.023734
C10   C     C_R   0.759400 0.575429 0.746417 0.017051
C11   C     C_R   0.811627 0.499729 0.811655 -0.056528
C12   C     C_R   0.735441 0.419353 0.744966 -0.121267
C13   C     C_R   0.665382 0.418421 0.686631 -0.060745
C14   C     C_R   0.680350 0.496441 0.684208 -0.086522
C15   C     C_R   0.726824 0.338627 0.735211 0.267790
C16   C     C_R   0.644686 0.269706 0.702013 0.248739
C17   C     C_R   0.573642 0.271126 0.652062 -0.359423
C18   C     C_R   0.584330 0.338514 0.633058 0.432116
H2    H     H_    0.736935 0.649779 0.684616 0.163889
H3    H     H_    0.931213 0.665733 0.945900 0.173115
C19   C     C_2   0.257481 0.250136 0.574177 -0.135753
C20   C     C_2   0.180681 0.189556 0.502829 -0.292777
H4    H     H_    0.274053 0.249088 0.634516 0.174137
H5    H     H_    0.160304 0.195825 0.445359 0.168396
C21   C     C_2   0.318368 0.323078 0.574304 -0.112777
C22   C     C_2   0.322158 0.312875 0.502487 -0.243495
H6    H     H_    0.363427 0.384113 0.635039 0.169875
H7    H     H_    0.284053 0.249317 0.444471 0.133735
C23   C     C_2   0.167403 0.466933 0.230351 -0.239301
C24   C     C_2   0.182218 0.523991 0.201995 0.208290
H8    H     H_    0.104300 0.409285 0.195632 0.162001
C25   C     C_2   0.236010 0.475960 0.305228 0.301326
C26   C     C_2   0.312500 0.492213 0.309608 0.262412
C27   C     C_2   0.744952 0.819276 0.496121 -0.160573
C28   C     C_2   0.819833 0.823264 0.510172 -0.265413
H9    H     H_    0.729739 0.863905 0.479744 0.174651
H10   H     H_    0.839374 0.785579 0.535945 0.178515
C29   C     C_2   0.684298 0.758509 0.508298 -0.167203
C30   C     C_2   0.678046 0.681768 0.492294 -0.314143
H11   H     H_    0.641173 0.774894 0.525533 0.180196
H12   H     H_    0.714434 0.661439 0.465882 0.180530
O9    O     O_R   0.945860 0.359480 0.908360 -0.547328
O10   O     O_R   0.048900 0.462510 0.908320 -0.533996
C31   C     C_R   0.994839 0.382222 0.877340 0.966348
O11   O     O_R   0.855710 0.448510 0.907250 -0.575731
O12   O     O_R   0.958760 0.551540 0.907200 -0.569353
C32   C     C_R   0.878779 0.501080 0.879625 0.847843
Cu3   Cu    Cu3+1 0.935830 0.439030 0.996840 1.063576
Cu4   Cu    Cu3+1 0.057850 0.561040 0.996790 1.072696
O13   O     O_R   0.944780 0.537560 0.085320 -0.608512
O14   O     O_R   0.047820 0.640590 0.085270 -0.578995
O15   O     O_R   0.034920 0.448530 0.086440 -0.603656
O16   O     O_R   0.137970 0.551560 0.086390 -0.538924
C33   C     C_R   0.002010 0.617614 0.118697 0.716455
C34   C     C_R   0.115093 0.505376 0.120032 0.717204
O17   O     O_R   0.051300 0.089020 0.640330 -0.597383
O18   O     O_R   0.947570 0.089010 0.536620 -0.542674
C35   C     C_R   0.002170 0.119631 0.617357 0.895584
O19   O     O_R   0.140880 0.089030 0.551840 -0.584821
O20   O     O_R   0.037150 0.089020 0.448130 -0.577300
C36   C     C_R   0.117048 0.119184 0.501380 0.825623
Cu5   Cu    Cu3+1 0.061410 0.000010 0.561410 1.038153
Cu6   Cu    Cu3+1 0.938590 0.999990 0.438590 1.023196
O21   O     O_R   0.052430 0.910990 0.463380 -0.562222
O22   O     O_R   0.948700 0.910980 0.359670 -0.573919
O23   O     O_R   0.962850 0.910980 0.551870 -0.554292
O24   O     O_R   0.859120 0.910970 0.448160 -0.586969
C37   C     C_R   0.999021 0.881972 0.382469 0.767592
C38   C     C_R   0.883080 0.884807 0.502625 0.879390
C39   C     C_2   0.993063 0.251056 0.672763 0.437061
C40   C     C_2   0.011133 0.192445 0.685923 -0.425817
H13   H     H_    0.039092 0.201512 0.750898 0.121847
C41   C     C_2   0.011309 0.327170 0.747972 0.253649
C42   C     C_2   0.984774 0.314261 0.802721 -0.411738
H14   H     H_    0.948230 0.248294 0.788447 0.153877
C43   C     C_2   0.981568 0.738511 0.309084 0.259862
C44   C     C_2   0.993244 0.814042 0.311350 0.273357
C45   C     C_2   0.969314 0.669001 0.232958 -0.233764
C46   C     C_2   0.020969 0.684903 0.199812 0.354329
H15   H     H_    0.916235 0.603919 0.203719 0.158075
N1    N     N_R   0.260834 0.607439 0.254772 0.120813
O25   O     O_R   0.296021 0.644009 0.219013 -0.339603
O26   O     O_R   0.292638 0.651009 0.338179 -0.365449
N2    N     N_R   0.216004 0.460531 0.367486 0.115530
O27   O     O_R   0.161096 0.478732 0.382267 -0.285576
O28   O     O_R   0.239372 0.414567 0.396963 -0.384924
O29   O     O_3   0.319471 0.487533 0.237263 -0.587804
C47   C     C_3   0.403185 0.547937 0.261797 -0.181436
H16   H     H_    0.447270 0.522502 0.275986 0.157929
H17   H     H_    0.429668 0.612393 0.318031 0.166797
H18   H     H_    0.400018 0.557763 0.206425 0.208230
O30   O     O_3   0.970061 0.246702 0.592837 -0.539215
C48   C     C_3   0.895498 0.252886 0.563703 -0.139042
H19   H     H_    0.910890 0.320685 0.598985 0.216478
H20   H     H_    0.844335 0.208656 0.569188 0.154825
H21   H     H_    0.869200 0.233178 0.494049 0.175474
N3    N     N_R   0.055175 0.411521 0.758256 0.156108
O31   O     O_R   0.020253 0.459533 0.761483 -0.290964
O32   O     O_R   0.119341 0.431281 0.744429 -0.308381
N4    N     N_R   0.972805 0.719846 0.374528 0.107047
O33   O     O_R   0.996963 0.668163 0.391176 -0.308387
O34   O     O_R   0.926590 0.739961 0.404852 -0.374440
O35   O     O_3   0.980841 0.818938 0.236410 -0.562481
C49   C     C_3   0.040853 0.901552 0.256955 -0.197461
H22   H     H_    0.106784 0.926677 0.309402 0.145237
H23   H     H_    0.019221 0.948542 0.274845 0.159052
H24   H     H_    0.044687 0.895871 0.198313 0.199151
O36   O     O_3   0.094504 0.765461 0.242762 -0.576052
C50   C     C_3   0.165006 0.762186 0.294112 -0.232198
H25   H     H_    0.177366 0.716219 0.253173 0.191282
H26   H     H_    0.155373 0.744608 0.342125 0.185445
H27   H     H_    0.223234 0.827524 0.331049 0.198008
O37   O     O_3   0.870015 0.809781 0.808316 -0.543074
C51   C     C_3   0.796582 0.816309 0.772085 -0.240578
H28   H     H_    0.750421 0.792431 0.793459 0.155217
H29   H     H_    0.764595 0.781938 0.700183 0.168192
H30   H     H_    0.817687 0.885656 0.794351 0.199843
O38   O     O_3   0.973808 0.818729 0.953059 -0.545797
C52   C     C_3   0.051063 0.818708 0.990895 -0.250629
H31   H     H_    0.061072 0.778585 0.941572 0.165355
H32   H     H_    0.053213 0.797348 0.039254 0.171542
H33   H     H_    0.105635 0.886155 0.026401 0.193526
N5    N     N_R   0.795408 0.321936 0.738170 0.115824
O39   O     O_R   0.851403 0.367774 0.724038 -0.385793
O40   O     O_R   0.789967 0.249658 0.731710 -0.326158
N6    N     N_R   0.632852 0.197546 0.715994 0.175376
O41   O     O_R   0.682466 0.210708 0.791461 -0.297168
O42   O     O_R   0.565251 0.121098 0.658670 -0.334747
O43   O     O_3   0.515442 0.326326 0.564565 -0.584429
C53   C     C_3   0.481718 0.247771 0.488255 -0.242840
H34   H     H_    0.429039 0.193687 0.482620 0.156973
H35   H     H_    0.531415 0.231209 0.484883 0.154445
H36   H     H_    0.454260 0.253481 0.430257 0.198179

loop_
_geom_bond_atom_site_label_1
_geom_bond_atom_site_label_2
_geom_bond_distance
_ccdc_geom_bond_type
C43   C44   1.357065 D    
C5    C10   1.416935 A    
Cu5   Cu6   2.694570 S    
O9    C31   1.294855 A    
N2    O27   1.301082 A    
O22   C37   1.288756 A    
C8    H3    1.077546 S    
C48   H20   1.114687 S    
O35   C49   1.413972 S    
O9    Cu3   1.968808 S    
Cu1   Cu2   2.680842 S    
O10   Cu4   1.964535 S    
C42   H14   1.087385 S    
Cu1   O7    1.981180 S    
N6    O42   1.301506 A    
C15   C16   1.404487 A    
C16   N6    1.436863 S    
Cu6   O22   1.971020 S    
C19   C21   1.474031 S    
C17   C18   1.407524 A    
C53   H35   1.116127 S    
O4    C2    1.297638 A    
O7    C4    1.286812 A    
O24   C38   1.301450 A    
C2    C14   1.454401 S    
C43   N4    1.441085 S    
C5    H2    1.078514 S    
C49   H22   1.114574 S    
O29   C47   1.413766 S    
N3    O31   1.301015 A    
Cu4   O14   1.968806 S    
C7    C8    1.408851 A    
C12   C15   1.424867 A    
O5    C3    1.287872 A    
C13   C18   1.435198 A    
C48   H19   1.109832 S    
C35   C40   1.460135 S    
C20   C36   1.454287 S    
C20   H5    1.086340 S    
C26   O29   1.397387 S    
C23   C25   1.482615 S    
N4    O33   1.301061 A    
N3    O32   1.300860 A    
O18   C35   1.299908 A    
C29   H11   1.086233 S    
C51   H30   1.109199 S    
C30   H12   1.086188 S    
C12   C13   1.412891 A    
O17   Cu5   1.971021 S    
C45   H15   1.086263 S    
C50   H27   1.109498 S    
C23   H8    1.086310 S    
O15   C34   1.299911 A    
Cu3   Cu4   2.672842 S    
Cu5   O21   1.962663 S    
O3    Cu1   1.972486 S    
C37   C44   1.465486 S    
C50   H26   1.114470 S    
C39   C40   1.344717 D    
C27   H9    1.086256 S    
O43   C53   1.421960 S    
C33   C46   1.461869 S    
C28   H10   1.086265 S    
Cu3   O13   1.964633 S    
C13   C14   1.428704 A    
O3    C2    1.284974 A    
C53   H36   1.105146 S    
C5    C6    1.409359 A    
O12   Cu4   1.977992 S    
N5    O40   1.300717 A    
C49   H23   1.110148 S    
C27   C28   1.340296 D    
O1    C1    1.288782 A    
C19   H4    1.086266 S    
C31   C42   1.464282 S    
C52   H32   1.110841 S    
C25   C26   1.359666 D    
C15   N5    1.443423 S    
O20   Cu6   1.962285 S    
C6    O37   1.392641 S    
C25   N2    1.441333 S    
C47   H16   1.110181 S    
C27   C29   1.475467 S    
Cu2   O8    1.972483 S    
C49   H24   1.109468 S    
C24   N1    1.446385 S    
O19   Cu5   1.959798 S    
N1    O26   1.301848 A    
C6    C7    1.397264 A    
N4    O34   1.301268 A    
C41   C42   1.353249 D    
N5    O39   1.300600 A    
C23   C24   1.347957 D    
C47   H17   1.114382 S    
C9    C11   1.416531 A    
C40   H13   1.087312 S    
C43   C45   1.477101 S    
C51   H28   1.114485 S    
C52   H33   1.109219 S    
H1    C17   1.082611 S    
C16   C17   1.387659 A    
C39   C41   1.483993 S    
C50   H25   1.113262 S    
C4    C26   1.471721 S    
O38   C52   1.412544 S    
C39   O30   1.390105 S    
O23   C38   1.292974 A    
Cu1   O5    1.958772 S    
C18   O43   1.385255 S    
C10   C14   1.419377 A    
O10   C31   1.289988 A    
C21   C22   1.339350 D    
O14   C33   1.287803 A    
O1    Cu1   1.963105 S    
O2    Cu2   1.958772 S    
O8    C4    1.299638 A    
O6    C3    1.297838 A    
C11   C32   1.467417 S    
O4    Cu2   1.981182 S    
O36   C50   1.410329 S    
N2    O28   1.301029 A    
C24   C34   1.473256 S    
N6    O41   1.301540 A    
Cu3   O15   1.978088 S    
O11   Cu3   1.975407 S    
Cu4   O16   1.975525 S    
C19   C20   1.339857 D    
C8    C9    1.415411 A    
C21   H6    1.086296 S    
O2    C1    1.296677 A    
O20   C36   1.293117 A    
C22   H7    1.086297 S    
C53   H34   1.110553 S    
C46   O36   1.387089 S    
C28   C38   1.454703 S    
O12   C32   1.292899 A    
N1    O25   1.301238 A    
C41   N3    1.440056 S    
O11   C32   1.289487 A    
C52   H31   1.114581 S    
C44   O35   1.396852 S    
C3    C30   1.454068 S    
O13   C33   1.293967 A    
C47   H18   1.109156 S    
C9    C10   1.403509 A    
C1    C22   1.453578 S    
Cu2   O6    1.963104 S    
C29   C30   1.339612 D    
Cu6   O24   1.959797 S    
O30   C48   1.410895 S    
C51   H29   1.110437 S    
Cu5   O23   1.962285 S    
C11   C12   1.421969 A    
C7    O38   1.392096 S    
O19   C36   1.301063 A    
O17   C35   1.296169 A    
C45   C46   1.344444 D    
O21   C37   1.303501 A    
C48   H21   1.109166 S    
O16   C34   1.288269 A    
O37   C51   1.412437 S    
O18   Cu6   1.962662 S    
