data_mof_unit_67327.cif
_audit_creation_date              2012-12-11T18:51:49-0500
_audit_creation_method            fapswitch 2.2
_symmetry_space_group_name_H-M    P1
_symmetry_Int_Tables_number       1
_space_group_crystal_system       triclinic
_cell_length_a                    8.628774
_cell_length_b                    15.413886
_cell_length_c                    15.310889
_cell_angle_alpha                 101.410928
_cell_angle_beta                  97.840783
_cell_angle_gamma                 99.86015
_cell_volume                      1935.83654449

loop_
_atom_site_label
_atom_site_type_symbol
_atom_type_description
_atom_site_fract_x
_atom_site_fract_y
_atom_site_fract_z
_atom_type_partial_charge
Ba1   Ba    Ba6+2 0.844890 0.542420 0.457460 1.623734
Ba2   Ba    Ba6+2 0.344950 0.457650 0.542550 1.671464
C1    C     C_3   0.718899 0.832739 0.151981 0.100075
C2    C     C_R   0.891971 0.448580 0.919296 0.019684
C3    C     C_R   0.036807 0.458659 0.104851 -0.110920
C4    C     C_3   0.155905 0.769097 0.243921 0.457272
C5    C     C_R   0.886153 0.403034 0.065046 0.113048
C6    C     C_R   0.807810 0.405842 0.978846 0.169560
C7    C     C_R   0.106515 0.466447 0.198698 0.029755
C8    C     C_R   0.271034 0.503651 0.224951 -0.143159
C9    C     C_R   0.080510 0.527389 0.798606 0.071430
C10   C     C_R   0.140026 0.540358 0.894928 -0.029232
C11   C     C_R   0.052711 0.495300 0.952781 0.037870
C12   C     C_3   0.624058 0.758608 0.192232 1.574421
C13   C     C_R   0.285728 0.597194 0.937263 -0.165919
C14   C     C_R   0.373360 0.577835 0.011879 0.052462
C15   C     C_R   0.291830 0.541176 0.076124 0.012504
C16   C     C_3   0.243604 0.840204 0.200327 -0.298937
C17   C     C_R   0.125757 0.500663 0.045848 0.002594
C18   C     C_R   0.363903 0.544698 0.167977 0.101656
C19   C     C_R   0.925726 0.473418 0.767412 -0.243878
C20   C     C_R   0.329731 0.827065 0.473356 -0.069565
C21   C     C_R   0.589194 0.792923 0.526753 0.187829
C22   C     C_R   0.762590 0.229841 0.532881 -0.254104
C23   C     C_3   0.378767 0.239702 0.236243 0.486381
C24   C     C_R   0.863951 0.173703 0.559392 -0.032027
C25   C     C_R   0.803665 0.081004 0.546929 -0.081124
C26   C     C_R   0.639896 0.042920 0.513998 0.082988
C27   C     C_R   0.540516 0.100274 0.481261 -0.072189
C28   C     C_3   0.303148 0.746552 0.692767 0.350507
C29   C     C_R   0.571157 0.949193 0.510702 0.087746
C30   C     C_R   0.401218 0.920298 0.487472 -0.132953
C31   C     C_R   0.308801 0.984488 0.471249 -0.122888
C32   C     C_R   0.378512 0.062021 0.447280 -0.055593
C33   C     C_R   0.662486 0.884418 0.533669 -0.188073
C34   C     C_3   0.299584 0.150977 0.162289 0.054753
C35   C     C_R   0.426380 0.765555 0.492340 -0.136466
C36   C     C_R   0.603793 0.194779 0.488000 0.071320
C37   C     C_3   0.357776 0.849676 0.740386 -0.063730
C38   C     C_3   0.902931 0.250054 0.316647 0.498275
C39   C     C_3   0.821943 0.155410 0.257757 -0.097919
C40   C     C_3   0.787329 0.707173 0.758131 0.311806
C41   C     C_3   0.911603 0.773792 0.834056 -0.161093
C42   C     C_2   0.617500 0.798987 0.289826 0.453355
C43   C     C_2   0.250998 0.903156 0.696547 0.328667
C44   C     C_2   0.349554 0.870903 0.841084 0.709249
C45   C     C_3   0.097704 0.239623 0.780251 0.582794
C46   C     C_2   0.772132 0.085984 0.309598 0.461617
C47   C     C_2   0.657124 0.666628 0.801548 0.475964
C48   C     C_2   0.865869 0.863517 0.864739 0.630411
C49   C     C_2   0.419753 0.109607 0.115185 0.534848
C50   C     C_2   0.004529 0.214517 0.922005 0.220500
C51   C     C_2   0.840507 0.317198 0.092140 0.404411
C52   C     C_2   0.544891 0.588712 0.007405 0.686971
C53   C     C_2   0.308880 0.694200 0.939682 0.681737
C54   C     C_2   0.147102 0.981319 0.493220 0.635504
C55   C     C_2   0.302862 0.071791 0.359380 0.613398
C56   C     C_3   0.091039 0.178676 0.849456 0.145711
C57   C     C_2   0.137091 0.895984 0.162265 0.521871
C58   C     C_3   0.655520 0.230054 0.759317 0.280971
C59   C     C_3   0.586138 0.127441 0.732296 0.114074
C60   C     C_R   0.826642 0.441225 0.825954 -0.026328
H1    H     H_    0.717168 0.161935 0.210783 0.114127
H2    H     H_    0.026070 0.109686 0.813562 0.039272
H3    H     H_    0.749869 0.244872 0.819851 -0.003983
H4    H     H_    0.710524 0.248261 0.702297 -0.036521
H5    H     H_    0.521370 0.110817 0.661438 0.095046
H6    H     H_    0.877334 0.459974 0.696011 0.046006
H7    H     H_    0.788892 0.903577 0.559658 0.123206
H8    H     H_    0.247166 0.734352 0.272313 -0.032609
H9    H     H_    0.811012 0.301280 0.543260 0.051659
H10   H     H_    0.885328 0.041449 0.569877 0.094795
H11   H     H_    0.298100 0.805975 0.145338 0.314046
H12   H     H_    0.905630 0.129160 0.215399 0.071128
H13   H     H_    0.406619 0.718273 0.673234 0.055643
H14   H     H_    0.214575 0.736896 0.629996 -0.027502
H15   H     H_    0.505410 0.791906 0.313952 -0.037213
H16   H     H_    0.525491 0.898870 0.668943 0.151696
H17   H     H_    0.579167 0.937609 0.779724 0.235689
H18   H     H_    0.303101 0.959977 0.671150 0.021155
H19   H     H_    0.242058 0.885842 0.864184 0.019533
H20   H     H_    0.720765 0.312578 0.318445 0.220097
H21   H     H_    0.850948 0.347646 0.414180 0.161330
H22   H     H_    0.074789 0.305033 0.427871 0.172043
H23   H     H_    0.826022 0.869196 0.202751 0.102802
H24   H     H_    0.996414 0.198188 0.418089 0.111412
H25   H     H_    0.860063 0.059068 0.347180 0.094098
H26   H     H_    0.942071 0.663904 0.678376 0.213362
H27   H     H_    0.776708 0.583953 0.671517 0.155538
H28   H     H_    0.653345 0.599997 0.814727 -0.009303
H29   H     H_    0.764391 0.867335 0.898686 0.083420
H30   H     H_    0.576221 0.920853 0.191776 0.219074
H31   H     H_    0.525354 0.867502 0.083134 0.293200
H32   H     H_    0.203150 0.308060 0.216093 0.133551
H33   H     H_    0.300305 0.336281 0.320630 0.195039
H34   H     H_    0.024965 0.785487 0.808650 0.150534
H35   H     H_    0.545608 0.354994 0.244205 0.188862
H36   H     H_    0.411805 0.328861 0.149848 0.142582
H37   H     H_    0.072456 0.167847 0.118983 0.142246
H38   H     H_    0.215113 0.223627 0.073560 0.185097
H39   H     H_    0.489187 0.146064 0.075070 0.059796
H40   H     H_    0.686959 0.783554 0.012962 0.186159
H41   H     H_    0.820266 0.738675 0.072359 0.217991
H42   H     H_    0.195232 0.369897 0.776200 0.195953
H43   H     H_    0.307999 0.325444 0.846468 0.199158
H44   H     H_    0.238859 0.117520 0.922953 0.207356
H45   H     H_    0.929102 0.743922 0.893998 0.071335
H46   H     H_    0.308064 0.229796 0.938800 0.200519
H47   H     H_    0.899470 0.173555 0.935829 0.067596
H48   H     H_    0.752321 0.076187 0.804445 0.193270
H49   H     H_    0.809410 0.106964 0.713315 0.127710
H50   H     H_    0.995162 0.648894 0.205369 0.203111
H51   H     H_    0.096322 0.673165 0.124589 0.166836
H52   H     H_    0.364690 0.112832 0.764597 0.243952
H53   H     H_    0.515588 0.134111 0.856294 0.203755
H54   H     H_    0.928345 0.275935 0.099746 0.077908
H55   H     H_    0.641079 0.288133 0.942813 0.176154
H56   H     H_    0.501478 0.736198 0.152214 -1.901214
H57   H     H_    0.576776 0.376111 0.999499 0.244489
H58   H     H_    0.599398 0.637031 0.972963 -0.070648
H59   H     H_    0.426060 0.736633 0.961038 0.071963
H60   H     H_    0.378718 0.538343 0.359237 0.216033
H61   H     H_    0.452483 0.462377 0.295095 0.166598
H62   H     H_    0.323677 0.658451 0.398630 0.144776
H63   H     H_    0.269782 0.655437 0.502642 0.185402
H64   H     H_    0.123203 0.969491 0.557576 -0.013504
H65   H     H_    0.356289 0.051111 0.301306 0.036926
H66   H     H_    0.083438 0.940938 0.207079 0.054482
H67   H     H_    0.238049 0.100914 0.194995 0.099132
H68   H     H_    0.340427 0.886452 0.252325 0.045396
H69   H     H_    0.974233 0.246506 0.757160 -0.197003
N1    N     N_3   0.523729 0.879857 0.730082 -0.479032
N2    N     N_3   0.191238 0.330044 0.823635 -0.430159
N3    N     N_3   0.250266 0.171264 0.890343 -0.500664
N4    N     N_3   0.712429 0.075665 0.736799 -0.495318
N5    N     N_3   0.038516 0.701359 0.175487 -0.473246
N6    N     N_3   0.474224 0.098985 0.789068 -0.500404
N7    N     N_3   0.645204 0.357308 0.950437 -0.443670
N8    N     N_3   0.348341 0.483986 0.305345 -0.504454
N9    N     N_3   0.362824 0.671562 0.468035 -0.475540
N10   N     N_3   0.792338 0.290202 0.364750 -0.513088
N11   N     N_3   0.037071 0.243572 0.380619 -0.326844
N12   N     N_3   0.862170 0.636214 0.715310 -0.549101
N13   N     N_3   0.623276 0.899061 0.134265 -0.414640
N14   N     N_3   0.252260 0.280987 0.267963 -0.425542
N15   N     N_3   0.479083 0.300938 0.194850 -0.467846
N16   N     N_3   0.177113 0.163741 0.092894 -0.491386
N17   N     N_3   0.777172 0.797266 0.069256 -0.450217
O1    O     O_2   0.826410 0.445300 0.275350 -0.454450
O2    O     O_2   0.183624 0.181683 0.540191 -0.441012
O3    O     O_3   0.164813 0.199396 0.707589 -0.602529
O4    O     O_3   0.098900 0.448430 0.388910 -0.489830
O5    O     O_3   0.590780 0.611410 0.551120 -0.492073
O6    O     O_2   0.326530 0.274990 0.446290 -0.428486
O7    O     O_3   0.476523 0.215303 0.306931 -0.633261
O8    O     O_2   0.497328 0.447904 0.819872 -0.483650
O9    O     O_3   0.537043 0.279694 0.778795 -0.557325
O10   O     O_3   0.628630 0.613330 0.338230 -0.503308
O11   O     O_2   0.664844 0.516881 0.188062 -0.428662
O12   O     O_3   0.727488 0.757139 0.698156 -0.598414
O13   O     O_3   0.953692 0.299909 0.255329 -0.636128
O14   O     O_3   0.698750 0.683900 0.187311 -0.608275
O15   O     O_2   0.863180 0.725040 0.553770 -0.437241
O16   O     O_3   0.060890 0.661420 0.386090 -0.496638
O17   O     O_2   0.992868 0.812804 0.463614 -0.389742
O18   O     O_2   0.739363 0.837215 0.343359 -0.595193
O19   O     O_2   0.106055 0.884297 0.690899 -0.553914
O20   O     O_2   0.466045 0.876090 0.898338 -0.579201
O21   O     O_2   0.631605 0.056310 0.306845 -0.616439
O22   O     O_2   0.562701 0.711000 0.828937 -0.613989
O23   O     O_3   0.077207 0.812555 0.309512 -0.570326
O24   O     O_2   0.943743 0.932771 0.852795 -0.561522
O25   O     O_2   0.435976 0.033365 0.118726 -0.549432
O26   O     O_2   0.056898 0.290497 0.968003 -0.616917
O27   O     O_2   0.705388 0.289481 0.102330 -0.594847
O28   O     O_2   0.623019 0.536203 0.029608 -0.613595
O29   O     O_2   0.195033 0.729863 0.928713 -0.606657
O30   O     O_2   0.036683 0.989228 0.438668 -0.537172
O31   O     O_2   0.176680 0.096778 0.349574 -0.578987
O32   O     O_2   0.114079 0.893309 0.081223 -0.515512
O33   O     O_2   0.363300 0.554730 0.724710 -0.464866
O34   O     O_3   0.090820 0.551650 0.611100 -0.520065
O35   O     O_3   0.561090 0.386750 0.661790 -0.465581
O36   O     O_3   0.233047 0.699479 0.751041 -0.626554
O37   O     O_3   0.598940 0.388670 0.448890 -0.501272
O38   O     O_3   0.128820 0.338650 0.613920 -0.494480
P1    P     P_3+3 0.996530 0.418490 0.288400 0.997401
P2    P     P_3+3 0.693090 0.712100 0.580610 1.050009
P3    P     P_3+3 0.118768 0.778795 0.411436 1.013356
P4    P     P_3+3 0.193180 0.581580 0.711620 0.996035
P5    P     P_3+3 0.080512 0.222322 0.605684 0.968745
P6    P     P_3+3 0.581087 0.594592 0.219602 1.090018
P7    P     P_3+3 0.499188 0.270494 0.424543 0.997926
P8    P     P_3+3 0.610309 0.392108 0.775163 0.988563

loop_
_geom_bond_atom_site_label_1
_geom_bond_atom_site_label_2
_ccdc_geom_bond_type
C53   H59   S    
C38   N11   S    
C23   O7    S    
C39   H1    S    
H35   N15   S    
H55   N7    S    
H33   N14   S    
C47   H28   S    
C2    C6    A    
C34   C49   S    
O35   P8    S    
O14   P6    S    
C5    C6    A    
C54   O30   D    
C56   N3    S    
H46   N3    S    
C59   N4    S    
C24   C25   A    
C20   C30   A    
C12   C42   S    
Ba1   O10   S    
C22   C24   A    
H60   N8    S    
C52   H58   S    
O4    P1    S    
C47   O22   D    
C1    H23   S    
C37   N1    S    
H38   N16   S    
C13   C14   A    
H61   N8    S    
C2    C11   A    
C15   C18   A    
O23   P3    S    
Ba1   O4    S    
C6    N7    S    
Ba1   Ba2   S    
Ba2   O34   S    
H52   N6    S    
C52   O28   D    
O38   P5    S    
C49   O25   D    
H16   N1    S    
C4    N5    S    
H40   N17   S    
O2    P5    D    
O6    P7    D    
H53   N6    S    
Ba1   O16   S    
C8    C18   A    
C14   C15   A    
C12   H56   S    
C35   N9    S    
C27   C36   A    
C32   C55   S    
O17   P3    D    
Ba1   O1    S    
C23   N15   S    
C54   H64   S    
C7    C8    A    
H26   N12   S    
C51   H54   S    
C37   C43   S    
H32   N14   S    
O3    P5    S    
C39   H12   S    
C58   H4    S    
C1    N17   S    
Ba2   O6    S    
C38   N10   S    
C45   N2    S    
Ba2   O4    S    
C53   O29   D    
H48   N4    S    
H50   N5    S    
H20   N10   S    
H41   N17   S    
C41   H34   S    
C3    C5    A    
C4    O23   S    
Ba1   P1    S    
H63   N9    S    
C56   H2    S    
C4    C16   S    
H42   N2    S    
C11   C17   A    
O9    P8    S    
H24   N11   S    
C59   N6    S    
C58   O9    S    
C48   O24   D    
H21   N10   S    
C42   O18   D    
H36   N15   S    
C57   H66   S    
C21   C35   A    
C20   C35   A    
C27   C32   A    
H51   N5    S    
C45   H69   S    
O15   P2    D    
Ba2   O33   S    
C13   C53   S    
C12   O14   S    
O8    P8    D    
Ba2   O38   S    
C3    C7    A    
O7    P7    S    
O10   P6    S    
C44   H19   S    
C28   H14   S    
O33   P4    D    
C59   H5    S    
C34   N16   S    
C22   C36   A    
C29   C30   A    
C10   C13   A    
H22   N11   S    
C9    C10   A    
C31   C32   A    
C46   H25   S    
C41   H45   S    
C20   P3    S    
Ba1   O5    S    
H31   N13   S    
Ba1   O15   S    
C19   C60   A    
C1    C12   S    
C50   C56   S    
C37   C44   S    
C38   C39   S    
O5    P2    S    
C45   O3    S    
C58   H3    S    
O1    P1    D    
Ba2   O5    S    
C21   C33   A    
C43   O19   D    
C19   H6    S    
O36   P4    S    
C16   H68   S    
C49   H39   S    
C40   C41   S    
C60   P8    S    
O16   P3    S    
C26   C27   A    
C50   O26   D    
C25   C26   A    
C51   O27   D    
H43   N2    S    
Ba1   P2    S    
C4    H8    S    
H37   N16   S    
C57   O32   D    
C23   C34   S    
H57   N7    S    
C28   O36   S    
O11   P6    D    
H62   N9    S    
C26   C29   A    
C40   O12   S    
C1    N13   S    
Ba2   P4    S    
O37   P7    S    
C7    P1    S    
C55   H65   S    
C55   O31   D    
Ba1   O34   S    
C41   C48   S    
C3    C17   A    
C24   P5    S    
Ba1   O37   S    
C16   H11   S    
C42   H15   S    
C18   P6    S    
C36   P7    S    
C2    C60   A    
C30   C31   A    
C9    P4    S    
C44   O20   D    
Ba2   O37   S    
C38   O13   S    
O13   P1    S    
H27   N12   S    
C34   H67   S    
C45   C56   S    
C28   H13   S    
H49   N4    S    
C21   P2    S    
C50   H47   S    
C31   C54   S    
H17   N1    S    
C15   C17   A    
C39   C46   S    
C9    C19   A    
C28   C37   S    
C43   H18   S    
C29   C33   A    
Ba2   O35   S    
H30   N13   S    
C14   C52   S    
C40   C47   S    
C46   O21   D    
C16   C57   S    
H44   N3    S    
C10   C11   A    
C33   H7    S    
C8    N8    S    
C40   N12   S    
C5    C51   S    
C58   C59   S    
C23   N14   S    
O34   P4    S    
C48   H29   S    
C25   H10   S    
C22   H9    S    
O12   P2    S    
