data_mof_unit_6407.cif
_audit_creation_date              2013-03-05T16:45:55-0500
_audit_creation_method            fapswitch 2.2
_symmetry_space_group_name_H-M    P1
_symmetry_Int_Tables_number       1
_space_group_crystal_system       triclinic
_cell_length_a                    9.945595
_cell_length_b                    10.685626
_cell_length_c                    16.774599
_cell_angle_alpha                 88.627384
_cell_angle_beta                  93.760713
_cell_angle_gamma                 91.063412
_cell_volume                      1778.11187788

loop_
_atom_site_label
_atom_site_type_symbol
_atom_site_description
_atom_site_fract_x
_atom_site_fract_y
_atom_site_fract_z
_atom_type_partial_charge
O1    O     O_R   0.614690 0.316790 0.499990 -0.627513
O2    O     O_R   0.385350 0.316760 0.500000 -0.610703
C1    C     C_R   0.499013 0.260583 0.498984 0.873658
O3    O     O_R   0.627460 0.498860 0.616130 -0.586275
O4    O     O_R   0.398120 0.498820 0.616130 -0.582205
C2    C     C_R   0.516757 0.498014 0.652651 0.880905
Zn1   Zn    Zn3+2 0.653130 0.500020 0.499990 1.047469
Zn2   Zn    Zn3+2 0.346870 0.499980 0.500010 1.043378
O5    O     O_R   0.614650 0.683240 0.500000 -0.544193
O6    O     O_R   0.385310 0.683210 0.500010 -0.619379
O7    O     O_R   0.601880 0.501180 0.383870 -0.612528
O8    O     O_R   0.372540 0.501140 0.383870 -0.591684
C3    C     C_R   0.501060 0.739728 0.499608 0.909769
C4    C     C_R   0.482521 0.500246 0.346452 0.922725
C5    C     C_R   0.524469 0.503470 0.738006 0.007709
C6    C     C_R   0.462410 0.602095 0.773172 -0.043993
C7    C     C_R   0.459468 0.604500 0.855284 -0.059576
C8    C     C_R   0.518020 0.506606 0.902692 0.300203
C9    C     C_R   0.583245 0.409949 0.866927 -0.110676
C10   C     C_R   0.586268 0.407926 0.784358 -0.124213
C11   C     C_R   0.571878 0.595083 0.140459 -0.039970
C12   C     C_R   0.582181 0.562469 0.221234 -0.269549
C13   C     C_R   0.447897 0.574420 0.096712 0.208898
N1    N     N_2   0.515323 0.502759 0.986445 -0.156425
N2    N     N_2   0.440178 0.581294 0.013194 -0.142354
C14   C     C_R   0.470958 0.513250 0.259333 -0.180228
H1    H     H_    0.676650 0.578969 0.254919 0.228921
H2    H     H_    0.629664 0.335258 0.903158 0.168451
H3    H     H_    0.633798 0.331152 0.756610 0.146827
C15   C     C_R   0.347143 0.491613 0.214658 0.289855
C16   C     C_R   0.336499 0.525973 0.133907 -0.222748
H4    H     H_    0.410539 0.682014 0.881215 0.183294
H5    H     H_    0.243967 0.506409 0.098269 0.202888
H6    H     H_    0.415041 0.676318 0.736903 0.212179
C17   C     C_R   0.616443 0.066869 0.517933 0.062764
C18   C     C_R   0.499337 0.129076 0.492912 -0.052635
C19   C     C_R   0.388032 0.063910 0.458415 -0.144206
H7    H     H_    0.298874 0.112199 0.434485 0.198054
C20   C     C_R   0.390104 0.934455 0.458362 -0.170425
H8    H     H_    0.301926 0.883503 0.434336 0.171214
C21   C     C_R   0.503310 0.872058 0.493019 -0.050264
C22   C     C_R   0.619697 0.939004 0.518030 0.065745
C23   C     C_3   0.703157 0.936257 0.596760 0.142489
C24   C     C_3   0.698582 0.078689 0.595122 -0.561860
H9    H     H_    0.641231 0.119355 0.642745 0.227669
H10   H     H_    0.796747 0.126853 0.586137 0.203358
C25   C     C_R   0.074307 0.423020 0.550915 0.051929
N3    N     N_R   0.142860 0.499130 0.500540 -0.094566
C26   C     C_R   0.069362 0.564510 0.443680 -0.058886
H11   H     H_    0.122861 0.619531 0.400480 0.177285
C27   C     C_R   0.926191 0.565684 0.442655 0.032951
N4    N     N_R   0.857210 0.499170 0.500530 -0.106568
C28   C     C_R   0.933310 0.422231 0.550730 0.056028
C29   C     C_3   0.936169 0.406153 0.640318 -0.023153
C30   C     C_3   0.091314 0.408014 0.640340 0.058503
H12   H     H_    0.889968 0.315511 0.659128 0.107230
N5    N     N_R   0.631029 0.878411 0.662594 0.193892
O9    O     O_R   0.508937 0.911849 0.674805 -0.394728
O10   O     O_R   0.688303 0.794315 0.710146 -0.315719
C31   C     C_2   0.845295 0.890256 0.591705 1.030042
O11   O     O_2   0.927237 0.902837 0.648724 -0.493143
O12   O     O_R   0.884387 0.837347 0.521659 -0.783690
H13   H     H_    0.982495 0.812348 0.525774 0.352351
C32   C     C_2   0.860790 0.644141 0.377664 0.920117
O13   O     O_2   0.760567 0.703597 0.387729 -0.572825
O14   O     O_R   0.922618 0.658992 0.305401 -0.772143
H14   H     H_    0.876951 0.723943 0.268389 0.362701
N6    N     N_R   0.884444 0.512613 0.681768 0.280081
O15   O     O_R   0.876589 0.622929 0.647523 -0.287384
O16   O     O_R   0.868657 0.501814 0.757969 -0.321201
N7    N     N_R   0.153192 0.516819 0.681946 0.257673
O17   O     O_R   0.167574 0.513606 0.759647 -0.316110
O18   O     O_R   0.167782 0.624071 0.644663 -0.331029
C33   C     C_2   0.691748 0.648564 0.102588 0.945631
O19   O     O_2   0.677814 0.721477 0.045433 -0.578118
O20   O     O_R   0.821085 0.615399 0.132381 -0.756585
H15   H     H_    0.894509 0.657783 0.101760 0.369437
C34   C     C_2   0.157578 0.285266 0.665190 0.908688
O21   O     O_2   0.111143 0.186595 0.638811 -0.613008
O22   O     O_R   0.273451 0.284600 0.717125 -0.758161
H16   H     H_    0.309421 0.197295 0.728123 0.362958
N8    N     N_R   0.234690 0.428542 0.248593 0.221972
O23   O     O_R   0.112246 0.461418 0.226562 -0.324227
O24   O     O_R   0.253113 0.325274 0.290295 -0.383049

loop_
_geom_bond_atom_site_label_1
_geom_bond_atom_site_label_2
_geom_bond_distance
_ccdc_geom_bond_type
C21   C22   1.395561 A    
C17   C18   1.387721 A    
C3    C21   1.415576 S    
C20   C21   1.404850 A    
C28   C29   1.506972 S    
C24   H9    1.112627 S    
Zn1   O7    1.980651 S    
C19   H7    1.083529 S    
C33   O20   1.397899 S    
C8    N1    1.406528 S    
C18   C19   1.397087 A    
Zn1   N4    2.029312 S    
C15   C16   1.392716 A    
O7    C4    1.305908 A    
C34   O22   1.398361 S    
N5    O10   1.301274 A    
C29   N6    1.465864 S    
C5    C6    1.393280 A    
C31   O12   1.396898 S    
C8    C9    1.397546 A    
C26   H11   1.082806 S    
C17   C22   1.367267 A    
O5    C3    1.290271 A    
C6    H6    1.083646 S    
C2    C5    1.431362 S    
C9    C10   1.388041 A    
C6    C7    1.380488 A    
C26   C27   1.423174 A    
C16   H5    1.083833 S    
C25   C28   1.401971 A    
O14   H14   1.013667 S    
C11   C12   1.388653 A    
O3    Zn1   1.981110 S    
C24   H10   1.112525 S    
C10   H3    1.083841 S    
C5    C10   1.395425 A    
C29   H12   1.112062 S    
C33   O19   1.223212 D    
C27   N4    1.398059 A    
N1    N2    1.244770 D    
O3    C2    1.294393 A    
C20   H8    1.083689 S    
N7    O18   1.302694 A    
C30   C34   1.516032 S    
C34   O21   1.224017 D    
N6    O15   1.300284 A    
C11   C33   1.485966 S    
C4    C14   1.461842 S    
C31   O11   1.223493 D    
O1    C1    1.287208 A    
C13   C16   1.392373 A    
C15   N8    1.437451 S    
C23   C24   1.523035 S    
Zn2   N3    2.029454 S    
O12   H13   1.013977 S    
C17   C24   1.491679 S    
C25   N3    1.364703 A    
Zn2   O8    1.981110 S    
C7    C8    1.409895 A    
O20   H15   1.013895 S    
C9    H2    1.083110 S    
C23   C31   1.513507 S    
N6    O16   1.300169 A    
N3    C26   1.351934 A    
O8    C4    1.296635 A    
C14   C15   1.417083 A    
N8    O24   1.301659 A    
C12   H1    1.078017 S    
C11   C13   1.409499 A    
C22   C23   1.513037 S    
N4    C28   1.365343 A    
C25   C30   1.503568 S    
Zn1   O5    2.001838 S    
C29   C30   1.542744 S    
O1    Zn1   1.987927 S    
O2    Zn2   2.001839 S    
C27   C32   1.482527 S    
O22   H16   1.013819 S    
O6    C3    1.290374 A    
O4    Zn2   1.980651 S    
C32   O13   1.215081 D    
O2    C1    1.291022 A    
N7    O17   1.301567 A    
C19   C20   1.383873 A    
N5    O9    1.302433 A    
O4    C2    1.293395 A    
C1    C18   1.411429 S    
C13   N2    1.398270 S    
C23   N5    1.473437 S    
Zn2   O6    1.987927 S    
N8    O23   1.301377 A    
C12   C14   1.401329 A    
C7    H4    1.082620 S    
C30   N7    1.474302 S    
C32   O14   1.399154 S    
