data_mof_unit_66547.cif
_audit_creation_date              2013-03-05T15:54:32-0500
_audit_creation_method            fapswitch 2.2
_symmetry_space_group_name_H-M    P1
_symmetry_Int_Tables_number       1
_space_group_crystal_system       triclinic
_cell_length_a                    8.625618
_cell_length_b                    15.510692
_cell_length_c                    16.609914
_cell_angle_alpha                 99.056671
_cell_angle_beta                  94.281879
_cell_angle_gamma                 98.211103
_cell_volume                      2161.2728659

loop_
_atom_site_label
_atom_site_type_symbol
_atom_site_description
_atom_site_fract_x
_atom_site_fract_y
_atom_site_fract_z
_atom_type_partial_charge
P1    P     P_3+3 0.987090 0.708160 0.571840 0.644200
O1    O     O_2   0.162600 0.722340 0.548210 -0.314634
O2    O     O_3   0.890740 0.608910 0.545450 -0.324090
O3    O     O_3   0.394140 0.666560 0.400120 -0.316315
O4    O     O_2   0.311950 0.818637 0.457533 -0.344154
O5    O     O_3   0.023118 0.728559 0.678927 -0.494238
O6    O     O_3   0.385539 0.798894 0.308274 -0.558067
C1    C     C_3   0.528023 0.802758 0.189536 0.405457
H1    H     H_    0.618168 0.855175 0.226428 0.113392
P2    P     P_3+3 0.349530 0.428340 0.313070 0.594478
P3    P     P_3+3 0.929672 0.617406 0.251578 0.625016
O7    O     O_2   0.182040 0.455730 0.301660 -0.333753
O8    O     O_3   0.971540 0.620730 0.357730 -0.297500
O9    O     O_2   0.058914 0.573245 0.209027 -0.328608
O10   O     O_3   0.315642 0.313967 0.273043 -0.567708
O11   O     O_3   0.961313 0.724678 0.228062 -0.508937
C2    C     C_3   0.005974 0.786741 0.300379 0.880244
H2    H     H_    0.105352 0.768560 0.336562 0.133788
C3    C     C_3   0.060056 0.877629 0.278828 -0.666694
H3    H     H_    0.161631 0.875203 0.241876 0.283871
H4    H     H_    0.963197 0.899118 0.242787 0.264080
C4    C     C_3   0.696695 0.305584 0.276784 0.725212
H5    H     H_    0.643200 0.353792 0.317918 0.023753
C5    C     C_3   0.777758 0.350572 0.213361 -0.149606
H6    H     H_    0.825754 0.300786 0.170577 0.227172
H7    H     H_    0.691612 0.378903 0.176601 0.115870
Ba1   Ba    Ba6+2 0.163640 0.544330 0.462610 1.862341
C6    C     C_3   0.060975 0.655102 0.710605 0.210822
H8    H     H_    0.160007 0.631220 0.679875 0.088377
H9    H     H_    0.958603 0.601040 0.700560 0.093152
C7    C     C_3   0.111539 0.685109 0.803050 0.504247
H10   H     H_    0.181446 0.752169 0.811759 0.206215
C8    C     C_3   0.176704 0.263126 0.290838 0.482307
H11   H     H_    0.085246 0.305082 0.303302 0.058311
C9    C     C_3   0.107063 0.188802 0.212088 0.395050
P4    P     P_3+3 0.823210 0.291830 0.428100 0.585466
O12   O     O_2   0.647690 0.277600 0.451760 -0.280404
O13   O     O_3   0.919560 0.391080 0.454480 -0.353309
O14   O     O_3   0.416160 0.333430 0.599820 -0.358702
O15   O     O_3   0.806425 0.265468 0.319586 -0.610585
P5    P     P_3+3 0.875127 0.381062 0.747392 0.636476
O16   O     O_3   0.378690 0.546410 0.598120 -0.265390
O17   O     O_3   0.838760 0.379260 0.642200 -0.331085
O18   O     O_2   0.773366 0.448624 0.782045 -0.289529
O19   O     O_3   0.782589 0.281942 0.776380 -0.503300
Ba2   Ba    Ba6+2 0.646540 0.455660 0.537320 1.858662
P6    P     P_3+3 0.439133 0.781074 0.407840 0.579341
C10   C     C_3   0.452614 0.744934 0.248582 0.732441
H12   H     H_    0.546439 0.712357 0.275080 -0.042725
O20   O     O_3   0.431610 0.453580 0.401810 -0.305057
C11   C     C_3   0.566856 0.753710 0.782878 0.744266
C12   C     C_3   0.575641 0.764032 0.879479 0.733209
P7    P     P_3+3 0.455988 0.568933 0.704028 0.610880
O21   O     O_2   0.628260 0.544210 0.698310 -0.343160
O22   O     O_3   0.444680 0.684121 0.740311 -0.577769
H13   H     H_    0.096326 0.926793 0.335826 0.221134
C13   C     C_3   0.840110 0.203395 0.742722 0.890404
C14   C     C_3   0.804772 0.131541 0.799216 0.198448
H14   H     H_    0.675300 0.109800 0.791353 0.117611
P8    P     P_3+3 0.359756 0.221233 0.602685 0.608648
C15   C     C_3   0.381897 0.261804 0.764575 0.680468
H15   H     H_    0.274594 0.287271 0.744677 -0.038120
O23   O     O_2   0.472819 0.179989 0.546149 -0.219451
O24   O     O_3   0.421058 0.198520 0.700924 -0.541883
C16   C     C_3   0.353626 0.224538 0.846005 0.655679
C17   C     C_R   0.155061 0.170110 0.554817 0.256843
C18   C     C_R   0.094185 0.077050 0.544229 -0.117727
C19   C     C_R   0.953197 0.893176 0.539373 -0.184281
C20   C     C_R   0.101916 0.929269 0.581188 0.286478
C21   C     C_R   0.178033 0.013883 0.573968 0.237907
C22   C     C_R   0.880870 0.801342 0.536586 0.141277
C23   C     C_R   0.717100 0.781128 0.509815 0.152192
C24   C     C_R   0.918555 0.200175 0.475500 0.232555
C25   C     C_R   0.856940 0.105219 0.465422 -0.108915
C26   C     C_R   0.940477 0.045576 0.504269 0.053523
C27   C     C_R   0.716344 0.064953 0.417403 0.287088
C28   C     C_R   0.654250 0.975706 0.411624 0.445873
C29   C     C_R   0.722468 0.919609 0.456380 -0.121156
C30   C     C_R   0.872133 0.952707 0.500154 0.011672
C31   C     C_R   0.643827 0.832637 0.460380 0.178381
C32   C     C_R   0.061678 0.228651 0.525197 -0.259620
H16   H     H_    0.107697 0.298467 0.536139 0.172035
C33   C     C_R   0.621082 0.532857 0.268199 0.008038
C34   C     C_R   0.469641 0.485788 0.241385 0.079120
C35   C     C_R   0.420118 0.471527 0.156991 -0.295013
C36   C     C_R   0.521065 0.501899 0.100542 0.148689
C37   C     C_R   0.674906 0.544165 0.129034 -0.263335
C38   C     C_R   0.725926 0.560171 0.212653 0.147833
C39   C     C_R   0.396521 0.497652 0.851419 0.389670
C40   C     C_R   0.345100 0.495062 0.767405 0.002980
C41   C     C_R   0.287865 0.472180 0.906860 0.078416
N1    N     N_2   0.475899 0.488644 0.014594 0.058736
N2    N     N_2   0.331824 0.482504 0.993864 0.001270
C42   C     C_R   0.192731 0.452839 0.737084 0.151087
H17   H     H_    0.754161 0.565738 0.085997 0.233155
C43   C     C_R   0.081368 0.428204 0.791189 -0.000049
C44   C     C_R   0.127435 0.443086 0.877162 0.154913
H18   H     H_    0.304036 0.437262 0.134973 0.250920
O25   O     O_3   0.331686 0.680363 0.206219 -0.673618
H19   H     H_    0.381406 0.637007 0.171054 0.290114
O26   O     O_3   0.896798 0.416346 0.250832 -0.678627
H20   H     H_    0.956689 0.429547 0.204686 0.394425
O27   O     O_3   0.204956 0.628296 0.831338 -0.831303
H21   H     H_    0.210744 0.638039 0.892117 0.366563
N3    N     N_R   0.978828 0.687937 0.851739 0.249834
O28   O     O_R   0.995979 0.745887 0.918692 -0.236190
O29   O     O_R   0.878968 0.616195 0.847286 -0.343951
N4    N     N_R   0.216657 0.229805 0.366369 0.205556
O30   O     O_R   0.301643 0.284116 0.426284 -0.363075
O31   O     O_R   0.187717 0.146919 0.372822 -0.363093
N5    N     N_R   0.411694 0.845446 0.147986 0.261047
O32   O     O_R   0.430632 0.931192 0.155910 -0.202945
O33   O     O_R   0.291187 0.798585 0.101390 -0.319022
N6    N     N_R   0.952618 0.141127 0.224914 0.219760
O34   O     O_R   0.831623 0.135375 0.171524 -0.236368
O35   O     O_R   0.942171 0.088261 0.278323 -0.361250
N7    N     N_R   0.211796 0.122223 0.191897 0.295288
O36   O     O_R   0.274837 0.115279 0.122794 -0.172374
O37   O     O_R   0.221279 0.059399 0.234618 -0.242493
N8    N     N_R   0.085151 0.232325 0.139780 0.230085
O38   O     O_R   0.111371 0.317557 0.145408 -0.427419
O39   O     O_R   0.036290 0.184994 0.068195 -0.183182
O40   O     O_3   0.607391 0.753515 0.132245 -0.763351
H22   H     H_    0.527253 0.714456 0.091596 0.315723
N9    N     N_R   0.721890 0.745244 0.756364 0.196301
O41   O     O_R   0.839255 0.807314 0.786028 -0.303351
O42   O     O_R   0.732016 0.697729 0.686618 -0.367334
N10   N     N_R   0.524025 0.836456 0.761347 0.242512
O43   O     O_R   0.607890 0.881897 0.715771 -0.256908
O44   O     O_R   0.400623 0.865937 0.788526 -0.248853
N11   N     N_R   0.667487 0.850349 0.919437 0.242448
O45   O     O_R   0.605002 0.922185 0.921954 -0.209451
O46   O     O_R   0.796570 0.853873 0.966420 -0.207117
O47   O     O_3   0.423373 0.758987 0.904161 -0.737686
H23   H     H_    0.432570 0.771222 0.964908 0.360163
O48   O     O_3   0.646427 0.695660 0.904404 -0.702827
H24   H     H_    0.645074 0.700487 0.964600 0.369127
N12   N     N_R   0.758700 0.168726 0.660906 0.234373
O49   O     O_R   0.752955 0.220559 0.607653 -0.350764
O50   O     O_R   0.710693 0.084723 0.636104 -0.339725
O51   O     O_3   0.001721 0.220142 0.735601 -0.814819
H25   H     H_    0.051273 0.247806 0.790758 0.309756
N13   N     N_R   0.878591 0.052782 0.775299 0.289132
O52   O     O_R   0.960884 0.045057 0.712897 -0.332997
O53   O     O_R   0.860873 0.988449 0.816992 -0.171400
N14   N     N_R   0.848784 0.164867 0.886838 0.277311
O54   O     O_R   0.924516 0.243855 0.913392 -0.282570
O55   O     O_R   0.812427 0.113750 0.939864 -0.140372
O56   O     O_3   0.504317 0.333164 0.783745 -0.678423
H26   H     H_    0.509091 0.363922 0.736283 0.344938
O57   O     O_3   0.287797 0.287800 0.897212 -0.793530
H27   H     H_    0.291060 0.272506 0.953136 0.397653
N15   N     N_R   0.502112 0.211921 0.888720 0.225953
O58   O     O_R   0.510725 0.137905 0.915165 -0.242960
O59   O     O_R   0.605306 0.280795 0.920707 -0.250003
N16   N     N_R   0.243780 0.140831 0.831452 0.226694
O60   O     O_R   0.269860 0.075949 0.777492 -0.254395
O61   O     O_R   0.159595 0.121117 0.889731 -0.237622
N17   N     N_R   0.169771 0.887534 0.642369 0.269850
O62   O     O_R   0.120528 0.898890 0.714824 -0.196800
O63   O     O_R   0.305753 0.862570 0.633915 -0.239319
N18   N     N_R   0.345783 0.027214 0.584785 0.274859
O64   O     O_R   0.418460 0.006236 0.520748 -0.377977
O65   O     O_R   0.418769 0.028520 0.656291 -0.209101
O66   O     O_3   0.528780 0.942924 0.354829 -0.711783
H28   H     H_    0.438168 0.971745 0.371330 0.397202
N19   N     N_R   0.632242 0.109628 0.366449 0.252005
O67   O     O_R   0.639459 0.085147 0.288419 -0.217568
O68   O     O_R   0.498334 0.126524 0.390746 -0.266542
N20   N     N_R   0.615019 0.718570 0.544562 0.245893
O69   O     O_R   0.610310 0.634265 0.523282 -0.259843
O70   O     O_R   0.502236 0.745563 0.584453 -0.304046
O71   O     O_3   0.550071 0.527772 0.882326 -0.636394
H29   H     H_    0.611233 0.543890 0.838496 0.408706
O72   O     O_3   0.880212 0.791150 0.348361 -0.814653
H30   H     H_    0.790614 0.802597 0.312915 0.292335
N21   N     N_R   0.013057 0.431300 0.935239 0.290189
O73   O     O_R   0.890950 0.471467 0.933539 -0.259303
O74   O     O_R   0.047757 0.398588 0.000572 -0.287366
N22   N     N_R   0.667631 0.557553 0.352785 0.256329
O75   O     O_R   0.742347 0.505755 0.389771 -0.304810
O76   O     O_R   0.689644 0.641202 0.381878 -0.431993
O77   O     O_3   0.152949 0.439151 0.654046 -0.721268
H31   H     H_    0.074955 0.478269 0.644565 0.311432
N23   N     N_R   0.573369 0.237416 0.231613 0.236487
O78   O     O_R   0.556321 0.218075 0.151826 -0.284703
O79   O     O_R   0.472464 0.197832 0.271847 -0.271479

loop_
_geom_bond_atom_site_label_1
_geom_bond_atom_site_label_2
_geom_bond_distance
_ccdc_geom_bond_type
C3    H13   1.111772 S    
P2    Ba1   3.462515 S    
C37   C38   1.397598 A    
O66   H28   0.989471 S    
C12   O47   1.400127 S    
C24   C25   1.471464 A    
C3    H3    1.108248 S    
C39   O71   1.371940 S    
N10   O43   1.302787 A    
N6    O34   1.301494 A    
N23   O78   1.304237 A    
C18   C26   1.420688 A    
O40   H22   0.991271 S    
N19   O68   1.299405 A    
C28   C29   1.393030 A    
N8    O38   1.296198 A    
N3    O29   1.294781 A    
O19   C13   1.429227 S    
P1    C22   1.958532 S    
C25   C27   1.406885 A    
C33   N22   1.408646 S    
C9    N6    1.475639 S    
P8    O23   1.538830 D    
C11   N10   1.473709 S    
P4    O12   1.586178 D    
C3    H4    1.111367 S    
C5    H7    1.108168 S    
P1    O1    1.585894 D    
C16   N16   1.468837 S    
P2    O10   1.768080 S    
N7    O37   1.300585 A    
N17   O62   1.300286 A    
C20   N17   1.421549 S    
P3    O9    1.547522 D    
C29   C31   1.434537 A    
N23   O79   1.282381 A    
P5    C43   1.869831 S    
N20   O69   1.293688 A    
Ba1   O13   2.920258 S    
C28   O66   1.363478 S    
N13   O52   1.299075 A    
N4    O30   1.299286 A    
C27   N19   1.399735 S    
C5    O26   1.374026 S    
O16   Ba2   3.028006 S    
C16   N15   1.470274 S    
C35   H18   1.072800 S    
C2    C3    1.526128 S    
C14   N13   1.470622 S    
O5    C6    1.396781 S    
C33   C34   1.405726 A    
N22   O76   1.292864 A    
C19   C20   1.407401 A    
N21   O74   1.301089 A    
C37   H17   1.083166 S    
O57   H27   0.993625 S    
N17   O63   1.297158 A    
P4    Ba2   3.483992 S    
O1    Ba1   2.901404 S    
C39   C41   1.421303 A    
N14   O55   1.301061 A    
O12   Ba2   2.902023 S    
Ba1   O20   3.028889 S    
C19   C30   1.439315 A    
C17   C18   1.442197 A    
P8    C17   1.889529 S    
O71   H29   0.973545 S    
P5    O17   1.747076 S    
C9    N8    1.480451 S    
C20   C21   1.408224 A    
C8    N4    1.466370 S    
P6    C31   1.914533 S    
C21   N18   1.425737 S    
C24   C32   1.406354 A    
C41   C44   1.418271 A    
N8    O39   1.300891 A    
C40   C42   1.400467 A    
N18   O65   1.297896 A    
C27   C28   1.396786 A    
P7    O22   1.812288 S    
C25   C26   1.449239 A    
O7    Ba1   2.833667 S    
C11   C12   1.582221 S    
C11   N9    1.455804 S    
O26   H20   0.987222 S    
P4    O15   1.774529 S    
C34   C35   1.407969 A    
C23   N20   1.434610 S    
N12   O49   1.288387 A    
C1    N5    1.466893 S    
N19   O67   1.300655 A    
C29   C30   1.418376 A    
C1    H1    1.110200 S    
C14   H14   1.111193 S    
C35   C36   1.415276 A    
C32   H16   1.080629 S    
P1    O5    1.752899 S    
P1    O2    1.618766 S    
C7    O27   1.386797 S    
C16   O57   1.406133 S    
C15   O24   1.420107 S    
N16   O61   1.300987 A    
O77   H31   0.988129 S    
C1    C10   1.547540 S    
C41   N2    1.444228 S    
O4    P6    1.546157 D    
P3    O11   1.756793 S    
C44   N21   1.443414 S    
O25   H19   0.986624 S    
P3    C38   1.870476 S    
C4    O15   1.412599 S    
C43   C44   1.426774 A    
Ba2   O21   2.833777 S    
C2    H2    1.104977 S    
N5    O33   1.301810 A    
C5    H6    1.111393 S    
C42   C43   1.417218 A    
P2    O7    1.569508 D    
O14   Ba2   2.910739 S    
Ba1   Ba2   4.709890 S    
C10   H12   1.112487 S    
C6    C7    1.543260 S    
N9    O41   1.300872 A    
C12   O48   1.397946 S    
P5    O18   1.532377 D    
C4    C5    1.512493 S    
C9    N7    1.482471 S    
N15   O59   1.301885 A    
C42   O77   1.371677 S    
N11   O45   1.301529 A    
P2    O20   1.552552 S    
O27   H21   0.993355 S    
O3    Ba1   2.911293 S    
P4    O13   1.618753 S    
N22   O75   1.297072 A    
N9    O42   1.287462 A    
N14   O54   1.296354 A    
N13   O53   1.299388 A    
C10   O25   1.398698 S    
C6    H8    1.106065 S    
N5    O32   1.300964 A    
C36   C37   1.405235 A    
C12   N11   1.483034 S    
C7    H10   1.107648 S    
O48   H24   0.991903 S    
N11   O46   1.300433 A    
N10   O44   1.300643 A    
N6    O35   1.298970 A    
C14   N14   1.467688 S    
C1    O40   1.405494 S    
P7    O21   1.592637 D    
O47   H23   0.991906 S    
N12   O50   1.300117 A    
N18   O64   1.295797 A    
C15   O56   1.395170 S    
N3    O28   1.299712 A    
Ba2   O20   2.800195 S    
O2    Ba2   2.920883 S    
N7    O36   1.302201 A    
C13   O51   1.398411 S    
P8    O24   1.780917 S    
C18   C21   1.424228 A    
O6    C10   1.407470 S    
C4    N23   1.456800 S    
O2    Ba1   3.026696 S    
C39   C40   1.424970 A    
C6    H9    1.110488 S    
O16   P7    1.796092 S    
O72   H30   0.989741 S    
C36   N1    1.426081 S    
O56   H26   0.984086 S    
C17   C32   1.416232 A    
P3    O8    1.764329 S    
Ba1   O16   2.800816 S    
C13   C14   1.578124 S    
O11   C2    1.406725 S    
N4    O31   1.297050 A    
N20   O70   1.298445 A    
C19   C22   1.463350 A    
O14   P8    1.747886 S    
P2    C34   1.881384 S    
N1    N2    1.250601 D    
C8    C9    1.615825 S    
C8    H11   1.103321 S    
C13   N12   1.465803 S    
C33   C38   1.409525 A    
C11   O22   1.448830 S    
C15   H15   1.105331 S    
O17   Ba2   2.822736 S    
O13   Ba2   3.027586 S    
P4    C24   1.976588 S    
C15   C16   1.574185 S    
C22   C23   1.423838 A    
N16   O60   1.295176 A    
C23   C31   1.408984 A    
N21   O73   1.298778 A    
C7    N3    1.451809 S    
P7    C40   1.884910 S    
P1    Ba1   3.483466 S    
P5    O19   1.781158 S    
C4    H5    1.106185 S    
O8    Ba1   2.822113 S    
N15   O58   1.301800 A    
O51   H25   0.985654 S    
C26   C30   1.465461 A    
O10   C8    1.414848 S    
C2    O72   1.396323 S    
O6    P6    1.758220 S    
O3    P6    1.745249 S    
