data_mof_unit_60197.cif
_audit_creation_date              2012-12-10T17:23:35-0500
_audit_creation_method            fapswitch 2.2
_symmetry_space_group_name_H-M    P1
_symmetry_Int_Tables_number       1
_space_group_crystal_system       triclinic
_cell_length_a                    18.789541
_cell_length_b                    18.839327
_cell_length_c                    18.775316
_cell_angle_alpha                 109.55126
_cell_angle_beta                  109.459846
_cell_angle_gamma                 109.480383
_cell_volume                      5111.27036092

loop_
_atom_site_label
_atom_site_type_symbol
_atom_type_description
_atom_site_fract_x
_atom_site_fract_y
_atom_site_fract_z
_atom_type_partial_charge
C1    C     C_R   0.381271 0.500018 0.381097 0.794384
C2    C     C_R   0.754714 0.825923 0.517846 -0.069679
C3    C     C_3   0.724754 0.889599 0.541742 -0.487879
C4    C     C_3   0.655202 0.819879 0.544345 0.496156
C5    C     C_R   0.235285 0.423015 0.252351 -0.189962
C6    C     C_R   0.170489 0.423513 0.189493 -0.182707
C7    C     C_R   0.186235 0.500278 0.186354 -0.027662
C8    C     C_R   0.266422 0.577083 0.247896 -0.169586
C9    C     C_R   0.330022 0.577249 0.312684 -0.153198
C10   C     C_R   0.314691 0.500030 0.314289 -0.011684
C11   C     C_R   0.321490 0.242482 0.499590 -0.172818
C12   C     C_R   0.618995 0.618644 0.500124 0.849834
C13   C     C_R   0.258207 0.179196 0.501129 -0.174370
C14   C     C_R   0.185981 0.186015 0.500255 -0.008955
C15   C     C_R   0.178004 0.257088 0.499433 -0.173543
C16   C     C_R   0.242817 0.321904 0.500950 -0.176221
C17   C     C_R   0.314249 0.314288 0.500237 -0.010987
C18   C     C_R   0.757102 0.499293 0.678047 -0.177483
C19   C     C_R   0.821868 0.500623 0.742831 -0.176742
C20   C     C_R   0.814064 0.499961 0.814248 -0.006190
C21   C     C_R   0.742153 0.499489 0.821545 -0.173150
C22   C     C_R   0.678888 0.501165 0.758259 -0.173964
C23   C     C_R   0.618968 0.500115 0.619021 0.771686
C24   C     C_R   0.685931 0.500300 0.686076 -0.007052
C25   C     C_R   0.999768 0.881020 0.380966 0.801407
C26   C     C_R   0.881467 0.881234 0.499739 0.870007
C27   C     C_R   0.000102 0.118998 0.619122 0.803663
C28   C     C_R   0.118979 0.119022 0.500083 0.774803
C29   C     C_R   0.999904 0.618958 0.118945 0.776773
C30   C     C_R   0.119074 0.500209 0.119186 0.786378
C31   C     C_R   0.000391 0.381310 0.881641 0.827199
C32   C     C_R   0.881033 0.500026 0.881172 0.771103
C33   C     C_R   0.999867 0.821411 0.242313 -0.179676
C34   C     C_R   0.381083 0.381097 0.500061 0.773568
C35   C     C_R   0.001485 0.758102 0.179048 -0.170997
C36   C     C_R   0.999625 0.685742 0.185737 -0.011657
C37   C     C_R   0.997489 0.677484 0.256514 -0.176462
C38   C     C_R   0.998880 0.742281 0.321315 -0.149538
C39   C     C_R   0.999403 0.813955 0.313906 -0.013374
C40   C     C_R   0.986260 0.249997 0.672872 -0.170515
C41   C     C_R   0.987700 0.314669 0.737742 -0.256499
C42   C     C_R   0.001357 0.314614 0.815663 -0.105564
C43   C     C_R   0.016417 0.251132 0.830157 0.502827
C44   C     C_R   0.015435 0.186682 0.764936 -0.261046
C45   C     C_R   0.694414 0.765203 0.520819 0.059206
C46   C     C_R   0.000478 0.186093 0.686477 -0.082670
C47   C     C_R   0.686804 0.684325 0.500707 -0.167082
C48   C     C_R   0.746979 0.667832 0.479042 -0.289747
C49   C     C_R   0.813551 0.733168 0.480360 0.480720
C50   C     C_R   0.815804 0.813294 0.498294 -0.142583
Cu1   Cu    Cu3+1 0.499970 0.561780 0.561770 0.969552
Cu2   Cu    Cu3+1 0.500030 0.438220 0.438230 0.958045
Cu3   Cu    Cu3+1 0.061810 0.000000 0.561760 0.955740
Cu4   Cu    Cu3+1 0.938190 0.000070 0.438240 0.963983
Cu5   Cu    Cu3+1 0.938200 0.438300 0.000110 0.982190
Cu6   Cu    Cu3+1 0.061800 0.561880 0.000070 0.952815
H1    H     H_    0.742559 0.604967 0.461376 0.170169
H2    H     H_    0.391510 0.637015 0.360650 0.192721
H3    H     H_    0.376719 0.236277 0.499379 0.142602
H4    H     H_    0.264695 0.124252 0.501422 0.142024
H5    H     H_    0.122503 0.263021 0.499103 0.136961
H6    H     H_    0.236558 0.377076 0.501105 0.139675
H7    H     H_    0.763139 0.498945 0.622531 0.134266
H8    H     H_    0.877175 0.500667 0.736603 0.134385
H9    H     H_    0.735891 0.499355 0.876823 0.142598
H10   H     H_    0.623806 0.501571 0.764702 0.142199
H11   H     H_    0.000595 0.876868 0.236354 0.141007
H12   H     H_    0.002737 0.764746 0.124279 0.141949
H13   H     H_    0.996339 0.621837 0.262296 0.142484
H14   H     H_    0.998146 0.735936 0.376370 0.160458
H15   H     H_    0.975110 0.250418 0.612599 0.153901
H16   H     H_    0.976689 0.363899 0.726678 0.152836
H17   H     H_    0.025464 0.136772 0.775351 0.159443
H18   H     H_    0.774250 0.948422 0.606847 0.152514
H19   H     H_    0.697704 0.902343 0.488007 0.237857
H20   H     H_    0.661686 0.838229 0.609860 0.071609
H21   H     H_    0.223050 0.363225 0.253790 0.135327
H22   H     H_    0.108685 0.363835 0.142641 0.159810
H23   H     H_    0.279201 0.637031 0.246692 0.157980
O1    O     O_R   0.409790 0.552170 0.461990 -0.575017
O2    O     O_R   0.947790 0.909920 0.357650 -0.582965
O3    O     O_R   0.962030 0.909820 0.552150 -0.583778
O4    O     O_R   0.857630 0.909880 0.447840 -0.579279
O5    O     O_R   0.052210 0.090150 0.642360 -0.591334
O6    O     O_R   0.947820 0.090210 0.538040 -0.590060
O7    O     O_R   0.142360 0.090190 0.552160 -0.584427
O8    O     O_R   0.037970 0.090250 0.447850 -0.590177
O9    O     O_R   0.947800 0.538090 0.090240 -0.586127
O10   O     O_R   0.052170 0.642450 0.090210 -0.585147
O11   O     O_R   0.038000 0.447920 0.090280 -0.578147
O12   O     O_R   0.409840 0.447810 0.357660 -0.582369
O13   O     O_R   0.142370 0.552280 0.090250 -0.588304
O14   O     O_R   0.947830 0.357730 0.909970 -0.548053
O15   O     O_R   0.052200 0.462090 0.909940 -0.596990
O16   O     O_R   0.857630 0.447900 0.909930 -0.584886
O17   O     O_R   0.962000 0.552260 0.909900 -0.589803
O18   O     O_R   0.590140 0.642360 0.552170 -0.583861
O19   O     O_R   0.590190 0.538010 0.447840 -0.587437
O20   O     O_R   0.590160 0.552190 0.642340 -0.587181
O21   O     O_R   0.590210 0.447830 0.538010 -0.589269
O22   O     O_R   0.409810 0.461990 0.552160 -0.586704
O23   O     O_R   0.409860 0.357640 0.447830 -0.586183
O24   O     O_R   0.052180 0.909860 0.461960 -0.584460
O25   O     O_3   0.870792 0.716493 0.456180 -0.581470
C51   C     C_3   0.926891 0.707569 0.520061 -0.314378
H24   H     H_    0.891703 0.645733 0.518009 0.154092
H25   H     H_    0.959055 0.764097 0.586768 0.163823
H26   H     H_    0.979131 0.705352 0.505862 0.183780
O26   O     O_3   0.028910 0.250083 0.906553 -0.576612
C52   C     C_3   0.119211 0.289722 0.963137 -0.329944
H27   H     H_    0.153132 0.359959 0.983556 0.158203
H28   H     H_    0.149033 0.256057 0.933230 0.162714
H29   H     H_    0.129238 0.285036 0.022635 0.192942
F1    F     F_    0.571630 0.785070 0.477730 -0.656765

loop_
_geom_bond_atom_site_label_1
_geom_bond_atom_site_label_2
_ccdc_geom_bond_type
Cu1   O18   S    
C23   O20   A    
Cu5   Cu6   S    
C38   H14   S    
C26   O4    A    
C40   H15   S    
C37   H13   S    
C41   C42   A    
C35   C36   A    
C30   O11   A    
C49   O25   S    
C29   O10   A    
C7    C8    A    
C13   H4    S    
Cu3   Cu4   S    
C40   C46   A    
C51   H25   S    
C29   C36   S    
Cu2   O23   S    
C33   C39   A    
Cu3   O5    S    
C18   C24   A    
C4    F1    S    
C27   O5    A    
C31   C42   S    
C18   C19   A    
Cu5   O11   S    
C26   C50   S    
C5    C6    A    
C18   H7    S    
C6    H22   S    
C16   C17   A    
C15   C16   A    
C9    H2    S    
Cu5   O9    S    
C27   O6    A    
C3    H18   S    
C52   H27   S    
Cu4   O4    S    
C29   O9    A    
C2    C50   A    
Cu1   O1    S    
C22   H10   S    
C19   C20   A    
C8    C9    A    
C8    H23   S    
C23   C24   S    
Cu3   O7    S    
C3    H19   S    
C9    C10   A    
C12   O19   A    
Cu5   O14   S    
C23   O21   A    
C26   O3    A    
C7    C30   S    
C21   C22   A    
C25   O2    A    
C16   H6    S    
C12   C47   S    
C11   H3    S    
O25   C51   S    
C44   C46   A    
C4    C45   S    
C45   C47   A    
C2    C45   A    
Cu1   O20   S    
C38   C39   A    
C51   H26   S    
C34   O22   A    
Cu1   Cu2   S    
C48   H1    S    
C30   O13   A    
C25   O24   A    
C31   O14   A    
Cu2   O21   S    
Cu3   O3    S    
Cu6   O15   S    
C43   C44   A    
C37   C38   A    
C47   C48   A    
C19   H8    S    
C28   O8    A    
C15   H5    S    
C34   O23   A    
C52   H29   S    
C12   O18   A    
C41   H16   S    
C27   C46   S    
Cu5   O16   S    
C40   C41   A    
C32   O17   A    
C28   O7    A    
C22   C24   A    
C42   C43   A    
C5    H21   S    
C3    C4    S    
C33   H11   S    
C20   C32   S    
Cu6   O17   S    
Cu6   O10   S    
C36   C37   A    
C21   H9    S    
C1    C10   S    
C11   C17   A    
Cu4   O6    S    
C6    C7    A    
Cu1   O22   S    
C31   O15   A    
C51   H24   S    
C2    C3    S    
C5    C10   A    
O26   C52   S    
C25   C39   S    
C11   C13   A    
Cu4   O8    S    
C35   H12   S    
Cu3   O24   S    
C48   C49   A    
Cu2   O19   S    
C33   C35   A    
C44   H17   S    
C52   H28   S    
C4    H20   S    
Cu6   O13   S    
C32   O16   A    
C20   C21   A    
C1    O12   A    
C49   C50   A    
C17   C34   S    
C1    O1    A    
C14   C15   A    
Cu2   O12   S    
C43   O26   S    
C14   C28   S    
C13   C14   A    
Cu4   O2    S    
