data_mof_unit_11071.cif
_audit_creation_date              2013-03-05T16:47:54-0500
_audit_creation_method            fapswitch 2.2
_symmetry_space_group_name_H-M    P1
_symmetry_Int_Tables_number       1
_space_group_crystal_system       triclinic
_cell_length_a                    8.115891
_cell_length_b                    8.942075
_cell_length_c                    16.992664
_cell_angle_alpha                 89.901544
_cell_angle_beta                  82.542315
_cell_angle_gamma                 90.246809
_cell_volume                      1222.76072581

loop_
_atom_site_label
_atom_site_type_symbol
_atom_site_description
_atom_site_fract_x
_atom_site_fract_y
_atom_site_fract_z
_atom_type_partial_charge
O1    O     O_R   0.363150 0.714660 0.500000 -0.595892
O2    O     O_R   0.636850 0.285340 0.500000 -0.625568
O3    O     O_R   0.636850 0.714660 0.500000 -0.600106
O4    O     O_R   0.363150 0.285340 0.500000 -0.624518
H1    H     H_    0.330863 0.252732 0.890339 0.154872
H2    H     H_    0.746322 0.296714 0.106179 0.152321
C1    C     C_R   0.500313 0.782011 0.499682 1.059277
C2    C     C_R   0.499820 0.218011 0.499832 0.898433
O5    O     O_R   0.346950 0.500000 0.615800 -0.634539
O6    O     O_R   0.653050 0.500000 0.384200 -0.636789
O7    O     O_R   0.620700 0.500000 0.615800 -0.591105
O8    O     O_R   0.379300 0.500000 0.384200 -0.586628
C3    C     C_R   0.473218 0.497129 0.652906 0.948318
C4    C     C_R   0.527042 0.497421 0.347040 0.933885
Zn1   Zn    Zn3+2 0.317220 0.500000 0.500010 1.037155
Zn2   Zn    Zn3+2 0.682780 0.500000 0.499990 1.033201
H3    H     H_    0.466252 0.702017 0.103188 0.169845
H4    H     H_    0.545279 0.691752 0.896285 0.187078
N1    N     N_1   0.926360 0.500000 0.499990 -0.021065
N2    N     N_1   0.073640 0.500000 0.500010 -0.020200
C5    C     C_R   0.448010 0.494824 0.738511 -0.208765
C6    C     C_R   0.555948 0.499554 0.261406 -0.206562
C7    C     C_R   0.509580 0.613672 0.780934 0.278838
C8    C     C_R   0.490648 0.616918 0.219259 0.280948
C9    C     C_R   0.503576 0.599635 0.862576 -0.205399
C10   C     C_R   0.518322 0.615071 0.136909 -0.209636
C11   C     C_R   0.449319 0.466552 0.901041 0.040945
C12   C     C_R   0.609678 0.500012 0.097154 0.066382
C13   C     C_R   0.379096 0.353361 0.859877 -0.178469
C14   C     C_R   0.678483 0.386782 0.138209 -0.186542
C15   C     C_R   0.374922 0.367295 0.778649 0.145991
C16   C     C_R   0.652095 0.384689 0.220581 0.158175
C17   C     C_2   0.467245 0.447315 0.985065 0.136956
C18   C     C_2   0.610094 0.487897 0.012062 0.120570
C19   C     C_1   0.500434 0.934873 0.499598 -0.104108
C20   C     C_1   0.499775 0.065207 0.499644 -0.174948
N3    N     N_R   0.580297 0.747354 0.742507 0.205505
O9    O     O_R   0.687169 0.826973 0.775447 -0.403310
O10   O     O_R   0.529273 0.797101 0.677988 -0.454175
N4    N     N_R   0.397523 0.738188 0.258607 0.209560
O11   O     O_R   0.280697 0.802403 0.225209 -0.398349
O12   O     O_R   0.443650 0.798447 0.321860 -0.442137
N5    N     N_2   0.716191 0.262081 0.260589 -0.324952
H5    H     H_    0.769289 0.288576 0.310591 0.251403
C21   C     C_3   0.606383 0.133929 0.271540 -0.656457
H6    H     H_    0.669808 0.041253 0.298931 0.258798
H7    H     H_    0.573542 0.094930 0.213465 0.258803
H8    H     H_    0.491260 0.162831 0.311320 0.233057
N6    N     N_2   0.301627 0.249903 0.738332 -0.330055
H9    H     H_    0.241457 0.282205 0.691402 0.247605
C22   C     C_3   0.406138 0.120753 0.721030 -0.636149
H10   H     H_    0.335813 0.033716 0.692660 0.260879
H11   H     H_    0.443558 0.073618 0.776566 0.268460
H12   H     H_    0.518792 0.151651 0.679716 0.232423
N7    N     N_2   0.757495 0.520957 0.959365 -0.308353
H13   H     H_    0.834670 0.429890 0.949126 0.228690
C23   C     C_3   0.844042 0.657012 0.975838 -0.750914
H14   H     H_    0.949344 0.676433 0.928274 0.256473
H15   H     H_    0.893272 0.648388 0.033643 0.241755
H16   H     H_    0.758923 0.754196 0.977472 0.249012
N8    N     N_2   0.333134 0.386855 0.038662 -0.300710
H17   H     H_    0.320327 0.272684 0.033488 0.226970
C24   C     C_3   0.177377 0.465525 0.041709 -0.761539
H18   H     H_    0.087221 0.418941 0.090411 0.252192
H19   H     H_    0.125269 0.452070 0.984884 0.236089
H20   H     H_    0.195726 0.586220 0.053541 0.257073

loop_
_geom_bond_atom_site_label_1
_geom_bond_atom_site_label_2
_geom_bond_distance
_ccdc_geom_bond_type
N5    H5    1.028908 S    
C24   H19   1.109807 S    
N3    O9    1.301768 A    
O1    Zn1   1.953784 S    
C7    N3    1.441830 S    
C11   C13   1.392672 A    
O2    Zn2   1.953785 S    
O7    Zn2   1.967022 S    
C10   C12   1.394123 A    
N1    N2    1.195353 T    
O8    Zn1   1.967022 S    
O4    C2    1.264019 A    
C22   H12   1.111598 S    
C17   N8    1.429114 S    
C4    C6    1.443641 S    
O4    Zn1   1.956938 S    
N4    O12   1.300193 A    
C17   C18   1.349531 D    
O5    Zn1   2.013164 S    
C24   H20   1.111102 S    
C3    C5    1.442529 S    
C18   N7    1.427707 S    
C13   C15   1.390479 A    
O6    Zn2   2.013165 S    
C21   H6    1.110370 S    
C11   C17   1.463767 S    
C14   C16   1.388339 A    
N5    C21   1.445495 S    
C5    C15   1.415623 A    
Zn1   N2    1.976869 S    
H4    C9    1.081993 S    
C6    C16   1.419152 A    
C15   N6    1.424082 S    
Zn2   N1    1.976869 S    
H3    C10   1.084230 S    
C12   C14   1.388261 A    
N4    O11   1.301554 A    
C8    N4    1.439649 S    
C16   N5    1.424413 S    
C8    C10   1.388309 A    
O3    C1    1.264107 A    
C23   H14   1.110282 S    
N7    C23   1.448007 S    
C5    C7    1.410809 A    
O6    C4    1.269870 A    
N8    H17   1.030818 S    
C6    C8    1.412780 A    
N7    H13   1.030678 S    
C23   H15   1.110081 S    
C9    C11   1.398359 A    
C12   C18   1.449749 S    
C24   H18   1.110305 S    
H1    C13   1.083351 S    
O7    C3    1.278548 A    
C7    C9    1.387294 A    
N3    O10   1.299650 A    
N6    H9    1.029251 S    
C2    C20   1.366396 S    
C21   H7    1.111397 S    
N8    C24   1.444412 S    
N6    C22   1.443773 S    
O5    C3    1.271342 A    
C23   H16   1.110622 S    
C21   H8    1.111490 S    
H2    C14   1.084243 S    
O1    C1    1.262775 A    
C1    C19   1.366897 S    
O2    C2    1.262678 A    
O3    Zn2   1.956937 S    
C22   H10   1.110307 S    
O8    C4    1.280916 A    
C22   H11   1.111130 S    
C19   C20   1.165494 T    
