data_mof_unit_44802.cif
_audit_creation_date              2012-12-10T20:34:48-0500
_audit_creation_method            fapswitch 2.2
_symmetry_space_group_name_H-M    P1
_symmetry_Int_Tables_number       1
_space_group_crystal_system       triclinic
_cell_length_a                    10.633271
_cell_length_b                    10.683565
_cell_length_c                    9.880668
_cell_angle_alpha                 87.861651
_cell_angle_beta                  89.581737
_cell_angle_gamma                 90.512418
_cell_volume                      1121.59693915

loop_
_atom_site_label
_atom_site_type_symbol
_atom_type_description
_atom_site_fract_x
_atom_site_fract_y
_atom_site_fract_z
_atom_type_partial_charge
C1    C     C_R   0.497975 0.259852 0.502111 0.874097
C2    C     C_R   0.594575 0.933780 0.574537 -0.029297
C3    C     C_3   0.618277 0.910906 0.721947 -0.496112
C4    C     C_R   0.257604 0.499000 0.500037 0.848493
C5    C     C_3   0.595740 0.049616 0.735139 0.752856
C6    C     C_R   0.407495 0.438388 0.075025 0.167788
C7    C     C_R   0.584593 0.569842 0.068359 -0.086562
C8    C     C_R   0.584600 0.569861 0.924512 -0.132826
C9    C     C_R   0.407778 0.437811 0.932043 0.170520
C10   C     C_3   0.387596 0.299540 0.936835 -0.027904
C11   C     C_3   0.381480 0.301775 0.089835 -0.512722
C12   C     C_3   0.878466 0.497402 0.497674 0.073776
C13   C     C_R   0.503925 0.739581 0.497312 0.874267
C14   C     C_R   0.742189 0.498557 0.499353 0.860662
C15   C     C_3   0.070039 0.386542 0.588073 -0.417252
C16   C     C_3   0.925824 0.385122 0.586528 -0.366216
C17   C     C_3   0.072358 0.622348 0.554972 -0.409295
C18   C     C_3   0.072497 0.485558 0.351748 -0.425742
C19   C     C_3   0.121001 0.498292 0.498867 0.103099
C20   C     C_3   0.705580 0.123860 0.792263 -0.932184
C21   C     C_3   0.265420 0.258008 0.871199 -0.763700
C22   C     C_3   0.927987 0.621535 0.555072 -0.522234
C23   C     C_3   0.929493 0.485517 0.350636 0.496547
C24   C     C_R   0.584463 0.061318 0.584114 0.032815
C25   C     C_R   0.498801 0.127119 0.503383 -0.047641
C26   C     C_R   0.433534 0.066452 0.401583 -0.211073
C27   C     C_R   0.441248 0.937924 0.394112 -0.201677
C28   C     C_R   0.514333 0.871290 0.488665 -0.041040
F1    F     F_    0.482107 0.068339 0.799369 -0.684990
F2    F     F_    0.885900 0.375963 0.294961 -0.667161
H1    H     H_    0.101426 0.395870 0.694138 0.189076
H2    H     H_    0.106462 0.296543 0.551000 0.167666
H3    H     H_    0.654474 0.624467 0.867587 0.144012
H4    H     H_    0.472800 0.252837 0.900437 0.251883
H5    H     H_    0.286898 0.281954 0.134910 0.199659
H6    H     H_    0.459676 0.249255 0.138811 0.220210
H7    H     H_    0.891109 0.295201 0.546554 0.200789
H8    H     H_    0.889704 0.390425 0.692214 0.182252
H9    H     H_    0.106521 0.634159 0.660026 0.198140
H10   H     H_    0.892789 0.632151 0.660414 0.206189
H11   H     H_    0.107850 0.564994 0.285300 0.140182
H12   H     H_    0.897286 0.566095 0.285348 0.068955
H13   H     H_    0.107823 0.397355 0.308943 0.207155
H14   H     H_    0.794323 0.105224 0.736699 0.206103
H15   H     H_    0.686020 0.225697 0.782992 0.248178
H16   H     H_    0.717866 0.097099 0.900971 0.254794
H17   H     H_    0.246193 0.158058 0.899299 0.268267
H18   H     H_    0.184892 0.314948 0.905003 0.213153
H19   H     H_    0.275431 0.267341 0.759464 0.253243
H20   H     H_    0.108306 0.703467 0.491552 0.166379
H21   H     H_    0.893509 0.702980 0.492720 0.162243
H22   H     H_    0.372449 0.117577 0.332338 0.151320
H23   H     H_    0.383457 0.890304 0.321790 0.158597
H24   H     H_    0.545524 0.851568 0.774916 0.236338
H25   H     H_    0.716746 0.881159 0.741038 0.156322
H26   H     H_    0.654525 0.624347 0.119802 0.140029
N1    N     N_R   0.499150 0.499140 0.142800 -0.101709
N2    N     N_R   0.499150 0.499180 0.857150 -0.123101
O1    O     O_R   0.500020 0.316790 0.614690 -0.610336
O2    O     O_R   0.500000 0.316760 0.385350 -0.612144
O3    O     O_R   0.314800 0.500000 0.614670 -0.621567
O4    O     O_R   0.314790 0.499960 0.385330 -0.629756
O5    O     O_R   0.500000 0.683240 0.614650 -0.617443
O6    O     O_R   0.499980 0.683210 0.385310 -0.630413
O7    O     O_R   0.685210 0.500040 0.614670 -0.639599
O8    O     O_R   0.685200 0.500000 0.385330 -0.587681
Zn1   Zn    Zn3+2 0.500010 0.500020 0.653130 0.939192
Zn2   Zn    Zn3+2 0.499990 0.499980 0.346870 0.964133

loop_
_geom_bond_atom_site_label_1
_geom_bond_atom_site_label_2
_ccdc_geom_bond_type
C17   H20   S    
O8    Zn2   S    
C27   H23   S    
C13   C28   S    
C15   H1    S    
C26   H22   S    
C2    C28   A    
C9    C10   S    
O3    Zn1   S    
C17   C22   S    
C13   O5    A    
O4    Zn2   S    
C16   H7    S    
C3    C5    S    
C21   H18   S    
C22   H10   S    
C6    C9    A    
C11   H5    S    
C2    C3    S    
C14   O8    A    
C7    C8    A    
C10   H4    S    
C5    C20   S    
C18   H13   S    
C1    C25   S    
C23   H12   S    
C12   C23   S    
C20   H15   S    
C26   C27   A    
C13   O6    A    
C7    H26   S    
C15   C16   S    
O6    Zn2   S    
C21   H19   S    
C11   H6    S    
C17   C19   S    
C14   O7    A    
C12   C14   S    
C4    O4    A    
C9    N2    A    
C5    F1    S    
C8    H3    S    
C1    O1    A    
C10   C21   S    
C2    C24   A    
C3    H24   S    
O5    Zn1   S    
C18   H11   S    
C6    N1    A    
C10   C11   S    
N1    Zn2   S    
C18   C23   S    
C23   F2    S    
C12   C22   S    
N2    Zn1   S    
C6    C11   S    
O1    Zn1   S    
C24   C25   A    
O2    Zn2   S    
C18   C19   S    
C17   H9    S    
C1    O2    A    
C27   C28   A    
C21   H17   S    
C5    C24   S    
C8    N2    A    
C20   H14   S    
C25   C26   A    
C15   C19   S    
C4    C19   S    
C3    H25   S    
C4    O3    A    
C7    N1    A    
C20   H16   S    
C12   C16   S    
C16   H8    S    
C22   H21   S    
O7    Zn1   S    
C15   H2    S    
