data_mof_unit_21724.cif
_audit_creation_date              2013-03-05T15:52:54-0500
_audit_creation_method            fapswitch 2.2
_symmetry_space_group_name_H-M    P1
_symmetry_Int_Tables_number       1
_space_group_crystal_system       triclinic
_cell_length_a                    14.889905
_cell_length_b                    10.697637
_cell_length_c                    9.943343
_cell_angle_alpha                 89.589813
_cell_angle_beta                  90.47425
_cell_angle_gamma                 90.956417
_cell_volume                      1583.5293235

loop_
_atom_site_label
_atom_site_type_symbol
_atom_site_description
_atom_site_fract_x
_atom_site_fract_y
_atom_site_fract_z
_atom_type_partial_charge
O1    O     O_R   0.500000 0.316780 0.614690 -0.659435
O2    O     O_R   0.499990 0.316750 0.385360 -0.619046
C1    C     C_R   0.503371 0.260936 0.500919 0.947877
O3    O     O_R   0.367850 0.499980 0.614680 -0.637996
O4    O     O_R   0.367840 0.499960 0.385350 -0.617189
C2    C     C_R   0.327287 0.497312 0.499885 1.056341
Zn1   Zn    Zn3+2 0.500010 0.500020 0.653130 1.023882
Zn2   Zn    Zn3+2 0.499990 0.499980 0.346870 1.064488
O5    O     O_R   0.500010 0.683250 0.614640 -0.578021
O6    O     O_R   0.500000 0.683220 0.385310 -0.536807
O7    O     O_R   0.632160 0.500040 0.614650 -0.584428
O8    O     O_R   0.632150 0.500020 0.385320 -0.579523
C3    C     C_R   0.500227 0.739539 0.498798 0.945639
C4    C     C_R   0.672729 0.499861 0.500379 0.833412
C5    C     C_R   0.815069 0.609993 0.478485 -0.145319
C6    C     C_R   0.767969 0.498768 0.501171 -0.013244
C7    C     C_R   0.811269 0.386459 0.524556 -0.223720
C8    C     C_R   0.904240 0.384466 0.527406 0.080927
C9    C     C_R   0.953177 0.496573 0.506204 0.134858
C10   C     C_R   0.908093 0.610078 0.481872 0.125061
C11   C     C_R   0.948438 0.272618 0.552545 -0.272483
C12   C     C_R   0.042024 0.269901 0.557631 0.382783
C13   C     C_R   0.092266 0.381293 0.532361 -0.128970
C14   C     C_R   0.046811 0.495295 0.508286 -0.135647
C15   C     C_R   0.094914 0.608597 0.485717 -0.019383
C16   C     C_R   0.049573 0.720786 0.463651 -0.016135
C17   C     C_R   0.956455 0.721472 0.461606 -0.161610
C18   C     C_R   0.186201 0.383001 0.526381 0.570434
C19   C     C_R   0.231847 0.495346 0.501065 -0.334960
C20   C     C_R   0.187735 0.607548 0.484875 0.542024
H1    H     H_    0.779173 0.695925 0.459663 0.136801
H2    H     H_    0.772631 0.301018 0.539252 0.127765
H3    H     H_    0.910045 0.187315 0.571458 0.183904
H4    H     H_    0.085996 0.807836 0.446449 0.253853
H5    H     H_    0.922283 0.808796 0.443713 0.179401
C21   C     C_R   0.644342 0.128985 0.644896 -0.203255
H6    H     H_    0.646063 0.229487 0.653294 0.168198
C22   C     C_R   0.713848 0.064023 0.706638 -0.218130
H7    H     H_    0.765621 0.116274 0.760080 0.191683
C23   C     C_R   0.717280 0.933783 0.697974 0.362327
C24   C     C_R   0.648685 0.869746 0.627787 -0.149019
H8    H     H_    0.653695 0.769627 0.618394 0.186822
C25   C     C_R   0.576540 0.934498 0.566582 0.011377
C26   C     C_R   0.575635 0.065319 0.572806 0.036248
C27   C     C_R   0.507112 0.128641 0.502874 -0.276103
C28   C     C_R   0.441818 0.066119 0.427695 0.585497
C29   C     C_R   0.441699 0.938189 0.420063 0.194033
C30   C     C_R   0.506702 0.872300 0.494675 -0.285693
C31   C     C_R   0.377638 0.344087 0.138077 -0.101510
H9    H     H_    0.375512 0.338344 0.244519 0.253808
C32   C     C_R   0.315902 0.268434 0.067444 0.307522
C33   C     C_R   0.320014 0.265165 0.927896 -0.223242
H10   H     H_    0.274180 0.205990 0.870943 0.244914
C34   C     C_R   0.381750 0.339769 0.859413 -0.101473
H11   H     H_    0.380154 0.331178 0.753053 0.238750
C35   C     C_R   0.441313 0.421433 0.927418 0.014898
C36   C     C_R   0.440440 0.422394 0.071583 -0.042777
N1    N     N_R   0.499150 0.498800 0.142780 -0.192402
C37   C     C_R   0.556498 0.574857 0.071633 0.609545
C38   C     C_R   0.556271 0.575087 0.928666 0.583742
N2    N     N_R   0.499120 0.498720 0.857170 -0.201249
N3    N     N_R   0.790402 0.866990 0.759214 0.221839
O9    O     O_R   0.856776 0.927265 0.816762 -0.337027
O10   O     O_R   0.791174 0.745367 0.758874 -0.328705
N4    N     N_R   0.375151 0.877529 0.336143 0.264425
O11   O     O_R   0.400644 0.818317 0.229591 -0.324504
O12   O     O_R   0.292277 0.913925 0.341006 -0.178591
F1    F     F_    0.614259 0.651875 0.138617 -0.588910
N5    N     N_R   0.248399 0.196110 0.137272 0.261617
O13   O     O_R   0.222081 0.229379 0.255975 -0.281709
O14   O     O_R   0.207341 0.102894 0.078289 -0.282924
F2    F     F_    0.613795 0.652344 0.862031 -0.587140
N6    N     N_R   0.083901 0.154253 0.592501 0.285536
O15   O     O_R   0.130840 0.146404 0.703089 -0.301435
O16   O     O_R   0.058456 0.051862 0.532385 -0.344083
F3    F     F_    0.234503 0.276999 0.541004 -0.587423
F4    F     F_    0.235880 0.715426 0.470776 -0.616823
F5    F     F_    0.377428 0.130685 0.361164 -0.594189

loop_
_geom_bond_atom_site_label_1
_geom_bond_atom_site_label_2
_geom_bond_distance
_ccdc_geom_bond_type
C8    C11   1.395174 A    
N6    O16   1.300930 A    
N6    O15   1.300997 A    
C9    C10   1.415574 A    
C31   C32   1.402097 A    
C31   C36   1.410492 A    
C27   C28   1.387365 A    
C26   C27   1.409955 A    
Zn1   O7    2.007658 S    
C16   C17   1.386650 A    
N3    O9    1.301771 A    
C21   H6    1.078824 S    
O4    C2    1.293356 A    
O7    C4    1.291264 A    
C11   H3    1.084808 S    
C38   F2    1.354115 S    
C5    C6    1.389013 A    
C23   N3    1.440667 S    
C35   C36   1.433761 A    
C8    C9    1.408341 A    
C24   H8    1.079639 S    
N5    O14   1.301612 A    
O5    C3    1.295933 A    
Zn1   N2    2.028939 S    
N3    O10   1.301352 A    
Zn2   N1    2.029400 S    
C34   H11   1.062251 S    
C20   F4    1.355394 S    
C16   H4    1.083041 S    
C6    C7    1.390177 A    
N4    O12   1.301515 A    
C13   C14   1.422454 A    
C25   C30   1.416577 A    
C37   C38   1.421536 A    
C11   C12   1.394762 A    
C24   C25   1.418506 A    
O3    Zn1   2.001529 S    
C33   C34   1.386984 A    
C5    C10   1.385234 A    
C34   C35   1.407009 A    
C32   C33   1.390145 A    
C14   C15   1.415008 A    
O3    C2    1.287234 A    
C28   F5    1.356100 S    
C17   H5    1.084063 S    
C15   C16   1.401830 A    
C1    C27   1.417254 S    
C38   N2    1.368223 A    
O1    C1    1.284824 A    
C25   C26   1.401574 A    
C19   C20   1.385589 A    
C37   F1    1.355306 S    
C3    C30   1.422214 S    
C29   C30   1.409766 A    
Zn2   O8    2.001530 S    
C7    C8    1.384898 A    
C35   N2    1.374876 A    
C13   C18   1.400258 A    
C23   C24   1.404010 A    
O8    C4    1.289396 A    
C31   H9    1.060434 S    
C4    C6    1.418317 S    
C21   C26   1.412767 A    
C18   F3    1.359199 S    
C33   H10   1.082363 S    
C15   C20   1.382419 A    
Zn1   O5    1.994450 S    
C28   C29   1.371165 A    
C18   C19   1.393159 A    
O1    Zn1   1.999834 S    
O2    Zn2   1.994450 S    
O6    C3    1.282962 A    
O4    Zn2   2.007658 S    
C5    H1    1.085378 S    
C10   C17   1.396245 A    
C21   C22   1.392245 A    
O2    C1    1.292115 A    
N1    C37   1.367547 A    
C22   C23   1.398350 A    
C36   N1    1.381172 A    
C22   H7    1.082671 S    
C9    C14   1.394486 A    
N5    O13   1.300636 A    
C2    C19   1.421053 S    
Zn2   O6    1.999834 S    
N4    O11   1.300816 A    
C7    H2    1.081515 S    
C12   C13   1.418395 A    
C32   N5    1.438353 S    
C12   N6    1.433746 S    
C29   N4    1.439397 S    
