data_mof_unit_42252.cif
_audit_creation_date              2012-12-10T18:12:34-0500
_audit_creation_method            fapswitch 2.2
_symmetry_space_group_name_H-M    P1
_symmetry_Int_Tables_number       1
_space_group_crystal_system       triclinic
_cell_length_a                    12.844005
_cell_length_b                    13.05115
_cell_length_c                    15.691908
_cell_angle_alpha                 95.009231
_cell_angle_beta                  104.013544
_cell_angle_gamma                 80.821124
_cell_volume                      2516.19722136

loop_
_atom_site_label
_atom_site_type_symbol
_atom_type_description
_atom_site_fract_x
_atom_site_fract_y
_atom_site_fract_z
_atom_type_partial_charge
C1    C     C_R   0.438168 0.691433 0.488391 0.880709
C2    C     C_3   0.505907 0.498912 0.917888 -0.077699
C3    C     C_3   0.507625 0.401033 0.021312 0.488466
C4    C     C_3   0.495947 0.498635 0.082435 -0.087557
C5    C     C_3   0.595252 0.445513 0.990783 0.465021
C6    C     C_3   0.585273 0.543942 0.052438 -0.472689
C7    C     C_1   0.510046 0.500191 0.827761 0.111040
C8    C     C_1   0.491016 0.498217 0.172409 0.128388
C9    C     C_R   0.714107 0.048297 0.469568 0.459092
C10   C     C_R   0.598824 0.197268 0.514921 -0.239326
C11   C     C_R   0.295225 0.847121 0.493805 0.419776
C12   C     C_R   0.502762 0.500752 0.661902 0.885567
C13   C     C_R   0.266004 0.954301 0.493082 -0.195839
C14   C     C_R   0.340385 0.017520 0.485964 -0.205063
C15   C     C_R   0.445597 0.974138 0.477009 0.133373
C16   C     C_R   0.465016 0.867198 0.457215 -0.023649
C17   C     C_R   0.531570 0.032908 0.485501 -0.121554
C18   C     C_R   0.627466 0.988568 0.456312 -0.101329
C19   C     C_R   0.631264 0.887302 0.415695 0.443301
C20   C     C_R   0.551284 0.828108 0.417505 -0.218362
C21   C     C_R   0.527208 0.133193 0.526221 0.456999
C22   C     C_R   0.697185 0.153097 0.495832 -0.279408
C23   C     C_R   0.561340 0.308741 0.512163 0.934366
C24   C     C_R   0.396794 0.802210 0.476712 -0.191906
C25   C     C_R   0.078588 0.394775 0.340582 0.413718
C26   C     C_R   0.803415 0.628726 0.609804 0.447521
C27   C     C_R   0.908043 0.654820 0.634079 0.325656
C28   C     C_R   0.986071 0.605568 0.591352 -0.221286
C29   C     C_R   0.961890 0.529463 0.523330 -0.037619
C30   C     C_R   0.853881 0.503354 0.498721 0.002451
C31   C     C_R   0.041600 0.481971 0.477081 -0.084965
C32   C     C_R   0.009237 0.424145 0.397675 -0.198374
C33   C     C_R   0.910907 0.387426 0.378530 0.496798
C34   C     C_R   0.496835 0.500143 0.338093 0.893152
C35   C     C_R   0.834012 0.424092 0.427704 0.291624
C36   C     C_R   0.152927 0.489783 0.505363 -0.061305
C37   C     C_R   0.188448 0.398750 0.374075 0.513375
C38   C     C_3   0.406639 0.552026 0.009548 0.464002
C39   C     C_3   0.494259 0.596496 0.979063 0.479295
C40   C     C_1   0.509010 0.500884 0.752147 -0.131488
C41   C     C_1   0.491160 0.498729 0.247907 -0.095041
C42   C     C_3   0.416610 0.453586 0.947925 -0.496730
H1    H     H_    0.312495 0.099806 0.485318 0.193385
H2    H     H_    0.186830 0.989422 0.502076 0.200230
H3    H     H_    0.555911 0.751057 0.385616 0.180066
H4    H     H_    0.186872 0.529866 0.566252 0.174535
H5    H     H_    0.064433 0.631504 0.610601 0.210445
H6    H     H_    0.652359 0.579962 0.096969 0.200552
H7    H     H_    0.349567 0.417459 0.903449 0.181100
H8    H     H_    0.760933 0.199690 0.500943 0.228155
N1    N     N_R   0.222180 0.444680 0.455580 -0.167341
N2    N     N_R   0.776980 0.554790 0.543960 -0.157542
O1    O     O_R   0.366730 0.627160 0.478790 -0.559810
O2    O     O_R   0.544830 0.662520 0.507160 -0.573850
O3    O     O_R   0.410960 0.482330 0.609040 -0.617031
O4    O     O_R   0.589060 0.517690 0.637410 -0.560767
O5    O     O_R   0.455170 0.337480 0.492840 -0.587489
O6    O     O_R   0.633270 0.372840 0.521210 -0.571281
O7    O     O_R   0.410940 0.482310 0.362590 -0.554314
O8    O     O_R   0.589040 0.517670 0.390960 -0.566692
Zn1   Zn    Zn3+2 0.381080 0.476390 0.481050 1.035459
Zn2   Zn    Zn3+2 0.618920 0.523610 0.518950 1.048401
O9    O     O_3   0.485123 0.696903 0.948731 -0.588333
C43   C     C_3   0.491001 0.770182 0.020522 -0.217343
H9    H     H_    0.573353 0.760829 0.064894 0.179265
H10   H     H_    0.428614 0.765545 0.057832 0.180501
H11   H     H_    0.475343 0.849169 0.995016 0.190330
O10   O     O_3   0.452275 0.170521 0.575920 -0.621490
C44   C     C_3   0.504529 0.164211 0.665727 -0.258020
H12   H     H_    0.443303 0.189396 0.705303 0.184706
H13   H     H_    0.567201 0.217078 0.685155 0.150701
H14   H     H_    0.540994 0.082909 0.681908 0.187996
Cl1   Cl    Cl    0.201750 0.775365 0.518510 -0.547314
O11   O     O_3   0.260116 0.369598 0.320502 -0.571313
C45   C     C_3   0.313735 0.267370 0.337442 -0.242801
H15   H     H_    0.400302 0.264489 0.336783 0.208647
H16   H     H_    0.281284 0.211992 0.283836 0.128720
H17   H     H_    0.309417 0.238799 0.401142 0.140240
O12   O     O_3   0.892281 0.308474 0.313307 -0.551479
C46   C     C_3   0.938157 0.211557 0.350203 -0.183199
H18   H     H_    0.927690 0.149477 0.297160 0.205425
H19   H     H_    0.896925 0.194222 0.400684 0.212179
H20   H     H_    0.026444 0.207841 0.380117 0.094613
O13   O     O_3   0.033369 0.385894 0.250547 -0.553417
C47   C     C_3   0.070766 0.289962 0.211613 -0.147023
H21   H     H_    0.136683 0.299593 0.179837 0.194565
H22   H     H_    0.003282 0.266129 0.158756 0.167375
H23   H     H_    0.096664 0.225936 0.257833 0.106832
Cl2   Cl    Cl    0.706559 0.693267 0.665746 -0.490101
O14   O     O_3   0.310705 0.608918 0.027601 -0.604746
C48   C     C_3   0.237291 0.636709 0.947909 -0.183671
H24   H     H_    0.207628 0.567019 0.909785 0.164344
H25   H     H_    0.273376 0.680622 0.907442 0.189482
H26   H     H_    0.165961 0.688164 0.963223 0.209076
Cl3   Cl    Cl    0.944063 0.750761 0.717637 -0.508916
Cl4   Cl    Cl    0.726769 0.351816 0.391346 -0.603343
O15   O     O_3   0.691175 0.388607 0.972764 -0.611194
C49   C     C_3   0.764613 0.360834 0.052455 -0.172812
H27   H     H_    0.728406 0.317586 0.093325 0.202686
H28   H     H_    0.794955 0.430429 0.090250 0.193676
H29   H     H_    0.835433 0.308734 0.036993 0.177314
O16   O     O_3   0.516776 0.300657 0.051703 -0.587156
C50   C     C_3   0.511305 0.227290 0.979988 -0.256704
H30   H     H_    0.573953 0.231889 0.942930 0.183923
H31   H     H_    0.429121 0.236566 0.935354 0.158433
H32   H     H_    0.526852 0.148340 0.005555 0.196450
Cl5   Cl    Cl    0.728078 0.829493 0.356603 -0.521407
Cl6   Cl    Cl    0.846874 0.998811 0.459589 -0.514408

loop_
_geom_bond_atom_site_label_1
_geom_bond_atom_site_label_2
_ccdc_geom_bond_type
O6    Zn2   S    
C23   O6    A    
C37   O11   S    
C3    C42   S    
C27   Cl3   S    
C19   C20   A    
N1    Zn1   S    
C4    C8    S    
O15   C49   S    
C28   H5    S    
C35   Cl4   S    
C10   C22   A    
C9    Cl6   S    
C26   C27   A    
C6    H6    S    
C30   C35   A    
C28   C29   A    
C38   C42   S    
C5    C6    S    
C37   N1    A    
C9    C22   A    
C15   C16   A    
C11   C24   A    
O8    Zn2   S    
C18   C19   A    
C44   H13   S    
C1    O1    A    
C45   H15   S    
C25   C37   A    
O1    Zn1   S    
C2    C39   S    
C2    C7    S    
O10   C44   S    
C25   O13   S    
C7    C40   T    
C36   H4    S    
C20   H3    S    
C22   H8    S    
C25   C32   A    
C16   C24   A    
C13   C14   A    
C34   O8    A    
O16   C50   S    
C34   C41   S    
C46   H20   S    
C47   H22   S    
C10   C21   A    
O7    Zn1   S    
O11   C45   S    
C43   H11   S    
C8    C41   T    
C46   H19   S    
C11   Cl1   S    
C48   H24   S    
C33   O12   S    
O2    Zn2   S    
C47   H21   S    
C17   C21   A    
O12   C46   S    
C26   Cl2   S    
C43   H10   S    
C12   C40   S    
C44   H14   S    
C1    O2    A    
C29   C30   A    
C26   N2    A    
C48   H25   S    
C31   C32   A    
C14   C15   A    
C16   C20   A    
C17   C18   A    
C50   H31   S    
O13   C47   S    
C45   H16   S    
C12   O4    A    
C36   N1    A    
C3    O16   S    
C4    C6    S    
C5    O15   S    
C49   H28   S    
C21   O10   S    
C34   O7    A    
O4    Zn2   S    
C2    C5    S    
C3    C4    S    
C50   H30   S    
C47   H23   S    
C23   O5    A    
C30   N2    A    
C6    C39   S    
C4    C38   S    
C46   H18   S    
C3    C5    S    
O5    Zn1   S    
C10   C23   S    
C49   H29   S    
C39   O9    S    
C38   O14   S    
C43   H9    S    
C29   C31   A    
N2    Zn2   S    
C32   C33   A    
C48   H26   S    
C11   C13   A    
O14   C48   S    
C38   C39   S    
C2    C42   S    
O3    Zn1   S    
C33   C35   A    
C50   H32   S    
C44   H12   S    
C45   H17   S    
C12   O3    A    
C42   H7    S    
O9    C43   S    
C9    C18   A    
C1    C24   S    
C49   H27   S    
C27   C28   A    
C31   C36   A    
C15   C17   A    
C13   H2    S    
C14   H1    S    
C19   Cl5   S    
