data_mof_unit_29559.cif
_audit_creation_date              2012-12-10T17:24:45-0500
_audit_creation_method            fapswitch 2.2
_symmetry_space_group_name_H-M    P1
_symmetry_Int_Tables_number       1
_space_group_crystal_system       triclinic
_cell_length_a                    23.514482
_cell_length_b                    10.891395
_cell_length_c                    9.612252
_cell_angle_alpha                 88.926785
_cell_angle_beta                  89.172645
_cell_angle_gamma                 92.701051
_cell_volume                      2458.29500911

loop_
_atom_site_label
_atom_site_type_symbol
_atom_type_description
_atom_site_fract_x
_atom_site_fract_y
_atom_site_fract_z
_atom_type_partial_charge
C1    C     C_R   0.502982 0.262480 0.501979 0.806428
C2    C     C_R   0.967090 0.436496 0.765434 0.099038
C3    C     C_R   0.027545 0.434825 0.763295 -0.037543
C4    C     C_R   0.059248 0.464692 0.639115 -0.099888
C5    C     C_R   0.029862 0.488675 0.515265 -0.024025
C6    C     C_R   0.060713 0.511570 0.389197 0.004573
C7    C     C_R   0.031912 0.539187 0.266801 -0.152252
C8    C     C_R   0.973154 0.544229 0.268083 -0.174937
C9    C     C_R   0.119797 0.472458 0.633392 0.552590
C10   C     C_R   0.120020 0.506534 0.387736 0.544964
C11   C     C_R   0.240709 0.596039 0.458544 -0.121641
C12   C     C_R   0.391379 0.498819 0.500646 0.820158
C13   C     C_R   0.300146 0.599843 0.453399 -0.049151
C14   C     C_R   0.329221 0.497597 0.501493 -0.064907
C15   C     C_R   0.298554 0.391020 0.547821 -0.247207
C16   C     C_R   0.239087 0.385437 0.547617 0.021843
C17   C     C_R   0.209732 0.489507 0.505338 0.283429
C18   C     C_R   0.760929 0.574384 0.589137 -0.087690
C19   C     C_R   0.701785 0.574304 0.586256 -0.258472
C20   C     C_R   0.671084 0.496059 0.497175 -0.033943
C21   C     C_R   0.700448 0.415305 0.410854 0.120111
C22   C     C_R   0.759999 0.415020 0.416603 -0.087402
C23   C     C_R   0.494358 0.736767 0.499041 0.779683
C24   C     C_R   0.790340 0.494512 0.504853 0.304749
C25   C     C_R   0.505124 0.106030 0.765760 -0.154787
C26   C     C_R   0.479977 0.047795 0.882494 -0.139307
C27   C     C_R   0.446439 0.940794 0.867167 -0.117366
C28   C     C_R   0.445188 0.881145 0.739846 -0.001013
C29   C     C_R   0.476360 0.933445 0.623276 0.036543
C30   C     C_R   0.496518 0.057281 0.631940 0.090191
C31   C     C_R   0.504556 0.127648 0.506624 -0.124836
C32   C     C_R   0.504302 0.068021 0.379400 -0.249459
C33   C     C_R   0.497189 0.941515 0.373824 -0.014481
C34   C     C_R   0.608741 0.498604 0.499001 0.782580
C35   C     C_R   0.486526 0.870944 0.497310 -0.148811
C36   C     C_R   0.579197 0.655114 0.138335 -0.161444
C37   C     C_R   0.618374 0.731181 0.063670 -0.001083
C38   C     C_R   0.617339 0.733665 0.920035 -0.237809
C39   C     C_R   0.577766 0.659623 0.850796 -0.144263
C40   C     C_R   0.538550 0.577526 0.922454 0.201141
C41   C     C_R   0.538961 0.576270 0.071836 0.201254
C42   C     C_R   0.463310 0.426518 0.077458 -0.084980
C43   C     C_R   0.463261 0.426021 0.929792 0.028897
C44   C     C_R   0.882369 0.522406 0.391019 0.535831
C45   C     C_R   0.877170 0.462536 0.631090 0.548589
C46   C     C_R   0.937688 0.463057 0.639725 -0.037474
C47   C     C_R   0.969703 0.489922 0.515879 -0.048639
C48   C     C_R   0.941636 0.518886 0.391014 0.003087
Cu1   Cu    Cu3+1 0.500000 0.499990 0.640660 0.955321
Cu2   Cu    Cu3+1 0.500000 0.500010 0.359340 0.949251
H1    H     H_    0.679951 0.636749 0.652562 0.147391
H2    H     H_    0.783153 0.352632 0.352887 0.152023
H3    H     H_    0.509825 0.120290 0.282496 0.163224
H4    H     H_    0.531113 0.188520 0.782706 0.164293
H5    H     H_    0.483821 0.089553 0.983482 0.138296
H6    H     H_    0.421048 0.904407 0.954791 0.166063
H7    H     H_    0.433381 0.366438 0.136143 0.146896
H8    H     H_    0.579863 0.666292 0.247715 0.196285
H9    H     H_    0.646779 0.794595 0.860736 0.152730
H10   H     H_    0.579749 0.671674 0.741092 0.199136
H11   H     H_    0.054735 0.558665 0.169620 0.197197
H12   H     H_    0.952474 0.567500 0.171826 0.184794
H13   H     H_    0.218161 0.675820 0.425422 0.160237
H14   H     H_    0.321104 0.311179 0.580770 0.164587
H15   H     H_    0.784006 0.636528 0.657194 0.157476
N1    N     N_R   0.851463 0.493577 0.509225 -0.462762
N2    N     N_R   0.148387 0.488178 0.508705 -0.464664
N3    N     N_R   0.500540 0.501210 0.147910 -0.198902
N4    N     N_R   0.500560 0.501290 0.852040 -0.223499
O1    O     O_R   0.500000 0.319640 0.618810 -0.590696
O2    O     O_2   0.843667 0.429164 0.741542 -0.541604
O3    O     O_2   0.150245 0.467497 0.751025 -0.508166
O4    O     O_2   0.149276 0.520042 0.266081 -0.513393
O5    O     O_R   0.500000 0.319660 0.381240 -0.585115
O6    O     O_R   0.417880 0.499950 0.618810 -0.551114
O7    O     O_R   0.417880 0.499980 0.381240 -0.573645
O8    O     O_R   0.500000 0.680340 0.618760 -0.601625
O9    O     O_R   0.500000 0.680360 0.381190 -0.583848
O10   O     O_R   0.582120 0.500020 0.618760 -0.599302
O11   O     O_R   0.582120 0.500050 0.381190 -0.599517
O12   O     O_2   0.855615 0.554920 0.273492 -0.536715
C49   C     C_3   0.934670 0.411846 0.902324 -0.724739
H16   H     H_    0.908236 0.490819 0.926218 0.263061
H17   H     H_    0.907881 0.325523 0.895983 0.266089
H18   H     H_    0.961855 0.400607 0.994181 0.195646
C50   C     C_3   0.669355 0.326564 0.316587 -0.804248
H19   H     H_    0.636900 0.269915 0.377379 0.220999
H20   H     H_    0.648322 0.377858 0.232431 0.251635
H21   H     H_    0.698799 0.263158 0.266715 0.231636
C51   C     C_1   0.402572 0.782651 0.727918 0.271691
N5    N     N_1   0.367256 0.705531 0.722121 -0.259276
C52   C     C_1   0.497547 0.889341 0.237514 0.281751
N6    N     N_1   0.497503 0.847814 0.127927 -0.301454
C53   C     C_1   0.056407 0.394216 0.887356 0.344542
N7    N     N_1   0.079271 0.361355 0.986231 -0.214034
C54   C     C_1   0.658301 0.810910 0.135553 0.247254
N8    N     N_1   0.690310 0.874912 0.193436 -0.270231
C55   C     C_1   0.422814 0.344452 0.862971 0.316826
N9    N     N_1   0.390099 0.278360 0.810271 -0.287459
C56   C     C_1   0.330388 0.709894 0.400477 0.267157
N10   N     N_1   0.354588 0.798040 0.358011 -0.278549
C57   C     C_1   0.208934 0.271472 0.587623 0.309112
N11   N     N_1   0.184732 0.180106 0.619702 -0.248909

loop_
_geom_bond_atom_site_label_1
_geom_bond_atom_site_label_2
_ccdc_geom_bond_type
C45   O2    S    
C44   N1    A    
C19   C20   A    
C9    O3    S    
C26   H5    S    
C9    N2    A    
C7    C8    A    
C10   N2    A    
C2    C46   A    
C18   H15   S    
C5    C6    A    
C5    C47   A    
C26   C27   A    
C29   C30   A    
C18   C24   A    
C1    O5    A    
C28   C29   A    
C11   H13   S    
Cu2   O5    S    
C30   C31   A    
C10   O4    S    
C50   H20   S    
C15   C16   A    
C1    C31   S    
C18   C19   A    
C56   N10   T    
C34   O11   A    
C46   C47   A    
C11   C17   A    
C31   C32   A    
C16   C17   A    
C15   H14   S    
Cu1   O6    S    
C24   N1    S    
C20   C34   S    
C43   N4    A    
Cu1   N4    S    
C21   C22   A    
C42   N3    A    
C36   C41   A    
C57   N11   T    
Cu2   O9    S    
C42   H7    S    
C41   N3    A    
C17   N2    S    
C40   N4    A    
C36   H8    S    
C25   H4    S    
C44   O12   S    
C33   C52   S    
C39   C40   A    
C27   H6    S    
C25   C26   A    
C45   C46   A    
C49   H16   S    
Cu1   O10   S    
C37   C54   S    
C8    C48   A    
C37   C38   A    
Cu2   O7    S    
C34   O10   A    
C47   C48   A    
C54   N8    T    
C23   O8    A    
C16   C57   S    
C40   C41   A    
C12   C14   S    
Cu1   Cu2   S    
C49   H17   S    
Cu1   O1    S    
C12   O7    A    
C43   C55   S    
C22   C24   A    
C2    C49   S    
C42   C43   A    
C3    C4    A    
C32   H3    S    
C45   N1    A    
C22   H2    S    
C25   C30   A    
C21   C50   S    
C36   C37   A    
C50   H19   S    
C4    C5    A    
C50   H21   S    
Cu2   O11   S    
C6    C10   A    
C6    C7    A    
C49   H18   S    
C29   C35   A    
C23   C35   S    
C1    O1    A    
C32   C33   A    
C13   C56   S    
C2    C3    A    
C11   C13   A    
C51   N5    T    
C38   C39   A    
C39   H10   S    
C52   N6    T    
C33   C35   A    
Cu1   O8    S    
C3    C53   S    
C23   O9    A    
C53   N7    T    
C38   H9    S    
C19   H1    S    
C20   C21   A    
C55   N9    T    
C12   O6    A    
C27   C28   A    
C14   C15   A    
C28   C51   S    
C4    C9    A    
C13   C14   A    
Cu2   N3    S    
C7    H11   S    
C44   C48   A    
C8    H12   S    
