data_mof_unit_23883.cif
_audit_creation_date              2012-12-10T18:32:45-0500
_audit_creation_method            fapswitch 2.2
_symmetry_space_group_name_H-M    P1
_symmetry_Int_Tables_number       1
_space_group_crystal_system       triclinic
_cell_length_a                    15.016165
_cell_length_b                    15.48733
_cell_length_c                    15.735871
_cell_angle_alpha                 90.146479
_cell_angle_beta                  104.601529
_cell_angle_gamma                 82.161098
_cell_volume                      3506.31868712

loop_
_atom_site_label
_atom_site_type_symbol
_atom_type_description
_atom_site_fract_x
_atom_site_fract_y
_atom_site_fract_z
_atom_type_partial_charge
C1    C     C_R   0.441985 0.662142 0.489889 0.860794
C2    C     C_3   0.398240 0.524206 0.022917 -0.393860
C3    C     C_3   0.497937 0.499756 0.082065 0.361452
C4    C     C_3   0.538631 0.408334 0.058117 -0.398863
C5    C     C_3   0.540860 0.408887 0.960547 -0.392501
C6    C     C_1   0.496318 0.499324 0.173231 -0.124961
C7    C     C_1   0.503367 0.501065 0.826648 -0.126069
C8    C     C_1   0.503278 0.500950 0.751216 -0.188061
C9    C     C_R   0.408266 0.754337 0.496948 -0.058029
C10   C     C_R   0.592615 0.245546 0.535799 -0.058512
C11   C     C_R   0.285538 0.873823 0.494053 -0.211605
C12   C     C_R   0.501087 0.500285 0.661667 0.902054
C13   C     C_R   0.313534 0.785849 0.482731 -0.199350
C14   C     C_R   0.474248 0.810594 0.524536 -0.268016
C15   C     C_R   0.448189 0.898040 0.539204 0.090637
C16   C     C_R   0.352140 0.930489 0.520390 0.179351
C17   C     C_R   0.515473 0.955111 0.565404 0.068673
C18   C     C_R   0.485626 0.045763 0.556137 0.068192
C19   C     C_R   0.389592 0.076610 0.541825 -0.235638
C20   C     C_R   0.324072 0.019329 0.525919 -0.241660
C21   C     C_R   0.611456 0.924846 0.598847 -0.231663
C22   C     C_R   0.676909 0.982240 0.612576 -0.237628
C23   C     C_R   0.558156 0.337824 0.514173 0.858141
C24   C     C_R   0.648898 0.070474 0.590153 0.175437
C25   C     C_R   0.552944 0.102345 0.560387 0.091451
C26   C     C_R   0.715395 0.127193 0.595446 -0.207502
C27   C     C_R   0.687274 0.214799 0.569208 -0.199043
C28   C     C_R   0.527003 0.188738 0.529944 -0.262895
C29   C     C_R   0.846011 0.626063 0.643246 0.002697
C30   C     C_R   0.754322 0.610241 0.613060 -0.034399
C31   C     C_R   0.794259 0.510234 0.509672 -0.075666
C32   C     C_R   0.888341 0.522646 0.536391 -0.041219
C33   C     C_R   0.913941 0.580999 0.605482 0.160686
C34   C     C_R   0.498877 0.499781 0.338315 0.904687
C35   C     C_R   0.957365 0.478994 0.497493 0.099614
C36   C     C_R   0.049816 0.499498 0.523977 0.085341
C37   C     C_R   0.073995 0.549077 0.599316 -0.270352
C38   C     C_R   0.007310 0.591052 0.637622 -0.199591
C39   C     C_R   0.938089 0.413591 0.435380 -0.239430
C40   C     C_R   0.007090 0.370233 0.400455 -0.206125
C41   C     C_R   0.095687 0.394706 0.420924 0.160994
C42   C     C_R   0.116722 0.464015 0.478438 -0.042732
C43   C     C_R   0.163338 0.350743 0.383504 -0.327729
C44   C     C_R   0.250781 0.376540 0.401886 -0.025032
C45   C     C_3   0.400451 0.524766 0.925331 -0.398229
C46   C     C_R   0.203767 0.494353 0.485598 0.199332
C47   C     C_3   0.561423 0.567835 0.967502 -0.398070
C48   C     C_3   0.559208 0.567289 0.065080 -0.392013
C49   C     C_1   0.496554 0.499309 0.248710 -0.185576
C50   C     C_3   0.501672 0.500682 0.917778 0.363414
H1    H     H_    0.356154 0.477368 0.889621 0.168550
H2    H     H_    0.352949 0.476506 0.034297 0.168513
H3    H     H_    0.610315 0.389365 0.100254 0.167034
H4    H     H_    0.251033 0.045114 0.514039 0.145888
H5    H     H_    0.455240 0.212404 0.499065 0.158969
H6    H     H_    0.739165 0.258161 0.575130 0.159222
H7    H     H_    0.749865 0.956918 0.637484 0.148824
H8    H     H_    0.211979 0.897841 0.480821 0.135812
H9    H     H_    0.261368 0.743003 0.462214 0.168008
H10   H     H_    0.546359 0.785871 0.531198 0.163475
H11   H     H_    0.363481 0.144805 0.544367 0.151655
H12   H     H_    0.637566 0.857178 0.616815 0.142877
H13   H     H_    0.029981 0.630673 0.693663 0.161674
H14   H     H_    0.304626 0.341328 0.375572 0.140832
H15   H     H_    0.990340 0.318185 0.355505 0.140662
H16   H     H_    0.700867 0.641692 0.642283 0.129758
H17   H     H_    0.768256 0.466908 0.458734 0.135615
H18   H     H_    0.634503 0.551800 0.962665 0.168127
H19   H     H_    0.145036 0.553500 0.632403 0.145864
H20   H     H_    0.871269 0.391433 0.414961 0.136284
H21   H     H_    0.149051 0.296216 0.341297 0.147705
H22   H     H_    0.534507 0.634334 0.937515 0.167497
H23   H     H_    0.531275 0.633554 0.082172 0.168595
H24   H     H_    0.631256 0.551033 0.107315 0.169509
H25   H     H_    0.498978 0.359504 0.925433 0.169106
H26   H     H_    0.613608 0.390197 0.955624 0.168081
H27   H     H_    0.495675 0.358698 0.070064 0.167688
N1    N     N_R   0.731690 0.552720 0.548990 -0.107575
N2    N     N_R   0.268300 0.447240 0.450950 -0.093191
O1    O     O_R   0.383120 0.605620 0.475300 -0.595027
O2    O     O_R   0.531890 0.639510 0.506740 -0.623139
O3    O     O_R   0.425580 0.483050 0.607130 -0.613849
O4    O     O_R   0.574360 0.516930 0.638570 -0.615209
O5    O     O_R   0.468110 0.360490 0.493260 -0.626963
O6    O     O_R   0.616880 0.394380 0.524700 -0.617521
O7    O     O_R   0.425640 0.483070 0.361430 -0.610511
O8    O     O_R   0.574420 0.516950 0.392870 -0.611680
Zn1   Zn    Zn3+2 0.400660 0.477370 0.479010 0.949005
Zn2   Zn    Zn3+2 0.599340 0.522630 0.520990 0.938881
H28   H     H_    0.367590 0.589725 0.039336 0.168011
H29   H     H_    0.370813 0.590554 0.894667 0.165911
H30   H     H_    0.788892 0.103721 0.619467 0.136132
N3    N     N_3   0.222020 0.579131 0.515713 -0.431963
H31   H     H_    0.161230 0.623917 0.504012 0.166107
H32   H     H_    0.259212 0.575154 0.581602 0.188711
N4    N     N_3   0.870318 0.686079 0.712387 -0.475620
H33   H     H_    0.810423 0.721708 0.723993 0.173566
H34   H     H_    0.903682 0.649099 0.769858 0.179171

loop_
_geom_bond_atom_site_label_1
_geom_bond_atom_site_label_2
_ccdc_geom_bond_type
C10   C27   A    
N3    H31   S    
C37   H19   S    
C4    H3    S    
C41   C42   A    
C36   C42   A    
C19   C20   A    
C9    C14   A    
C3    C6    S    
C22   H7    S    
C7    C8    T    
C44   H14   S    
C25   C28   A    
C31   H17   S    
C26   C27   A    
C37   C38   A    
C36   C37   A    
C24   C26   A    
C42   C46   A    
C46   N2    A    
O7    Zn1   S    
C45   H1    S    
C26   H30   S    
C15   C16   A    
C29   C33   A    
C3    C48   S    
C18   C19   A    
C34   O7    A    
C2    H28   S    
C9    C13   A    
C31   C32   A    
N4    H34   S    
C11   H8    S    
C8    C12   S    
O2    Zn2   S    
N3    H32   S    
C21   C22   A    
C41   C43   A    
C18   C25   A    
N2    Zn1   S    
C28   H5    S    
C47   C50   S    
N1    Zn2   S    
O4    Zn2   S    
C23   O5    A    
C32   C35   A    
C48   H24   S    
C1    C9    S    
C24   C25   A    
C20   H4    S    
C39   C40   A    
O6    Zn2   S    
C27   H6    S    
C17   C21   A    
C12   O4    A    
C35   C36   A    
C5    H25   S    
C35   C39   A    
C43   C44   A    
C29   C30   A    
C11   C16   A    
C47   C48   S    
C16   C20   A    
N4    H33   S    
C17   C18   A    
C12   O3    A    
C21   H12   S    
C30   H16   S    
C2    H2    S    
C40   C41   A    
C40   H15   S    
O8    Zn2   S    
C22   C24   A    
C5    C50   S    
C3    C4    S    
C47   H18   S    
C31   N1    A    
C38   H13   S    
C10   C28   A    
C15   C17   A    
C34   C49   S    
C43   H21   S    
C48   H23   S    
C44   N2    A    
O5    Zn1   S    
C7    C50   S    
C4    C5    S    
C29   N4    S    
C13   H9    S    
C10   C23   S    
C14   H10   S    
C33   C38   A    
C32   C33   A    
C5    H26   S    
C2    C3    S    
C4    H27   S    
O1    Zn1   S    
C11   C13   A    
C46   N3    S    
C45   C50   S    
C19   H11   S    
O3    Zn1   S    
C39   H20   S    
C34   O8    A    
C6    C49   T    
C45   H29   S    
C47   H22   S    
C2    C45   S    
C30   N1    A    
C23   O6    A    
C1    O1    A    
C14   C15   A    
C1    O2    A    
