data_mof_unit_26981.cif
_audit_creation_date              2012-12-11T15:27:09-0500
_audit_creation_method            fapswitch 2.2
_symmetry_space_group_name_H-M    P1
_symmetry_Int_Tables_number       1
_space_group_crystal_system       triclinic
_cell_length_a                    13.862434
_cell_length_b                    13.954843
_cell_length_c                    27.503808
_cell_angle_alpha                 89.834924
_cell_angle_beta                  90.105368
_cell_angle_gamma                 119.961413
_cell_volume                      4609.51031726

loop_
_atom_site_label
_atom_site_type_symbol
_atom_type_description
_atom_site_fract_x
_atom_site_fract_y
_atom_site_fract_z
_atom_type_partial_charge
C1    C     C_R   0.233849 0.786979 0.568578 0.541196
C2    C     C_R   0.212538 0.446654 0.568543 0.542452
C3    C     C_R   0.552995 0.765506 0.568700 0.540098
C4    C     C_3   0.698250 0.748817 0.786121 0.115979
C5    C     C_3   0.237122 0.964251 0.779901 0.113881
C6    C     C_3   0.025601 0.269791 0.779511 0.113475
C7    C     C_3   0.671504 0.730838 0.730289 0.097518
C8    C     C_3   0.259161 0.947208 0.725649 0.098107
C9    C     C_3   0.043208 0.308179 0.724930 0.098368
C10   C     C_1   0.711277 0.863688 0.858167 -0.072988
C11   C     C_1   0.114321 0.877747 0.851743 -0.071666
C12   C     C_1   0.116568 0.238066 0.851835 -0.073420
C13   C     C_1   0.630158 0.813850 0.657990 -0.081758
C14   C     C_1   0.178499 0.816883 0.656172 -0.082116
C15   C     C_1   0.178496 0.362147 0.656302 -0.082453
C16   C     C_1   0.601976 0.796535 0.616007 -0.020948
C17   C     C_1   0.199560 0.804760 0.615021 -0.020926
C18   C     C_1   0.193257 0.394991 0.615069 -0.020718
C19   C     C_R   0.071068 0.163462 0.941667 0.536475
C20   C     C_R   0.780346 0.887239 0.948713 0.536764
C21   C     C_R   0.091688 0.928338 0.941652 0.534629
C22   C     C_R   0.605776 0.803778 0.383668 0.008032
C23   C     C_R   0.195609 0.801585 0.383667 0.007935
C24   C     C_R   0.198079 0.394572 0.383621 0.007792
C25   C     C_R   0.587575 0.880366 0.357819 -0.128022
C26   C     C_R   0.119308 0.706924 0.357836 -0.128144
C27   C     C_R   0.293201 0.412132 0.357970 -0.128047
C28   C     C_R   0.610300 0.897132 0.308450 -0.006055
C29   C     C_R   0.102821 0.712947 0.308436 -0.006210
C30   C     C_R   0.287271 0.389186 0.308644 -0.006021
C31   C     C_R   0.656611 0.840073 0.284775 0.014616
C32   C     C_R   0.159703 0.816205 0.284731 0.014688
C33   C     C_R   0.183594 0.343284 0.284796 0.014542
C34   C     C_R   0.233550 0.786690 0.431146 0.543575
C35   C     C_R   0.213166 0.447049 0.431084 0.544448
C36   C     C_R   0.552940 0.766121 0.431136 0.543327
C37   C     C_R   0.681904 0.769371 0.311376 -0.126329
C38   C     C_R   0.229945 0.911983 0.311309 -0.126109
C39   C     C_R   0.087313 0.318880 0.311204 -0.125776
C40   C     C_R   0.655725 0.750486 0.360494 -0.127828
C41   C     C_R   0.248675 0.904657 0.360461 -0.127964
C42   C     C_R   0.094581 0.345300 0.360267 -0.127829
C43   C     C_R   0.638172 0.756352 0.203378 -0.117520
C44   C     C_R   0.244513 0.882585 0.203412 -0.117621
C45   C     C_R   0.118045 0.361489 0.203082 -0.117514
C46   C     C_R   0.665007 0.766918 0.154253 -0.130970
C47   C     C_R   0.234126 0.898973 0.154263 -0.130886
C48   C     C_R   0.101936 0.334775 0.153968 -0.130622
C49   C     C_R   0.762705 0.966984 0.162407 -0.120701
C50   C     C_R   0.032669 0.794755 0.162246 -0.121155
C51   C     C_R   0.204880 0.236910 0.162699 -0.121543
C52   C     C_R   0.738716 0.956339 0.211600 -0.102525
C53   C     C_R   0.043117 0.781275 0.211459 -0.102307
C54   C     C_R   0.218184 0.260928 0.211899 -0.102043
C55   C     C_R   0.677096 0.851101 0.232382 0.028391
C56   C     C_R   0.148952 0.825789 0.232331 0.028383
C57   C     C_R   0.174155 0.322562 0.232399 0.028213
C58   C     C_R   0.729101 0.872332 0.133859 0.019179
C59   C     C_R   0.128089 0.856814 0.133784 0.018016
C60   C     C_R   0.143625 0.270692 0.133851 0.017660
C61   C     C_R   0.107033 0.221828 0.086015 0.561720
C62   C     C_R   0.778409 0.885079 0.086062 0.549911
C63   C     C_R   0.115301 0.893336 0.085975 0.560905
C64   C     C_3   0.551433 0.820688 0.737843 -0.215638
C65   C     C_3   0.160446 0.739055 0.739460 -0.217268
C66   C     C_3   0.252061 0.424048 0.739620 -0.218680
C67   C     C_3   0.756978 0.938636 0.722178 -0.258368
C68   C     C_3   0.050150 0.830103 0.714951 -0.256758
C69   C     C_3   0.167192 0.224035 0.715753 -0.257238
C70   C     C_3   0.777790 0.953559 0.777931 -0.263943
C71   C     C_3   0.030406 0.842999 0.769535 -0.265134
C72   C     C_3   0.153083 0.191837 0.770319 -0.266443
C73   C     C_1   0.737039 0.874058 0.900443 -0.034827
C74   C     C_1   0.103540 0.899000 0.893084 -0.029226
C75   C     C_1   0.098612 0.205308 0.893146 -0.031535
C76   C     C_3   0.651969 0.825340 0.710728 0.049898
C77   C     C_3   0.162724 0.832759 0.707805 0.049888
C78   C     C_3   0.160553 0.330805 0.707900 0.050827
C79   C     C_3   0.574782 0.839115 0.793067 -0.209609
C80   C     C_3   0.138537 0.752788 0.793603 -0.206582
C81   C     C_3   0.238088 0.388667 0.793764 -0.207541
C82   C     C_3   0.688808 0.849522 0.805604 0.074686
C83   C     C_3   0.131476 0.859664 0.800542 0.073322
C84   C     C_3   0.132616 0.273356 0.800682 0.074214
Cr1   Cr    Cr6+3 0.164410 0.584450 0.499910 1.019224
Cr2   Cr    Cr6+3 0.415550 0.579960 0.499910 1.018981
Cr3   Cr    Cr6+3 0.420040 0.835590 0.499910 1.018773
Cr4   Cr    Cr6+3 0.156760 0.076070 0.017830 1.019308
Cr5   Cr    Cr6+3 0.923930 0.080690 0.017830 1.012689
Cr6   Cr    Cr6+3 0.919310 0.843240 0.017830 1.018317
H1    H     H_    0.576813 0.917019 0.803560 0.107079
H2    H     H_    0.058316 0.679767 0.804924 0.107102
H3    H     H_    0.312508 0.383927 0.805351 0.106672
H4    H     H_    0.474390 0.740003 0.731719 0.108500
H5    H     H_    0.240311 0.738899 0.736315 0.108480
H6    H     H_    0.248980 0.501843 0.736031 0.107801
H7    H     H_    0.505028 0.773379 0.814025 0.101479
H8    H     H_    0.201930 0.750270 0.817131 0.105037
H9    H     H_    0.238348 0.453117 0.817099 0.104548
H10   H     H_    0.788301 0.775141 0.788728 0.071718
H11   H     H_    0.213575 0.029196 0.778154 0.071763
H12   H     H_    0.961191 0.180529 0.778205 0.072176
H13   H     H_    0.547459 0.921141 0.375066 0.143774
H14   H     H_    0.078730 0.626189 0.375123 0.143555
H15   H     H_    0.374308 0.451798 0.375337 0.143263
H16   H     H_    0.589746 0.674534 0.219063 0.145881
H17   H     H_    0.326784 0.916642 0.219184 0.147229
H18   H     H_    0.084349 0.409928 0.218507 0.146823
H19   H     H_    0.639492 0.693288 0.132648 0.128018
H20   H     H_    0.308327 0.947830 0.132709 0.128513
H21   H     H_    0.053629 0.360429 0.132142 0.128808
H22   H     H_    0.771487 0.030175 0.233730 0.123482
H23   H     H_    0.968641 0.739387 0.233532 0.123486
H24   H     H_    0.259548 0.228224 0.234251 0.123395
H25   H     H_    0.814270 0.049212 0.147523 0.137987
H26   H     H_    0.949929 0.763363 0.147279 0.137877
H27   H     H_    0.235783 0.185347 0.148026 0.136835
H28   H     H_    0.718918 0.726192 0.293696 0.125097
H29   H     H_    0.272957 0.992057 0.293584 0.125022
H30   H     H_    0.006888 0.282323 0.293406 0.125310
H31   H     H_    0.535295 0.885738 0.723237 0.121047
H32   H     H_    0.093824 0.657148 0.726215 0.118422
H33   H     H_    0.335821 0.442728 0.726863 0.122011
H34   H     H_    0.670159 0.690986 0.379758 0.136107
H35   H     H_    0.307955 0.978475 0.379727 0.135929
H36   H     H_    0.020399 0.331450 0.379349 0.135961
H37   H     H_    0.831257 0.944229 0.703954 0.102678
H38   H     H_    0.049819 0.897894 0.693657 0.104732
H39   H     H_    0.101151 0.154744 0.694271 0.103918
H40   H     H_    0.746149 0.007259 0.707702 0.122408
H41   H     H_    0.980365 0.750644 0.701141 0.123039
H42   H     H_    0.248827 0.236906 0.702706 0.122630
H43   H     H_    0.774734 0.028014 0.790085 0.119405
H44   H     H_    0.953610 0.767747 0.782057 0.117622
H45   H     H_    0.230043 0.194219 0.783576 0.118293
H46   H     H_    0.862933 0.968825 0.786249 0.094545
H47   H     H_    0.015690 0.913750 0.774115 0.092484
H48   H     H_    0.082840 0.105898 0.774865 0.092822
H49   H     H_    0.746936 0.740603 0.711147 0.098160
H50   H     H_    0.254355 0.011446 0.703091 0.098976
H51   H     H_    0.980731 0.237855 0.702435 0.098514
O1    O     O_R   0.137310 0.468260 0.552980 -0.511086
O2    O     O_R   0.531740 0.669050 0.552980 -0.510353
O3    O     O_R   0.330950 0.862690 0.552980 -0.510166
O4    O     O_R   0.180530 0.983530 0.965090 -0.508032
O5    O     O_R   0.016470 0.197000 0.965090 -0.498894
O6    O     O_R   0.803000 0.819470 0.965090 -0.516360
O7    O     O_R   0.174120 0.688790 0.549730 -0.499807
O8    O     O_R   0.311210 0.485330 0.549730 -0.499311
O9    O     O_R   0.514670 0.825880 0.549730 -0.498634
O10   O     O_R   0.139940 0.470480 0.446230 -0.519438
O11   O     O_R   0.529520 0.669460 0.446230 -0.518992
O12   O     O_R   0.330540 0.860060 0.446230 -0.518537
O13   O     O_R   0.176560 0.690850 0.450770 -0.507439
O14   O     O_R   0.309150 0.485710 0.450770 -0.506725
O15   O     O_R   0.514290 0.823440 0.450770 -0.506623
O16   O     O_3   0.333333 0.666667 0.499990 -0.265304
O17   O     O_3   0.000000 0.000000 0.017910 -0.258770
O18   O     O_R   0.149710 0.171070 0.967700 -0.503787
O19   O     O_R   0.828930 0.978640 0.967700 -0.518631
O20   O     O_R   0.021360 0.850290 0.967700 -0.487228
O21   O     O_R   0.178510 0.985930 0.071830 -0.513258
O22   O     O_R   0.014070 0.192580 0.071830 -0.511625
O23   O     O_R   0.807420 0.821490 0.071830 -0.514977
O24   O     O_R   0.147830 0.173300 0.066650 -0.492408
O25   O     O_R   0.826700 0.974530 0.066650 -0.497486
O26   O     O_R   0.025470 0.852170 0.066650 -0.491085
C85   C     C_1   0.576419 0.965762 0.282500 0.181106
N1    N     N_1   0.549195 0.020684 0.261807 -0.320694
C86   C     C_1   0.034884 0.610762 0.282492 0.181668
N2    N     N_1   0.980542 0.528878 0.261802 -0.320014
C87   C     C_1   0.390118 0.422484 0.282868 0.181113
N3    N     N_1   0.472539 0.449292 0.262306 -0.319289
N4    N     N_2   0.578317 0.620403 0.719761 -0.503646
H52   H     H_    0.520269 0.615619 0.694949 0.247976
C88   C     C_3   0.606688 0.534701 0.712468 -0.310574
H53   H     H_    0.529521 0.452604 0.712456 0.133444
H54   H     H_    0.661780 0.535563 0.742025 0.170427
H55   H     H_    0.649496 0.547037 0.676970 0.131534
N5    N     N_2   0.369301 0.959191 0.718833 -0.503456
H56   H     H_    0.373443 0.901970 0.696649 0.245989
C89   C     C_3   0.459408 0.070510 0.709700 -0.310686
H57   H     H_    0.451838 0.096939 0.672425 0.132835
H58   H     H_    0.540290 0.072590 0.712851 0.132663
H59   H     H_    0.458475 0.129431 0.736479 0.170494
N6    N     N_2   0.027254 0.403086 0.717085 -0.503426
H60   H     H_    0.084217 0.465373 0.694963 0.247803
C90   C     C_3   0.914164 0.377457 0.707341 -0.310127
H61   H     H_    0.909098 0.454243 0.709700 0.133519
H62   H     H_    0.855567 0.317152 0.734285 0.169706
H63   H     H_    0.889037 0.342465 0.670213 0.132752
N7    N     N_2   0.641869 0.647853 0.815580 -0.497829
H64   H     H_    0.689701 0.644884 0.843706 0.240495
C91   C     C_3   0.525507 0.599046 0.828444 -0.276070
H65   H     H_    0.493678 0.511843 0.839530 0.131355
H66   H     H_    0.474663 0.599161 0.797364 0.173619
H67   H     H_    0.515938 0.643074 0.859962 0.128930
N8    N     N_2   0.335901 0.010451 0.811203 -0.498675
H68   H     H_    0.338586 0.065661 0.836807 0.238355
C92   C     C_3   0.380341 0.942750 0.829201 -0.274365
H69   H     H_    0.467982 0.997445 0.840640 0.131287
H70   H     H_    0.379818 0.886365 0.800825 0.172150
H71   H     H_    0.332737 0.895049 0.861582 0.135837
N9    N     N_2   0.977171 0.320841 0.810108 -0.498484
H72   H     H_    0.923048 0.268632 0.836286 0.238213
C93   C     C_3   0.042429 0.434052 0.826720 -0.271902
H73   H     H_    0.985264 0.464872 0.836803 0.132644
H74   H     H_    0.098863 0.489486 0.798053 0.172218
H75   H     H_    0.090521 0.437729 0.859664 0.134760

loop_
_geom_bond_atom_site_label_1
_geom_bond_atom_site_label_2
_ccdc_geom_bond_type
C58   C62   S    
C63   O21   A    
C91   H66   S    
C80   H2    S    
Cr6   O26   S    
C2    C18   S    
C24   C42   A    
C4    N7    S    
C15   C18   T    
Cr3   O15   S    
C24   C27   A    
C6    C9    S    
C24   C35   S    
Cr5   O17   S    
C71   H47   S    
N5    H56   S    
C25   C28   A    
C45   C57   A    
C33   C39   A    
Cr1   O16   S    
C90   H63   S    
C50   C59   A    
C61   O24   A    
C35   O14   A    
C37   C40   A    
Cr2   O11   S    
C4    C7    S    
C5    C83   S    
C10   C73   T    
C93   H74   S    
C23   C26   A    
C15   C78   S    
C86   N2    T    
C52   H22   S    
C39   H30   S    
C7    N4    S    
C12   C84   S    
C45   H18   S    
C90   H62   S    
Cr4   O18   S    
C8    N5    S    
C89   H57   S    
C26   H14   S    
N4    H52   S    
C88   H55   S    
C62   O23   A    
C37   H28   S    
Cr1   O7    S    
N5    C89   S    
C92   H69   S    
Cr3   O9    S    
C70   H43   S    
Cr4   O4    S    
Cr3   O12   S    
N8    H68   S    
C32   C38   A    
C29   C86   S    
C68   H38   S    
C79   H1    S    
C52   C55   A    
C69   H39   S    
Cr1   O13   S    
C80   H8    S    
C49   C52   A    
C2    O8    A    
C72   H48   S    
C91   H65   S    
C28   C85   S    
C65   C80   S    
C46   C58   A    
C27   C30   A    
C70   H46   S    
C14   C17   T    
C69   C78   S    
C35   O10   A    
C71   H44   S    
C80   C83   S    
C40   H34   S    
C43   C46   A    
C53   H23   S    
Cr2   O2    S    
C48   C60   A    
C39   C42   A    
C71   C83   S    
C34   O13   A    
Cr5   O5    S    
C66   C78   S    
C5    H11   S    
C50   C53   A    
C21   O20   A    
Cr6   O20   S    
C19   O5    A    
C41   H35   S    
C6    C84   S    
C38   C41   A    
C9    N6    S    
Cr2   O8    S    
C14   C77   S    
C9    H51   S    
C93   H73   S    
C36   O11   A    
C72   H45   S    
C81   H9    S    
C11   C83   S    
C5    N8    S    
C21   C74   S    
C10   C82   S    
C49   C58   A    
C31   C37   A    
Cr6   O23   S    
C90   H61   S    
C89   H59   S    
C21   O4    A    
Cr6   O17   S    
C68   H41   S    
Cr2   O14   S    
Cr1   O10   S    
C6    N9    S    
Cr6   O6    S    
C67   H37   S    
C5    C8    S    
C65   C77   S    
C81   H3    S    
C44   C56   A    
C13   C76   S    
C23   C34   S    
C22   C40   A    
C44   H17   S    
C64   C76   S    
C20   O6    A    
C3    O2    A    
C65   H32   S    
C30   C87   S    
C72   C84   S    
C38   H29   S    
C43   C55   A    
C88   H53   S    
C62   O25   A    
C22   C25   A    
N9    C93   S    
Cr4   O17   S    
C4    H10   S    
C8    C77   S    
C2    O1    A    
C64   C79   S    
C12   C75   T    
C67   H40   S    
N6    C90   S    
C69   H42   S    
C81   C84   S    
C87   N3    T    
C36   O15   A    
Cr5   O19   S    
C66   H6    S    
C45   C48   A    
C68   C77   S    
C85   N1    T    
C3    O9    A    
C33   C57   S    
C30   C33   A    
C49   H25   S    
C61   O22   A    
C59   C63   S    
C79   H7    S    
C28   C31   A    
C25   H13   S    
C69   C72   S    
C11   C74   T    
Cr1   O1    S    
C79   C82   S    
C44   C47   A    
C7    C76   S    
C51   C60   A    
C29   C32   A    
C47   H20   S    
C22   C36   S    
Cr3   O3    S    
C1    C17   S    
C23   C41   A    
C92   H71   S    
C8    H50   S    
C67   C70   S    
C19   O18   A    
N7    H64   S    
C51   C54   A    
C19   C75   S    
C13   C16   T    
C64   H4    S    
C1    O3    A    
C66   C81   S    
C7    H49   S    
C93   H75   S    
C68   C71   S    
Cr4   O21   S    
C54   H24   S    
C63   O26   A    
C51   H27   S    
N4    C88   S    
Cr5   O22   S    
C20   C73   S    
C50   H26   S    
C9    C78   S    
C6    H12   S    
C32   C56   S    
C70   C82   S    
Cr2   O16   S    
C89   H58   S    
Cr5   O25   S    
C34   O12   A    
C42   H36   S    
C47   C59   A    
C91   H67   S    
Cr3   O16   S    
C65   H5    S    
C48   H21   S    
C4    C82   S    
N9    H72   S    
C26   C29   A    
C92   H70   S    
Cr4   O24   S    
C20   O19   A    
C46   H19   S    
C53   C56   A    
C27   H15   S    
C66   H33   S    
C60   C61   S    
C1    O7    A    
N8    C92   S    
C67   C76   S    
C31   C55   S    
N6    H60   S    
C43   H16   S    
C3    C16   S    
C64   H31   S    
N7    C91   S    
C88   H54   S    
C54   C57   A    
