data_mof_unit_23043.cif
_audit_creation_date              2012-12-10T19:06:28-0500
_audit_creation_method            fapswitch 2.2
_symmetry_space_group_name_H-M    P1
_symmetry_Int_Tables_number       1
_space_group_crystal_system       triclinic
_cell_length_a                    23.473321
_cell_length_b                    10.808065
_cell_length_c                    9.603216
_cell_angle_alpha                 90.113663
_cell_angle_beta                  90.028474
_cell_angle_gamma                 91.555034
_cell_volume                      2435.44480331

loop_
_atom_site_label
_atom_site_type_symbol
_atom_type_description
_atom_site_fract_x
_atom_site_fract_y
_atom_site_fract_z
_atom_type_partial_charge
C1    C     C_R   0.500441 0.262695 0.499697 0.799470
C2    C     C_R   0.967624 0.259070 0.579725 -0.191218
C3    C     C_R   0.027116 0.258156 0.578596 0.234195
C4    C     C_R   0.058553 0.364278 0.532633 -0.033672
C5    C     C_R   0.028769 0.467374 0.481689 -0.053729
C6    C     C_R   0.059333 0.572217 0.433196 -0.072651
C7    C     C_R   0.030146 0.672568 0.379404 -0.230702
C8    C     C_R   0.970596 0.672721 0.373454 0.433986
C9    C     C_R   0.118791 0.372145 0.536868 0.547030
C10   C     C_R   0.119019 0.574841 0.438872 0.561442
C11   C     C_R   0.239261 0.482127 0.368776 -0.102439
C12   C     C_R   0.390935 0.498838 0.499855 0.770001
C13   C     C_R   0.298589 0.488759 0.371022 -0.214591
C14   C     C_R   0.328118 0.494385 0.498438 -0.030900
C15   C     C_R   0.297034 0.493580 0.623563 -0.218276
C16   C     C_R   0.237559 0.487147 0.620999 -0.098876
C17   C     C_R   0.208493 0.481311 0.493567 0.346457
C18   C     C_R   0.755346 0.383501 0.423855 -0.087801
C19   C     C_R   0.696211 0.391271 0.425301 -0.090847
C20   C     C_R   0.670340 0.482206 0.505305 -0.015737
C21   C     C_R   0.703613 0.559911 0.591452 -0.224738
C22   C     C_R   0.762999 0.550448 0.594308 0.292380
C23   C     C_R   0.499046 0.737380 0.500152 0.833887
C24   C     C_R   0.789143 0.464104 0.505798 0.286796
C25   C     C_R   0.528115 0.065394 0.606038 0.116072
C26   C     C_R   0.503277 0.129688 0.496805 -0.154630
C27   C     C_R   0.482915 0.063596 0.380034 -0.165246
C28   C     C_R   0.481023 0.934816 0.381819 -0.128192
C29   C     C_R   0.500477 0.870980 0.498901 -0.075032
C30   C     C_R   0.526043 0.937825 0.607450 0.075869
C31   C     C_3   0.515061 0.932998 0.760367 -0.516530
C32   C     C_3   0.518833 0.073797 0.759618 0.261170
C33   C     C_R   0.550422 0.512841 0.071814 0.175443
C34   C     C_R   0.608591 0.495358 0.500787 0.859561
C35   C     C_R   0.451354 0.476910 0.074020 -0.027462
C36   C     C_R   0.451328 0.477360 0.925988 -0.044300
C37   C     C_R   0.549563 0.509644 0.925137 0.229127
C38   C     C_3   0.593920 0.605369 0.903415 -0.508690
C39   C     C_3   0.596242 0.617639 0.061271 0.598272
C40   C     C_R   0.878141 0.563830 0.436084 0.643108
C41   C     C_R   0.878622 0.362147 0.537057 0.537029
C42   C     C_R   0.938141 0.361746 0.532186 -0.023464
C43   C     C_R   0.968437 0.466269 0.480363 -0.068539
C44   C     C_R   0.938549 0.569371 0.428354 -0.150355
Cu1   Cu    Cu3+1 0.500000 0.499980 0.640670 0.987938
Cu2   Cu    Cu3+1 0.500000 0.500020 0.359330 1.035029
H1    H     H_    0.944520 0.177613 0.617286 0.203815
H2    H     H_    0.670622 0.327728 0.362411 0.184954
H3    H     H_    0.683487 0.629743 0.654124 0.155403
H4    H     H_    0.465407 0.110929 0.291037 0.170993
H5    H     H_    0.461692 0.885538 0.295098 0.184036
H6    H     H_    0.471720 0.895399 0.785517 0.175658
H7    H     H_    0.550117 0.888306 0.816408 0.276275
H8    H     H_    0.478468 0.118707 0.788794 0.080280
H9    H     H_    0.411663 0.459045 0.127959 0.123734
H10   H     H_    0.411549 0.460177 0.871964 0.126770
H11   H     H_    0.631709 0.564091 0.854178 0.224522
H12   H     H_    0.577526 0.686015 0.846162 0.208497
H13   H     H_    0.054267 0.752020 0.340785 0.224580
H14   H     H_    0.217078 0.477486 0.269925 0.143866
H15   H     H_    0.321223 0.488990 0.272842 0.149377
H16   H     H_    0.318566 0.497805 0.723249 0.149517
H17   H     H_    0.214008 0.487137 0.717921 0.145152
H18   H     H_    0.775087 0.316403 0.356764 0.178786
N1    N     N_R   0.850146 0.462980 0.492338 -0.472170
N2    N     N_R   0.147331 0.476083 0.490330 -0.473644
N3    N     N_R   0.500360 0.500930 0.147930 -0.182912
N4    N     N_R   0.500360 0.500890 0.852020 -0.170353
O1    O     O_R   0.500000 0.319640 0.618810 -0.559000
O2    O     O_2   0.849276 0.263601 0.589251 -0.513582
O3    O     O_2   0.148884 0.277489 0.587067 -0.501973
O4    O     O_2   0.148698 0.676007 0.394508 -0.536542
O5    O     O_R   0.500010 0.319680 0.381230 -0.577369
O6    O     O_R   0.417880 0.499940 0.618820 -0.599219
O7    O     O_R   0.417880 0.499980 0.381240 -0.602282
O8    O     O_R   0.499990 0.680320 0.618770 -0.593975
O9    O     O_R   0.500000 0.680360 0.381190 -0.512017
O10   O     O_R   0.582120 0.500020 0.618760 -0.578440
O11   O     O_R   0.582120 0.500060 0.381180 -0.530953
O12   O     O_2   0.846918 0.657740 0.389548 -0.417763
N5    N     N_2   0.796214 0.631482 0.681250 -0.414270
H19   H     H_    0.775973 0.711504 0.708710 0.285765
C45   C     C_3   0.822055 0.572689 0.799967 -0.537192
H20   H     H_    0.845194 0.643516 0.863928 0.249990
H21   H     H_    0.853213 0.503664 0.766028 0.220549
H22   H     H_    0.788878 0.526202 0.865340 0.266862
S1    S     S_3+6 0.580688 0.135265 0.847910 0.043917
O13   O     O_2   0.591962 0.266916 0.804053 -0.280381
O14   O     O_2   0.570458 0.130939 0.002326 -0.254343
O15   O     O_3   0.637729 0.051213 0.808014 -0.483843
H23   H     H_    0.669257 0.087628 0.864667 0.397105
N6    N     N_2   0.054492 0.149515 0.624113 -0.386796
H24   H     H_    0.035680 0.109481 0.710681 0.257958
C46   C     C_3   0.063174 0.059863 0.514593 -0.510982
H25   H     H_    0.021484 0.023042 0.475450 0.242930
H26   H     H_    0.087803 0.981728 0.555989 0.231012
H27   H     H_    0.087579 0.102675 0.427151 0.244308
S2    S     S_3+6 0.666755 0.581278 0.119766 0.045911
O16   O     O_2   0.672448 0.443346 0.125925 -0.289694
O17   O     O_2   0.710025 0.632783 0.018322 -0.308611
O18   O     O_3   0.680773 0.644260 0.276502 -0.496290
H28   H     H_    0.701891 0.723019 0.257598 0.401880
S3    S     S_3+6 0.576467 0.770142 0.113404 0.032346
O19   O     O_2   0.587665 0.790775 0.265558 -0.249491
O20   O     O_2   0.612203 0.862742 0.033099 -0.248245
O21   O     O_3   0.507172 0.789669 0.077522 -0.594220
H29   H     H_    0.503527 0.879909 0.063831 0.368016
S4    S     S_3+6 0.940181 0.804441 0.294115 0.036530
O22   O     O_2   0.907038 0.874301 0.401126 -0.241533
O23   O     O_2   0.985702 0.889547 0.234838 -0.317237
O24   O     O_3   0.896614 0.758111 0.163763 -0.480517
H30   H     H_    0.877927 0.834261 0.132358 0.388895

loop_
_geom_bond_atom_site_label_1
_geom_bond_atom_site_label_2
_ccdc_geom_bond_type
S1    O13   D    
O18   H28   S    
C12   O6    A    
C41   C42   A    
C19   C20   A    
C23   O8    A    
C21   H3    S    
N5    H19   S    
C7    C8    A    
Cu1   Cu2   S    
C17   N2    S    
C33   C39   S    
Cu1   O8    S    
C18   C24   A    
C5    C6    A    
C23   C29   S    
C28   C29   A    
C37   C38   S    
C30   C31   S    
C28   H5    S    
C31   H7    S    
O21   H29   S    
C15   C16   A    
C37   N4    A    
S4    O22   D    
C18   C19   A    
C32   H8    S    
C9    N2    A    
C38   H12   S    
Cu2   O11   S    
C35   C36   A    
C16   C17   A    
C40   O12   S    
Cu1   O10   S    
C16   H17   S    
C31   H6    S    
C27   H4    S    
C20   C34   S    
C25   C32   S    
C5    C43   A    
C21   C22   A    
C8    S4    S    
C7    H13   S    
Cu2   O7    S    
N5    C45   S    
C10   N2    A    
Cu1   O1    S    
C22   N5    S    
C8    C44   A    
C19   H2    S    
C39   S2    S    
C41   N1    A    
C46   H27   S    
C25   C26   A    
C32   S1    S    
C35   H9    S    
C33   C37   A    
Cu1   O6    S    
C43   C44   A    
C29   C30   A    
C36   H10   S    
C34   O11   A    
C38   H11   S    
C45   H20   S    
C35   N3    A    
Cu1   N4    S    
N6    C46   S    
C26   C27   A    
S3    O20   D    
C23   O9    A    
C46   H26   S    
C24   N1    S    
C45   H21   S    
C12   C14   S    
S2    O17   D    
C40   N1    A    
S1    O14   D    
C1    C26   S    
C22   C24   A    
S1    O15   S    
C42   C43   A    
C11   H14   S    
S3    O19   D    
C33   N3    A    
C25   C30   A    
C11   C17   A    
O24   H30   S    
C31   C32   S    
C9    O3    S    
C4    C5    A    
C6    C10   A    
Cu2   O9    S    
C36   N4    A    
C39   S3    S    
C6    C7    A    
C2    H1    S    
S2    O18   S    
S4    O24   S    
C1    O5    A    
C2    C3    A    
Cu2   N3    S    
C34   O10   A    
C11   C13   A    
C18   H18   S    
O15   H23   S    
C38   C39   S    
C2    C42   A    
N6    H24   S    
C15   H16   S    
S4    O23   D    
S3    O21   S    
C46   H25   S    
C1    O1    A    
C40   C44   A    
C45   H22   S    
C13   H15   S    
C20   C21   A    
S2    O16   D    
C12   O7    A    
C27   C28   A    
C14   C15   A    
C3    N6    S    
C4    C9    A    
C13   C14   A    
Cu2   O5    S    
C3    C4    A    
C41   O2    S    
C10   O4    S    
