data_mof_unit_26804.cif
_audit_creation_date              2012-12-10T20:34:13-0500
_audit_creation_method            fapswitch 2.2
_symmetry_space_group_name_H-M    P1
_symmetry_Int_Tables_number       1
_space_group_crystal_system       triclinic
_cell_length_a                    9.92282
_cell_length_b                    10.665664
_cell_length_c                    13.584737
_cell_angle_alpha                 90.539562
_cell_angle_beta                  83.063698
_cell_angle_gamma                 89.939931
_cell_volume                      1427.13039751

loop_
_atom_site_label
_atom_site_type_symbol
_atom_type_description
_atom_site_fract_x
_atom_site_fract_y
_atom_site_fract_z
_atom_type_partial_charge
C1    C     C_R   0.499149 0.739372 0.503080 0.971662
C2    C     C_3   0.332918 0.921835 0.379896 0.293466
C3    C     C_R   0.921621 0.591203 0.549680 0.181106
C4    C     C_R   0.475618 0.501062 0.685595 0.948716
C5    C     C_R   0.938005 0.414722 0.444534 -0.098080
C6    C     C_R   0.083186 0.418989 0.441113 0.558801
C7    C     C_R   0.063721 0.592322 0.548018 -0.016637
C8    C     C_3   0.058783 0.627612 0.654378 -0.228581
C9    C     C_3   0.904184 0.622656 0.659069 -0.346491
C10   C     C_R   0.499260 0.260627 0.504410 0.959821
C11   C     C_R   0.524254 0.499446 0.314425 0.902508
C12   C     C_1   0.456390 0.508460 0.789359 -0.159892
C13   C     C_1   0.542248 0.498492 0.210576 -0.169133
C14   C     C_2   0.550953 0.499225 0.018958 -0.276677
C15   C     C_2   0.434861 0.522571 0.982561 0.576459
C16   C     C_1   0.442132 0.515781 0.877200 -0.151425
C17   C     C_1   0.551944 0.498251 0.122709 0.064414
C18   C     C_3   0.204727 0.576861 0.995714 -0.316731
C19   C     C_3   0.170718 0.377833 0.281121 -0.196430
C20   C     C_2   0.113600 0.757285 0.666991 0.433071
C21   C     C_2   0.843637 0.519762 0.725707 0.536345
C22   C     C_3   0.579225 0.838293 0.726034 -0.324214
C23   C     C_R   0.394783 0.936080 0.474560 -0.099977
C24   C     C_2   0.665195 0.130436 0.644760 0.500504
C25   C     C_3   0.559623 0.105849 0.286795 -0.147428
C26   C     C_3   0.348726 0.818854 0.229156 -0.215519
C27   C     C_2   0.875626 0.313389 0.390834 0.442604
C28   C     C_R   0.493502 0.870641 0.516255 -0.138567
C29   C     C_R   0.576493 0.933407 0.577974 0.420641
C30   C     C_R   0.578024 0.065212 0.579002 -0.141977
C31   C     C_R   0.494805 0.129117 0.517513 -0.167559
C32   C     C_R   0.398601 0.062517 0.472321 -0.105750
C33   C     C_3   0.338852 0.065647 0.375101 0.346426
H1    H     H_    0.104793 0.555168 0.698602 0.211731
H2    H     H_    0.079877 0.346245 0.247600 0.144460
H3    H     H_    0.182030 0.481405 0.273285 0.142598
H4    H     H_    0.079171 0.835129 0.625414 0.077001
H5    H     H_    0.770374 0.543626 0.788976 0.028884
H6    H     H_    0.642754 0.783954 0.772267 0.168798
H7    H     H_    0.489863 0.779415 0.714597 0.188081
H8    H     H_    0.545573 0.925086 0.768136 0.180956
H9    H     H_    0.757712 0.086057 0.662323 0.111176
H10   H     H_    0.594837 0.023178 0.325709 0.189808
H11   H     H_    0.598750 0.193248 0.317385 0.120673
H12   H     H_    0.853423 0.714604 0.675155 0.169645
H13   H     H_    0.605472 0.098310 0.208371 0.173939
H14   H     H_    0.421225 0.778762 0.168413 0.198826
H15   H     H_    0.294810 0.898131 0.198098 0.173903
H16   H     H_    0.275876 0.743615 0.255418 0.155917
H17   H     H_    0.787661 0.331082 0.353767 0.085796
H18   H     H_    0.644607 0.478341 0.971291 0.123355
H19   H     H_    0.235249 0.106748 0.384940 0.150014
H20   H     H_    0.228230 0.882462 0.394300 0.044813
H21   H     H_    0.177107 0.495199 0.950758 0.185662
H22   H     H_    0.225424 0.661108 0.948617 0.196315
H23   H     H_    0.116042 0.598621 0.051090 0.178886
H24   H     H_    0.260471 0.333868 0.237493 0.225521
N1    N     N_R   0.857130 0.500860 0.500650 -0.145386
N2    N     N_R   0.142770 0.500820 0.500650 -0.150619
O1    O     O_R   0.385310 0.683210 0.499990 -0.623127
O2    O     O_3   0.165408 0.338120 0.380553 -0.575473
O3    O     O_2   0.197860 0.775851 0.723874 -0.602119
O4    O     O_2   0.877700 0.410409 0.710995 -0.538872
O5    O     O_3   0.657387 0.866711 0.635203 -0.638834
O6    O     O_2   0.631238 0.230603 0.684314 -0.554912
O7    O     O_3   0.417021 0.114092 0.288528 -0.593670
O8    O     O_3   0.421979 0.859519 0.306080 -0.598969
O9    O     O_2   0.923120 0.207532 0.387113 -0.583648
O10   O     O_R   0.614650 0.683240 0.500000 -0.591934
O11   O     O_R   0.368820 0.499950 0.640340 -0.618318
O12   O     O_R   0.598170 0.499990 0.640350 -0.580039
O13   O     O_R   0.385350 0.316760 0.500000 -0.570073
O14   O     O_R   0.614690 0.316790 0.500010 -0.619514
O15   O     O_R   0.401830 0.500010 0.359650 -0.585020
O16   O     O_R   0.631180 0.500050 0.359660 -0.663487
O17   O     O_3   0.316449 0.548230 0.046700 -0.625025
Zn1   Zn    Zn3+2 0.346870 0.499980 0.499990 1.006860
Zn2   Zn    Zn3+2 0.653130 0.500020 0.500010 0.989948

loop_
_geom_bond_atom_site_label_1
_geom_bond_atom_site_label_2
_ccdc_geom_bond_type
C9    H12   S    
C24   H9    S    
N2    Zn1   S    
C4    O11   A    
C7    C8    S    
C19   H24   S    
C33   H19   S    
C29   C30   A    
C5    N1    A    
C8    C20   S    
C26   O8    S    
C6    O2    S    
C28   C29   A    
C3    C7    A    
C19   H3    S    
C5    C6    A    
C10   O14   A    
C22   H8    S    
C15   C16   S    
C27   O9    D    
C5    C27   S    
C10   C31   S    
C21   H5    S    
C31   C32   A    
C8    C9    S    
O15   Zn1   S    
C1    C28   S    
O14   Zn2   S    
C4    C12   S    
C27   H17   S    
C18   H23   S    
C15   O17   S    
C29   O5    S    
O11   Zn1   S    
C14   C17   S    
C25   H10   S    
O10   Zn2   S    
C25   H11   S    
C7    N2    A    
C33   O7    S    
O1    Zn1   S    
C12   C16   T    
C2    O8    S    
C26   H16   S    
N1    Zn2   S    
C11   O15   A    
C1    O10   A    
O13   Zn1   S    
C3    C9    S    
C14   H18   S    
C22   H7    S    
C8    H1    S    
C23   C28   A    
C18   H22   S    
C24   O6    D    
C2    C33   S    
C1    O1    A    
C26   H14   S    
C18   O17   S    
C6    N2    A    
C25   O7    S    
C2    H20   S    
C26   H15   S    
C13   C17   T    
C32   C33   S    
C11   O16   A    
C23   C32   A    
C20   H4    S    
C11   C13   S    
C9    C21   S    
C30   C31   A    
C19   O2    S    
C22   H6    S    
C4    O12   A    
C20   O3    D    
O16   Zn2   S    
C24   C30   S    
C21   O4    D    
C18   H21   S    
C22   O5    S    
C3    N1    A    
C2    C23   S    
C14   C15   D    
C19   H2    S    
C25   H13   S    
O12   Zn2   S    
C10   O13   A    
