data_mof_unit_61542.cif
_audit_creation_date              2012-10-26T18:46:47-0400
_audit_creation_method            fapswitch 2.2
_symmetry_space_group_name_H-M    P1
_symmetry_Int_Tables_number       1
_space_group_crystal_system       triclinic
_cell_length_a                    16.540285
_cell_length_b                    17.077933
_cell_length_c                    17.716278
_cell_angle_alpha                 87.16142
_cell_angle_beta                  89.206367
_cell_angle_gamma                 95.388082
_cell_volume                      4975.29939591

loop_
_atom_site_label
_atom_site_type_symbol
_atom_type_description
_atom_site_fract_x
_atom_site_fract_y
_atom_site_fract_z
_atom_type_partial_charge
C1    C     C_R   0.499589 0.500070 0.644680 0.555344
C2    C     C_R   0.425952 0.500953 0.847299 -0.106905
C3    C     C_R   0.500779 0.500091 0.114412 0.037700
C4    C     C_R   0.499221 0.499909 0.885588 0.037700
C5    C     C_1   0.500347 0.500030 0.033827 -0.021058
C6    C     C_1   0.499652 0.499970 0.966173 -0.021058
C7    C     C_R   0.179214 0.561235 0.455988 -0.153784
C8    C     C_R   0.820786 0.438765 0.544012 -0.153784
C9    C     C_R   0.264713 0.557618 0.457902 0.000698
C10   C     C_R   0.735287 0.442381 0.542097 0.000698
C11   C     C_R   0.246498 0.444240 0.541658 0.395754
C12   C     C_R   0.500411 0.499930 0.355319 0.555344
C13   C     C_R   0.753502 0.555760 0.458342 0.395754
C14   C     C_R   0.161731 0.447221 0.539852 -0.096239
C15   C     C_R   0.838268 0.552779 0.460148 -0.096239
C16   C     C_R   0.489228 0.348914 0.500645 0.566379
C17   C     C_R   0.510772 0.651086 0.499355 0.566379
C18   C     C_R   0.126740 0.505017 0.497714 -0.027898
C19   C     C_R   0.873260 0.494983 0.502286 -0.027898
C20   C     C_1   0.037273 0.502654 0.498496 -0.004320
C21   C     C_1   0.962727 0.497346 0.501504 -0.004320
C22   C     C_R   0.482696 0.263055 0.499912 0.030927
C23   C     C_R   0.427626 0.501098 0.233153 -0.131142
C24   C     C_R   0.517304 0.736945 0.500088 0.030927
C25   C     C_R   0.542547 0.221724 0.534661 -0.149090
C26   C     C_R   0.457453 0.778275 0.465339 -0.149090
C27   C     C_R   0.539414 0.140341 0.531563 -0.082778
C28   C     C_R   0.460586 0.859659 0.468436 -0.082778
C29   C     C_R   0.476202 0.098924 0.492866 0.224508
C30   C     C_R   0.523798 0.901076 0.507134 0.224508
C31   C     C_R   0.416318 0.140505 0.458703 -0.097335
C32   C     C_R   0.583682 0.859495 0.541297 -0.097335
C33   C     C_R   0.419595 0.222149 0.461819 -0.105771
C34   C     C_R   0.572374 0.498902 0.766847 -0.131142
C35   C     C_R   0.580405 0.777851 0.538181 -0.105771
C36   C     C_R   0.427666 0.501134 0.154544 -0.109694
C37   C     C_R   0.572334 0.498866 0.845456 -0.109695
C38   C     C_R   0.500912 0.500003 0.272329 0.017815
C39   C     C_R   0.499087 0.499997 0.727670 0.017815
C40   C     C_R   0.574210 0.498986 0.231436 -0.101727
C41   C     C_R   0.425790 0.501013 0.768564 -0.101727
C42   C     C_R   0.574048 0.499047 0.152701 -0.106905
Cu1   Cu    Cu3+1 0.419580 0.500000 0.500020 1.032669
Cu2   Cu    Cu3+1 0.580420 0.500000 0.499980 1.032669
H1    H     H_    0.408144 0.747540 0.435747 0.120030
H2    H     H_    0.632351 0.890471 0.571447 0.127321
H3    H     H_    0.374231 0.253447 0.432777 0.159498
H4    H     H_    0.625768 0.746553 0.567223 0.159498
H5    H     H_    0.370744 0.501959 0.125083 0.117476
H6    H     H_    0.629256 0.498041 0.874917 0.117476
H7    H     H_    0.370233 0.501943 0.263140 0.131337
H8    H     H_    0.629767 0.498057 0.736860 0.131337
H9    H     H_    0.631515 0.498095 0.260162 0.161074
H10   H     H_    0.368485 0.501904 0.739838 0.161074
H11   H     H_    0.630897 0.498237 0.121737 0.120889
H12   H     H_    0.591856 0.252460 0.564252 0.120030
H13   H     H_    0.369103 0.501762 0.878263 0.120889
H14   H     H_    0.154569 0.607360 0.421864 0.120024
H15   H     H_    0.845431 0.392640 0.578136 0.120024
H16   H     H_    0.215251 0.276441 0.678035 0.375028
H17   H     H_    0.784752 0.723560 0.321968 0.375030
H18   H     H_    0.303641 0.601239 0.424816 0.129738
H19   H     H_    0.696359 0.398761 0.575184 0.129738
H20   H     H_    0.121571 0.402536 0.570564 0.171668
H21   H     H_    0.878429 0.597464 0.429436 0.171666
H22   H     H_    0.413340 0.889674 0.440932 0.140957
H23   H     H_    0.586660 0.110326 0.559067 0.140957
H24   H     H_    0.367649 0.109529 0.428553 0.127321
N1    N     N_2   0.470846 0.016144 0.486322 -0.245337
N2    N     N_2   0.529154 0.983855 0.513678 -0.245337
N3    N     N_R   0.298780 0.499980 0.500030 -0.242972
N4    N     N_R   0.701220 0.500020 0.499970 -0.242972
O1    O     O_R   0.432070 0.499990 0.608760 -0.458568
O2    O     O_2   0.353050 0.370873 0.635033 -0.265325
O3    O     O_3   0.201849 0.329019 0.658730 -0.559744
O4    O     O_2   0.646950 0.629126 0.364967 -0.265321
O5    O     O_2   0.720175 0.705412 0.460149 -0.311339
O6    O     O_3   0.798151 0.670981 0.341270 -0.559747
O7    O     O_R   0.567930 0.500010 0.391240 -0.458568
O8    O     O_R   0.567880 0.500000 0.608730 -0.526664
O9    O     O_R   0.432120 0.500000 0.391270 -0.526664
O10   O     O_R   0.424660 0.386070 0.500710 -0.424447
O11   O     O_R   0.575340 0.613930 0.499290 -0.424447
O12   O     O_R   0.560480 0.386080 0.500680 -0.534597
O13   O     O_R   0.439520 0.613920 0.499320 -0.534597
O14   O     O_2   0.279825 0.294588 0.539851 -0.311336
S1    S     S_3+6 0.274867 0.359151 0.593757 0.019900
S2    S     S_3+6 0.725132 0.640849 0.406243 0.019900

loop_
_geom_bond_atom_site_label_1
_geom_bond_atom_site_label_2
_ccdc_geom_bond_type
Cu1   O1    S    
C30   C32   A    
C3    C42   A    
C27   C29   A    
C34   C37   A    
C14   C18   A    
C2    C4    A    
C10   H19   S    
C25   H12   S    
Cu2   O11   S    
C24   C35   A    
C2    H13   S    
C39   C41   A    
C15   C19   A    
C17   O13   A    
C19   C21   S    
C24   C26   A    
C8    H15   S    
C5    C6    T    
C11   C14   A    
C11   N3    A    
C2    C41   A    
C15   H21   S    
C12   O7    A    
C16   O12   A    
C26   H1    S    
O5    S2    D    
C11   S1    S    
C22   C25   A    
C16   C22   S    
C31   C33   A    
O2    S1    D    
O4    S2    D    
C7    H14   S    
C40   C42   A    
C32   H2    S    
C35   H4    S    
C30   N2    S    
C29   N1    S    
C31   H24   S    
C17   C24   S    
C34   C39   A    
C8    C19   A    
C32   C35   A    
Cu2   O8    S    
C4    C6    S    
O14   S1    D    
C3    C5    S    
C9    H18   S    
C17   O11   A    
Cu1   O13   S    
C28   H22   S    
Cu1   Cu2   S    
C42   H11   S    
C23   H7    S    
H17   O6    S    
C7    C18   A    
C14   H20   S    
C16   O10   A    
C4    C37   A    
O3    S1    S    
C23   C36   A    
C13   C15   A    
C33   H3    S    
O6    S2    S    
C7    C9    A    
C22   C33   A    
Cu1   N3    S    
C26   C28   A    
Cu2   O7    S    
C9    N3    A    
Cu2   O12   S    
C13   N4    A    
C25   C27   A    
C23   C38   A    
H16   O3    S    
C34   H8    S    
C1    O1    A    
C28   C30   A    
C29   C31   A    
C38   C40   A    
C37   H6    S    
C3    C36   A    
Cu1   O9    S    
C13   S2    S    
C12   O9    A    
Cu2   N4    S    
C18   C20   S    
C12   C38   S    
N1    N2    D    
C41   H10   S    
C27   H23   S    
C1    C39   S    
C20   C21   T    
C8    C10   A    
C40   H9    S    
Cu1   O10   S    
C1    O8    A    
C36   H5    S    
C10   N4    A    
