data_mof_unit_39557.cif
_audit_creation_date              2013-03-05T15:47:58-0500
_audit_creation_method            fapswitch 2.2
_symmetry_space_group_name_H-M    P1
_symmetry_Int_Tables_number       1
_space_group_crystal_system       triclinic
_cell_length_a                    26.798845
_cell_length_b                    7.07332
_cell_length_c                    11.97192
_cell_angle_alpha                 89.999339
_cell_angle_beta                  103.269019
_cell_angle_gamma                 89.991814
_cell_volume                      2208.77410009

loop_
_atom_site_label
_atom_site_type_symbol
_atom_site_description
_atom_site_fract_x
_atom_site_fract_y
_atom_site_fract_z
_atom_type_partial_charge
O1    O     O_R   0.437360 0.505910 0.042120 -0.590096
O2    O     O_R   0.562640 0.005910 0.957880 -0.590113
O3    O     O_R   0.542480 0.176660 0.157100 -0.594924
O4    O     O_R   0.457520 0.676660 0.842900 -0.594912
C1    C     C_R   0.556384 0.344788 0.198059 0.920796
C2    C     C_R   0.443615 0.844806 0.801942 0.920821
O5    O     O_R   0.436520 0.176250 0.054800 -0.594877
O6    O     O_R   0.563480 0.676250 0.945200 -0.594874
O7    O     O_R   0.455920 0.005040 0.854840 -0.590671
O8    O     O_R   0.544080 0.505040 0.145160 -0.590665
C3    C     C_R   0.417479 0.344817 0.063630 0.917609
C4    C     C_R   0.582524 0.844791 0.936380 0.917593
O9    O     O_3   0.506490 0.338900 0.934520 -0.279906
O10   O     O_3   0.493510 0.838900 0.065480 -0.279897
V1    V     V_3+5 0.498800 0.064400 0.012150 1.164945
V2    V     V_3+5 0.501200 0.564400 0.987850 1.164958
C5    C     C_R   0.681591 0.888452 0.760659 -0.161987
C6    C     C_R   0.318427 0.389937 0.239290 -0.162020
H1    H     H_    0.599348 0.885576 0.723279 0.107474
H2    H     H_    0.400668 0.387151 0.276642 0.107497
H3    H     H_    0.775414 0.911265 0.724935 0.148962
H4    H     H_    0.224608 0.413481 0.274977 0.148923
H5    H     H_    0.682442 0.906821 0.671209 0.132146
H6    H     H_    0.317580 0.409045 0.328690 0.132143
C7    C     C_R   0.632091 0.853467 0.904482 -0.081872
C8    C     C_R   0.367917 0.353605 0.095544 -0.081941
C9    C     C_R   0.867855 0.838887 0.215065 0.341320
C10   C     C_R   0.132153 0.337903 0.785072 0.341731
C11   C     C_R   0.821337 0.814678 0.247033 -0.203202
C12   C     C_R   0.178660 0.313227 0.753128 -0.203333
C13   C     C_R   0.775020 0.817748 0.165831 -0.254106
C14   C     C_R   0.224980 0.316631 0.834312 -0.254061
C15   C     C_R   0.773292 0.845033 0.048013 0.107664
C16   C     C_R   0.226716 0.344766 0.952067 0.107618
C17   C     C_R   0.820697 0.863646 0.013847 0.066711
C18   C     C_R   0.179315 0.363899 0.986198 0.066648
C19   C     C_R   0.726052 0.853905 0.963024 0.092276
C20   C     C_R   0.273957 0.353990 0.037028 0.092273
C21   C     C_R   0.727346 0.878044 0.845789 0.174579
C22   C     C_R   0.272669 0.379055 0.154200 0.174566
C23   C     C_R   0.774195 0.892906 0.814198 -0.242856
C24   C     C_R   0.225822 0.394410 0.185762 -0.242782
C25   C     C_R   0.820063 0.886305 0.896546 -0.204756
C26   C     C_R   0.179952 0.387424 0.103440 -0.204744
C27   C     C_R   0.677376 0.841998 0.990155 -0.250310
C28   C     C_R   0.322629 0.341600 0.009919 -0.250313
C29   C     C_R   0.634276 0.876366 0.789909 -0.197342
C30   C     C_R   0.365739 0.377467 0.210054 -0.197321
C31   C     C_R   0.867911 0.859644 0.097656 -0.344045
C32   C     C_R   0.132101 0.359502 0.902413 -0.344004
H7    H     H_    0.673052 0.826149 0.076927 0.107069
H8    H     H_    0.326949 0.325053 0.923185 0.107095
H9    H     H_    0.741229 0.798724 0.198825 0.142913
H10   H     H_    0.258768 0.297185 0.801355 0.142930
H11   H     H_    0.820753 0.796947 0.336615 0.173363
H12   H     H_    0.179226 0.294841 0.663582 0.173244
H13   H     H_    0.855164 0.900260 0.867051 0.132126
H14   H     H_    0.144852 0.401798 0.132899 0.132109
C33   C     C_R   0.091563 0.856280 0.311078 -0.134304
C34   C     C_R   0.908436 0.356364 0.688919 -0.134341
C35   C     C_R   0.409062 0.855263 0.688175 -0.083280
C36   C     C_R   0.590938 0.355173 0.311823 -0.083198
C37   C     C_R   0.106089 0.788048 0.513442 -0.080581
C38   C     C_R   0.893927 0.288731 0.486487 -0.080689
C39   C     C_R   0.072686 0.807435 0.406509 -0.064648
C40   C     C_R   0.927324 0.307886 0.593442 -0.064655
C41   C     C_R   0.144285 0.881339 0.322130 -0.259859
C42   C     C_R   0.855707 0.381241 0.677891 -0.259728
C43   C     C_R   0.179452 0.855625 0.429272 0.114269
C44   C     C_R   0.820547 0.355725 0.570723 0.114332
C45   C     C_R   0.159063 0.810939 0.525605 0.139896
C46   C     C_R   0.840949 0.311478 0.474341 0.140027
C47   C     C_R   0.233889 0.870274 0.443787 0.058667
C48   C     C_R   0.766106 0.370167 0.556224 0.058713
C49   C     C_R   0.266793 0.843603 0.555241 0.056053
C50   C     C_R   0.733212 0.343812 0.444734 0.056066
C51   C     C_R   0.244196 0.802692 0.648252 -0.212041
C52   C     C_R   0.755821 0.303385 0.351674 -0.211986
C53   C     C_R   0.191543 0.786643 0.633334 -0.208689
C54   C     C_R   0.808477 0.287483 0.366579 -0.208779
C55   C     C_R   0.256546 0.908152 0.350478 -0.207537
C56   C     C_R   0.743437 0.407493 0.649585 -0.207553
C57   C     C_R   0.309300 0.920599 0.365098 -0.242431
C58   C     C_R   0.690679 0.419698 0.634982 -0.242458
C59   C     C_R   0.341795 0.897000 0.472983 0.176944
C60   C     C_R   0.658191 0.396407 0.527064 0.176970
C61   C     C_R   0.321225 0.858084 0.569827 0.104484
C62   C     C_R   0.678775 0.358070 0.430166 0.104505
C63   C     C_R   0.394980 0.913481 0.484741 -0.174426
C64   C     C_R   0.604999 0.412573 0.515334 -0.174452
C65   C     C_R   0.428378 0.893727 0.591867 -0.181127
C66   C     C_R   0.571607 0.393039 0.408187 -0.181169
C67   C     C_R   0.356211 0.836897 0.677555 -0.250064
C68   C     C_R   0.643797 0.337169 0.322408 -0.250076
H15   H     H_    0.176086 0.753313 0.707167 0.149497
H16   H     H_    0.823944 0.254509 0.292708 0.149428
H17   H     H_    0.343978 0.809636 0.755639 0.106393
H18   H     H_    0.656040 0.310354 0.244286 0.106361
H19   H     H_    0.469260 0.909665 0.599869 0.103623
H20   H     H_    0.530717 0.408673 0.400215 0.103583
H21   H     H_    0.324834 0.949862 0.290843 0.151478
H22   H     H_    0.675135 0.448510 0.709280 0.151474
H23   H     H_    0.090539 0.752198 0.586668 0.172072
H24   H     H_    0.909488 0.253179 0.413225 0.171830
H25   H     H_    0.032159 0.783146 0.398260 0.189572
H26   H     H_    0.967854 0.283718 0.601665 0.189863
H27   H     H_    0.156327 0.917336 0.244940 0.112559
H28   H     H_    0.843656 0.416995 0.755107 0.112532
H29   H     H_    0.266059 0.779957 0.734471 0.138305
H30   H     H_    0.733965 0.280901 0.265426 0.138295
H31   H     H_    0.234663 0.928178 0.263979 0.145602
H32   H     H_    0.765313 0.427214 0.736114 0.145608
H33   H     H_    0.410727 0.943695 0.410952 0.120854
H34   H     H_    0.589242 0.442329 0.589167 0.120870
O11   O     O_R   0.955980 0.206520 0.854760 -0.604799
O12   O     O_R   0.044020 0.706520 0.145240 -0.605009
O13   O     O_R   0.063490 0.536770 0.945200 -0.575738
O14   O     O_R   0.936510 0.036770 0.054800 -0.575627
C69   C     C_R   0.082793 0.368392 0.937316 1.019133
C70   C     C_R   0.917215 0.868414 0.062722 1.019303
O15   O     O_R   0.957530 0.536190 0.842880 -0.576019
O16   O     O_R   0.042470 0.036190 0.157120 -0.575885
O17   O     O_R   0.937350 0.707210 0.042130 -0.604260
O18   O     O_R   0.062650 0.207210 0.957870 -0.604187
C71   C     C_R   0.943153 0.367449 0.802546 0.982909
C72   C     C_R   0.056847 0.867431 0.197452 0.983008
O19   O     O_3   0.993540 0.373870 0.065440 -0.280357
O20   O     O_3   0.006460 0.873870 0.934560 -0.280277
V3    V     V_3+5 0.001200 0.648440 0.987860 1.220829
V4    V     V_3+5 0.998800 0.148440 0.012140 1.220985
N1    N     N_R   0.914565 0.843878 0.302932 0.209583
O21   O     O_R   0.918265 0.748069 0.397334 -0.414659
O22   O     O_R   0.950235 0.965652 0.297035 -0.457267
N2    N     N_R   0.085435 0.342540 0.697239 0.209645
O23   O     O_R   0.081616 0.245361 0.603325 -0.414623
O24   O     O_R   0.049876 0.465092 0.702644 -0.457514

loop_
_geom_bond_atom_site_label_1
_geom_bond_atom_site_label_2
_geom_bond_distance
_ccdc_geom_bond_type
C12   C14   1.390081 A    
C37   C39   1.390293 A    
O16   C72   1.311846 A    
C67   H17   1.076678 S    
C9    C11   1.396055 A    
C58   H22   1.084577 S    
O1    C3    1.308322 A    
O2    C4    1.308354 A    
O20   V3    1.735204 S    
C2    O7    1.303308 A    
C45   C53   1.391110 A    
O3    V1    2.019889 S    
C21   C23   1.395855 A    
H4    C24   1.084429 S    
C69   O18   1.308775 A    
C33   C72   1.463301 S    
O5    C3    1.310652 A    
C5    H5    1.084164 S    
C48   C50   1.432948 A    
C6    H6    1.084180 S    
C50   C52   1.414192 A    
C2    C35   1.462535 S    
C34   C71   1.463322 S    
C58   C60   1.392139 A    
O13   C69   1.310419 A    
C60   C62   1.420306 A    
C31   C70   1.475881 S    
C68   H18   1.076665 S    
C28   H8    1.077259 S    
C9    N1    1.438848 S    
C5    C21   1.404979 A    
C14   H10   1.076308 S    
C43   C45   1.420520 A    
C6    C22   1.404977 A    
C44   C48   1.432768 A    
C33   C41   1.399801 A    
C10   C32   1.413391 A    
O12   V3    2.010775 S    
C55   H31   1.075890 S    
C26   H14   1.082497 S    
C36   C66   1.394759 A    
C17   C31   1.423265 A    
C13   C15   1.413830 A    
C43   C47   1.432773 A    
C63   C65   1.392273 A    
C17   C25   1.409662 A    
C7    C29   1.395691 A    
C16   C18   1.427293 A    
C70   O17   1.308815 A    
C8    C30   1.395703 A    
O13   V3    2.015512 S    
C59   C61   1.420313 A    
C34   C40   1.394951 A    
O6    V2    2.015906 S    
O12   C72   1.306072 A    
O17   V3    2.008223 S    
C23   C25   1.388794 A    
C64   H34   1.084093 S    
C24   C26   1.388789 A    
C48   C56   1.414113 A    
C47   C55   1.414121 A    
C55   C57   1.386893 A    
C62   C68   1.417650 A    
C51   C53   1.385692 A    
C19   C21   1.422175 A    
C63   H33   1.084110 S    
C32   C69   1.475852 S    
C37   H23   1.083616 S    
C60   C64   1.404591 A    
C59   C63   1.404583 A    
N2    O24   1.300699 A    
C11   H11   1.083452 S    
C3    C8    1.465229 S    
O3    C1    1.307594 A    
C12   H12   1.083462 S    
C15   C19   1.431977 A    
C6    C30   1.393396 A    
C41   C43   1.418320 A    
C56   H32   1.075888 S    
C53   H15   1.084711 S    
O4    V2    2.019742 S    
O19   V3    2.182706 S    
O15   C71   1.311845 A    
O14   V4    2.015695 S    
C25   H13   1.082488 S    
C64   C66   1.392279 A    
O6    C4    1.310627 A    
C52   C54   1.385685 A    
O18   V4    2.008322 S    
C52   H30   1.075609 S    
O1    V2    2.007667 S    
C13   H9    1.076296 S    
C51   H29   1.075612 S    
O2    V1    2.007570 S    
C49   C51   1.414201 A    
C38   C40   1.390291 A    
H2    C30   1.083476 S    
H3    C23   1.084414 S    
C49   C61   1.432470 A    
C57   C59   1.392141 A    
C37   C45   1.402842 A    
C56   C58   1.386899 A    
C36   C68   1.398728 A    
C10   N2    1.438705 S    
C18   C26   1.409644 A    
O4    C2    1.307607 A    
C54   H16   1.084699 S    
C47   C49   1.432959 A    
C19   C27   1.417303 A    
N1    O21   1.301887 A    
C7    C27   1.399979 A    
C18   C32   1.423183 A    
C66   H20   1.083539 S    
C38   H24   1.083629 S    
C50   C62   1.432464 A    
C57   H21   1.084592 S    
C16   C20   1.431958 A    
C5    C29   1.393405 A    
O15   V3    2.020019 S    
C22   C24   1.395858 A    
N1    O22   1.300729 A    
O20   V4    2.182672 S    
C39   H25   1.081501 S    
N2    O23   1.301654 A    
O11   C71   1.306094 A    
C4    C7    1.465253 S    
C10   C12   1.395996 A    
O7    V1    2.012545 S    
O19   V4    1.735181 S    
C1    O8    1.303325 A    
C46   C54   1.391102 A    
O8    V2    2.012467 S    
C33   C39   1.394957 A    
C20   C22   1.422198 A    
C41   H27   1.076972 S    
C40   H26   1.081456 S    
C61   C67   1.417666 A    
O5    V1    2.015723 S    
C15   C17   1.427292 A    
C1    C36   1.462519 S    
H1    C29   1.083468 S    
C38   C46   1.402833 A    
O14   C70   1.310401 A    
C20   C28   1.417278 A    
C8    C28   1.399970 A    
C9    C31   1.413606 A    
C34   C42   1.399798 A    
C11   C13   1.390065 A    
O9    V2    1.735907 S    
C42   C44   1.418320 A    
C27   H7    1.077241 S    
O10   V1    1.735930 S    
C44   C46   1.420513 A    
C42   H28   1.076977 S    
C65   H19   1.083541 S    
C35   C67   1.398735 A    
O16   V4    2.019872 S    
C35   C65   1.394770 A    
C14   C16   1.413888 A    
O11   V4    2.010699 S    
