data_mof_unit_33463.cif
_audit_creation_date              2012-12-10T22:11:14-0500
_audit_creation_method            fapswitch 2.2
_symmetry_space_group_name_H-M    P1
_symmetry_Int_Tables_number       1
_space_group_crystal_system       triclinic
_cell_length_a                    12.164
_cell_length_b                    12.329265
_cell_length_c                    22.946244
_cell_angle_alpha                 90.402944
_cell_angle_beta                  90.725652
_cell_angle_gamma                 90.980996
_cell_volume                      3440.45036574

loop_
_atom_site_label
_atom_site_type_symbol
_atom_type_description
_atom_site_fract_x
_atom_site_fract_y
_atom_site_fract_z
_atom_type_partial_charge
C1    C     C_R   0.657082 0.998308 0.579048 0.949830
C2    C     C_R   0.085895 0.824912 0.796831 -0.165931
C3    C     C_R   0.913805 0.257751 0.162919 -0.178730
C4    C     C_R   0.086221 0.742278 0.837099 -0.178704
C5    C     C_R   0.097663 0.911338 0.333554 -0.032452
C6    C     C_R   0.902329 0.088670 0.666454 -0.032426
C7    C     C_R   0.182878 0.913512 0.374311 -0.191480
C8    C     C_R   0.817107 0.086500 0.625700 -0.191405
C9    C     C_R   0.892023 0.088649 0.329857 -0.199344
C10   C     C_R   0.108019 0.911325 0.670166 -0.199301
C11   C     C_R   0.819133 0.084249 0.375574 -0.025994
C12   C     C_R   0.342918 0.001692 0.420953 0.949774
C13   C     C_R   0.180929 0.915707 0.624459 -0.025894
C14   C     C_3   0.993740 0.002023 0.247506 -0.098098
C15   C     C_3   0.006264 0.997976 0.752495 -0.098134
C16   C     C_R   0.653397 0.002270 0.420274 0.950020
C17   C     C_R   0.346609 0.997730 0.579730 0.949841
C18   C     C_R   0.089833 0.997257 0.291878 0.031218
C19   C     C_R   0.910179 0.002735 0.708117 0.031218
C20   C     C_R   0.255967 0.001465 0.377676 -0.041549
C21   C     C_R   0.744038 0.998533 0.622323 -0.041507
C22   C     C_R   0.892194 0.007490 0.286418 0.055903
C23   C     C_R   0.904924 0.817962 0.120854 -0.154412
C24   C     C_R   0.107813 0.992518 0.713586 0.055954
C25   C     C_R   0.733498 0.005259 0.373938 -0.164751
C26   C     C_R   0.266518 0.994742 0.626072 -0.164749
C27   C     C_R   0.001974 0.101052 0.206634 0.013649
C28   C     C_R   0.998033 0.898949 0.793366 0.013649
C29   C     C_R   0.000549 0.269145 0.124667 -0.043480
C30   C     C_R   0.999452 0.730855 0.875332 -0.043497
C31   C     C_R   0.990255 0.905102 0.205713 0.120185
C32   C     C_R   0.009739 0.094893 0.794290 0.120178
C33   C     C_R   0.990949 0.744822 0.119319 -0.014864
C34   C     C_R   0.095084 0.182049 0.879139 -0.154443
C35   C     C_R   0.009048 0.255175 0.880681 -0.014870
C36   C     C_R   0.992851 0.661407 0.075212 0.867658
C37   C     C_R   0.007148 0.338593 0.924788 0.867657
C38   C     C_R   0.999182 0.352865 0.081114 0.878205
C39   C     C_R   0.000818 0.647136 0.918886 0.878219
C40   C     C_R   0.161070 0.088517 0.299420 -0.082867
C41   C     C_R   0.838970 0.911459 0.700561 -0.082910
C42   C     C_R   0.243726 0.089783 0.341117 -0.145698
C43   C     C_R   0.756310 0.910196 0.658866 -0.145738
C44   C     C_R   0.806863 0.929046 0.285513 -0.187483
C45   C     C_R   0.077274 0.831200 0.202448 -0.039748
C46   C     C_R   0.193113 0.070994 0.714477 -0.187560
C47   C     C_R   0.724238 0.930822 0.326821 -0.048895
C48   C     C_R   0.275740 0.069224 0.673169 -0.048834
C49   C     C_R   0.089871 0.113322 0.165811 0.011048
C50   C     C_R   0.910113 0.886653 0.834172 0.011088
C51   C     C_R   0.087971 0.198014 0.126333 -0.219660
C52   C     C_R   0.912010 0.801962 0.873650 -0.219661
C53   C     C_R   0.905854 0.898924 0.162893 -0.164627
C54   C     C_R   0.094153 0.101086 0.837102 -0.164589
C55   C     C_2   0.180115 0.035779 0.157470 0.875164
C56   C     C_R   0.922706 0.168776 0.797563 -0.039790
C57   C     C_2   0.819846 0.964175 0.842498 0.875131
C58   C     C_2   0.012653 0.825542 0.342324 0.909857
C59   C     C_2   0.987326 0.174480 0.657689 0.909819
C60   C     C_2   0.628458 0.855533 0.318418 0.927647
C61   C     C_2   0.371484 0.144563 0.681557 0.927667
C62   C     C_2   0.841571 0.158240 0.425927 0.950863
C63   C     C_2   0.158574 0.841629 0.574139 0.950820
C64   C     C_R   0.076964 0.751603 0.159995 -0.155138
C65   C     C_R   0.923018 0.248376 0.840014 -0.155034
C66   C     C_R   0.914136 0.175119 0.203189 -0.165936
H1    H     H_    0.298230 0.160028 0.344680 0.160347
H2    H     H_    0.158511 0.831666 0.770540 0.166815
H3    H     H_    0.956424 0.150450 0.330767 0.179600
H4    H     H_    0.043642 0.849498 0.669265 0.179431
H5    H     H_    0.153680 0.206143 0.094999 0.170225
H6    H     H_    0.846282 0.793814 0.904972 0.170216
H7    H     H_    0.838873 0.814245 0.088742 0.158607
H8    H     H_    0.161146 0.185779 0.911244 0.158612
H9    H     H_    0.144642 0.695630 0.158799 0.153454
H10   H     H_    0.855330 0.304337 0.841216 0.153444
H11   H     H_    0.844868 0.312235 0.161282 0.164734
H12   H     H_    0.701825 0.839938 0.655292 0.160355
H13   H     H_    0.155176 0.687817 0.838750 0.164755
H14   H     H_    0.189672 0.847697 0.405220 0.197587
H15   H     H_    0.810295 0.152332 0.594803 0.197559
H16   H     H_    0.153161 0.161283 0.273933 0.151287
H17   H     H_    0.846903 0.838681 0.726036 0.151282
H18   H     H_    0.251631 0.929583 0.103115 0.347683
H19   H     H_    0.748299 0.070385 0.896834 0.347675
H20   H     H_    0.897323 0.763797 0.395751 0.356892
H21   H     H_    0.102654 0.236248 0.604269 0.356894
H22   H     H_    0.463777 0.833321 0.320928 0.349471
H23   H     H_    0.803751 0.864222 0.253828 0.189100
H24   H     H_    0.536157 0.166851 0.679044 0.349458
H25   H     H_    0.893788 0.306141 0.453764 0.354451
H26   H     H_    0.106804 0.693539 0.546374 0.354400
H27   H     H_    0.196192 0.135845 0.746148 0.189122
H28   H     H_    0.840573 0.957591 0.162169 0.149872
H29   H     H_    0.159447 0.042432 0.837818 0.149865
H30   H     H_    0.148258 0.835846 0.231120 0.157597
H31   H     H_    0.851713 0.164113 0.768898 0.157558
H32   H     H_    0.841542 0.168395 0.229498 0.166803
O1    O     O_R   0.621380 0.090460 0.561410 -0.602685
O2    O     O_R   0.912410 0.372520 0.941210 -0.621525
O3    O     O_R   0.905660 0.383870 0.059980 -0.617514
O4    O     O_R   0.094340 0.616130 0.940020 -0.617524
O5    O     O_R   0.092570 0.390420 0.063230 -0.627581
O6    O     O_R   0.907430 0.609580 0.936770 -0.627584
O7    O     O_R   0.900680 0.620930 0.055550 -0.624103
O8    O     O_R   0.099320 0.379070 0.944450 -0.624103
O9    O     O_2   0.251973 0.025331 0.194527 -0.634939
O10   O     O_R   0.186221 0.979356 0.104574 -0.791372
O11   O     O_2   0.747973 0.974561 0.805444 -0.634906
O12   O     O_R   0.378620 0.909540 0.438590 -0.602737
O13   O     O_R   0.813730 0.020640 0.895382 -0.791370
O14   O     O_2   0.998053 0.752478 0.306749 -0.629296
O15   O     O_R   0.952786 0.825963 0.393931 -0.765865
O16   O     O_2   0.001904 0.247545 0.693266 -0.629293
O17   O     O_R   0.047203 0.174072 0.606086 -0.765891
O18   O     O_2   0.642249 0.763230 0.300370 -0.610982
O19   O     O_R   0.522053 0.891517 0.328867 -0.804825
O20   O     O_2   0.357647 0.236873 0.699582 -0.610981
O21   O     O_R   0.477909 0.108621 0.671119 -0.804787
O22   O     O_2   0.831668 0.125488 0.475792 -0.620362
O23   O     O_R   0.617150 0.909540 0.438590 -0.604113
O24   O     O_R   0.879524 0.264192 0.416184 -0.800303
O25   O     O_2   0.168227 0.874389 0.524260 -0.620284
O26   O     O_R   0.121013 0.735565 0.583933 -0.800238
O27   O     O_R   0.382850 0.090460 0.561410 -0.604085
O28   O     O_R   0.619720 0.093230 0.440890 -0.618083
O29   O     O_R   0.380280 0.906770 0.559110 -0.618139
O30   O     O_R   0.618800 0.906770 0.559110 -0.635387
O31   O     O_R   0.381200 0.093230 0.440890 -0.635366
O32   O     O_R   0.087590 0.627480 0.058790 -0.621524
Zn1   Zn    Zn3+2 0.501730 0.123520 0.501540 1.033734
Zn2   Zn    Zn3+2 0.498270 0.876480 0.498460 1.033724
Zn3   Zn    Zn3+2 0.125690 0.504390 0.002180 0.981531
Zn4   Zn    Zn3+2 0.874310 0.495610 0.997820 0.981533

loop_
_geom_bond_atom_site_label_1
_geom_bond_atom_site_label_2
_ccdc_geom_bond_type
C1    C21   S    
C61   O21   S    
C14   C18   S    
C1    O30   A    
C14   C31   S    
C11   C62   S    
C17   O27   A    
C1    O1    A    
C49   C51   A    
C12   O12   A    
C63   O26   S    
C48   C61   S    
C15   C32   S    
O3    Zn4   S    
C43   H12   S    
C15   C19   S    
C6    C19   A    
C65   H10   S    
O6    Zn4   S    
C5    C58   S    
H20   O15   S    
C58   O14   D    
C17   C26   S    
C35   C37   S    
C9    H3    S    
C38   O3    A    
C2    H2    S    
H26   O26   S    
C9    C22   A    
C35   C65   A    
C56   C65   A    
C41   H17   S    
C33   C36   S    
C34   C35   A    
C3    C29   A    
C18   C40   A    
O29   Zn2   S    
C47   C60   S    
C21   C43   A    
C28   C50   A    
O8    Zn3   S    
C57   O11   D    
C23   C33   A    
H25   O24   S    
C29   C38   S    
C53   H28   S    
C58   O15   S    
C50   C52   A    
O12   Zn2   S    
C14   C27   S    
C25   C47   A    
C62   O22   D    
C44   C47   A    
C26   C48   A    
C40   C42   A    
C36   O7    A    
C41   C43   A    
C51   H5    S    
C56   H31   S    
C23   H7    S    
O30   Zn2   S    
C32   C54   A    
O2    Zn4   S    
C23   C53   A    
C46   C48   A    
C12   O31   A    
C8    H15   S    
C40   H16   S    
C39   O6    A    
C4    H13   S    
C5    C7    A    
C17   O29   A    
C6    C8    A    
C5    C18   A    
C10   C24   A    
C49   C55   S    
C55   O9    D    
C2    C4    A    
C16   O23   A    
C38   O5    A    
C52   H6    S    
C36   O32   A    
O27   Zn1   S    
C20   C42   A    
C13   C63   S    
C12   C20   S    
C8    C21   A    
C60   O19   S    
C31   C53   A    
C9    C11   A    
C54   H29   S    
C34   H8    S    
C10   H4    S    
C15   C24   S    
C34   C54   A    
C42   H1    S    
C13   C26   A    
C60   O18   D    
C3    C66   A    
O23   Zn2   S    
C3    H11   S    
C33   C64   A    
C62   O24   S    
C39   O4    A    
C29   C51   A    
C16   C25   S    
C30   C52   A    
C22   C44   A    
C61   O20   D    
C50   C57   S    
H21   O17   S    
C6    C59   S    
H19   O13   S    
C10   C13   A    
C63   O25   D    
C45   C64   A    
O1    Zn1   S    
C55   O10   S    
C24   C46   A    
H24   O21   S    
C14   C22   S    
O5    Zn3   S    
O4    Zn3   S    
C37   O8    A    
C27   C66   A    
C66   H32   S    
C15   C28   S    
C57   O13   S    
C46   H27   S    
O28   Zn1   S    
C59   O16   D    
H18   O10   S    
C64   H9    S    
C30   C39   S    
O32   Zn3   S    
C19   C41   A    
C59   O17   S    
C7    C20   A    
C31   C45   A    
C11   C25   A    
C7    H14   S    
C2    C28   A    
H22   O19   S    
C45   H30   S    
C16   O28   A    
C32   C56   A    
C37   O2    A    
C4    C30   A    
C44   H23   S    
C27   C49   A    
O7    Zn4   S    
O31   Zn1   S    
