data_mof_unit_40759.cif
_audit_creation_date              2012-12-10T18:56:24-0500
_audit_creation_method            fapswitch 2.2
_symmetry_space_group_name_H-M    P1
_symmetry_Int_Tables_number       1
_space_group_crystal_system       monoclinic
_cell_length_a                    10.707853
_cell_length_b                    9.834416
_cell_length_c                    19.428502
_cell_angle_alpha                 90.0
_cell_angle_beta                  90.138619
_cell_angle_gamma                 90.0
_cell_volume                      2045.92175797

loop_
_atom_site_label
_atom_site_type_symbol
_atom_type_description
_atom_site_fract_x
_atom_site_fract_y
_atom_site_fract_z
_atom_type_partial_charge
C1    C     C_R   0.872587 0.500079 0.500156 -0.027228
C2    C     C_R   0.127413 0.500079 0.499844 -0.027228
C3    C     C_R   0.386393 0.489890 0.964320 -0.189778
C4    C     C_R   0.613607 0.489890 0.035680 -0.189778
C5    C     C_R   0.386645 0.488989 0.035593 -0.187069
C6    C     C_R   0.613355 0.488989 0.964407 -0.187069
C7    C     C_R   0.500248 0.490048 0.071526 0.133022
C8    C     C_R   0.499752 0.490048 0.928474 0.133022
C9    C     C_R   0.259858 0.500016 0.499922 0.850715
C10   C     C_R   0.740141 0.500016 0.500078 0.850715
C11   C     C_R   0.500528 0.499751 0.365763 0.842314
C12   C     C_R   0.499472 0.499751 0.634236 0.842315
C13   C     C_R   0.063842 0.376154 0.499173 -0.190383
C14   C     C_R   0.936136 0.624049 0.499407 -0.203238
C15   C     C_R   0.936158 0.376154 0.500827 -0.190383
C16   C     C_R   0.063864 0.624049 0.500592 -0.203239
C17   C     C_R   0.415729 0.409988 0.745467 0.087523
C18   C     C_R   0.417124 0.582562 0.252859 0.052165
C19   C     C_R   0.584271 0.409988 0.254533 0.087523
C20   C     C_R   0.582876 0.582562 0.747141 0.052165
C21   C     C_R   0.418797 0.408130 0.817142 -0.205404
C22   C     C_R   0.419968 0.579604 0.181228 -0.201331
C23   C     C_R   0.581203 0.408130 0.182858 -0.205404
C24   C     C_R   0.580032 0.579604 0.818771 -0.201331
C25   C     C_R   0.499494 0.492618 0.853506 0.054889
C26   C     C_R   0.500506 0.492617 0.146494 0.054889
C27   C     C_R   0.591583 0.072032 0.533430 0.455895
C28   C     C_R   0.407672 0.928290 0.467234 0.444623
C29   C     C_R   0.408417 0.072032 0.466570 0.455894
C30   C     C_R   0.592328 0.928290 0.532765 0.444623
C31   C     C_R   0.498815 0.498193 0.709540 -0.072998
C32   C     C_R   0.501185 0.498193 0.290460 -0.072999
H1    H     H_    0.112231 0.279454 0.498285 0.210277
H2    H     H_    0.887720 0.720745 0.498689 0.210469
H3    H     H_    0.887769 0.279454 0.501715 0.210278
H4    H     H_    0.112280 0.720745 0.501310 0.210470
H5    H     H_    0.357125 0.340595 0.845169 0.133651
H6    H     H_    0.357755 0.644755 0.151979 0.134024
H7    H     H_    0.642875 0.340595 0.154831 0.133651
H8    H     H_    0.642245 0.644755 0.848021 0.134024
H9    H     H_    0.297875 0.492022 0.937229 0.130830
H10   H     H_    0.702125 0.492022 0.062771 0.130830
H11   H     H_    0.298311 0.487367 0.062641 0.131617
H12   H     H_    0.701689 0.487367 0.937359 0.131617
N1    N     N_R   0.500000 0.857200 0.500000 -0.232476
N2    N     N_R   0.500000 0.142800 0.500000 -0.245032
O1    O     O_R   0.316770 0.614620 0.500000 -0.574830
O2    O     O_R   0.683230 0.385380 0.500000 -0.576235
O3    O     O_R   0.683230 0.614620 0.500000 -0.574830
O4    O     O_R   0.316770 0.385380 0.500000 -0.576235
O5    O     O_R   0.500030 0.614710 0.398180 -0.607763
O6    O     O_R   0.499970 0.385290 0.601820 -0.592511
O7    O     O_R   0.499970 0.614710 0.601820 -0.607763
O8    O     O_R   0.500030 0.385290 0.398180 -0.592511
Zn1   Zn    Zn3+2 0.500000 0.653120 0.500000 1.025298
Zn2   Zn    Zn3+2 0.500000 0.346880 0.500000 1.034388
F1    F     F_    0.682596 0.139906 0.567715 -0.616694
F2    F     F_    0.313978 0.860984 0.435220 -0.648058
F3    F     F_    0.317404 0.139906 0.432285 -0.616693
F4    F     F_    0.686022 0.860984 0.564780 -0.648058
C33   C     C_3   0.318381 0.320193 0.711006 -0.413255
C34   C     C_3   0.204258 0.403058 0.688367 -0.367917
C35   C     C_3   0.096814 0.309529 0.667529 -0.831910
H13   H     H_    0.126986 0.239058 0.626143 0.267737
H14   H     H_    0.065045 0.249042 0.712480 0.256985
H15   H     H_    0.016844 0.370839 0.648663 0.262432
H16   H     H_    0.172263 0.468877 0.731407 0.225985
H17   H     H_    0.229405 0.469452 0.644365 0.212725
H18   H     H_    0.357388 0.261692 0.667435 0.229961
H19   H     H_    0.286447 0.240805 0.747808 0.196768
C36   C     C_3   0.317731 0.671236 0.285670 -0.388672
C37   C     C_3   0.206461 0.585884 0.310109 -0.326010
C38   C     C_3   0.095808 0.676277 0.329028 -0.824501
H20   H     H_    0.123178 0.750748 0.369198 0.314897
H21   H     H_    0.061862 0.732109 0.282946 0.247307
H22   H     H_    0.018165 0.613009 0.348948 0.246427
H23   H     H_    0.176445 0.515342 0.268494 0.220460
H24   H     H_    0.234029 0.524117 0.355435 0.226389
H25   H     H_    0.356700 0.733098 0.327960 0.277409
H26   H     H_    0.283013 0.747047 0.247638 0.197199
C39   C     C_3   0.681620 0.320194 0.288994 -0.413256
C40   C     C_3   0.795742 0.403058 0.311632 -0.367917
C41   C     C_3   0.903186 0.309530 0.332471 -0.831910
H27   H     H_    0.873014 0.239059 0.373857 0.267737
H28   H     H_    0.934955 0.249042 0.287520 0.256985
H29   H     H_    0.983156 0.370839 0.351337 0.262433
H30   H     H_    0.827737 0.468877 0.268592 0.225985
H31   H     H_    0.770595 0.469453 0.355635 0.212725
H32   H     H_    0.642612 0.261692 0.332565 0.229961
H33   H     H_    0.713553 0.240805 0.252192 0.196768
C42   C     C_3   0.682269 0.671236 0.714330 -0.388672
C43   C     C_3   0.793538 0.585883 0.689891 -0.326009
C44   C     C_3   0.904192 0.676276 0.670972 -0.824500
H34   H     H_    0.876823 0.750748 0.630802 0.314897
H35   H     H_    0.938138 0.732108 0.717054 0.247307
H36   H     H_    0.981835 0.613008 0.651052 0.246427
H37   H     H_    0.823555 0.515341 0.731506 0.220460
H38   H     H_    0.765970 0.524117 0.644565 0.226389
H39   H     H_    0.643300 0.733098 0.672040 0.277409
H40   H     H_    0.716987 0.747047 0.752362 0.197199

loop_
_geom_bond_atom_site_label_1
_geom_bond_atom_site_label_2
_ccdc_geom_bond_type
C33   H19   S    
C35   H14   S    
C44   H34   S    
C38   H20   S    
C30   N1    A    
C36   H25   S    
C39   C40   S    
C43   H38   S    
C37   H23   S    
C7    C26   S    
C34   H16   S    
C28   C29   A    
C23   H7    S    
C40   H30   S    
C22   H6    S    
C23   C26   A    
C2    C13   A    
C37   H24   S    
C17   C33   S    
C20   C24   A    
C30   F4    S    
C1    C15   A    
C42   H40   S    
C2    C16   A    
C12   O7    A    
C39   H32   S    
C5    H11   S    
C35   H15   S    
C44   H35   S    
C6    H12   S    
C27   C30   A    
C8    C25   S    
C38   H21   S    
C4    C7    A    
C19   C32   A    
C15   H3    S    
C36   H26   S    
C12   O6    A    
C43   H37   S    
O7    Zn1   S    
C20   C42   S    
O8    Zn2   S    
C28   N1    A    
C9    O4    A    
C29   F3    S    
C24   C25   A    
C4    C6    A    
C3    C8    A    
C27   F1    S    
C42   C43   S    
C5    C7    A    
C6    C8    A    
O3    Zn1   S    
C17   C21   A    
C19   C23   A    
C13   H1    S    
C34   C35   S    
C41   H27   S    
C11   O8    A    
C39   H33   S    
C27   N2    A    
C41   H28   S    
C11   C32   S    
C9    O1    A    
C44   H36   S    
C13   C15   A    
C12   C31   S    
C10   O2    A    
C17   C31   A    
C38   H22   S    
C14   C16   A    
C18   C32   A    
O1    Zn1   S    
C33   H18   S    
C18   C36   S    
O2    Zn2   S    
C21   C25   A    
C3    H9    S    
C18   C22   A    
C1    C10   S    
C37   C38   S    
C3    C5    A    
C14   H2    S    
C28   F2    S    
C34   H17   S    
C29   N2    A    
C36   C37   S    
C16   H4    S    
C10   O3    A    
C4    H10   S    
C40   H31   S    
C43   C44   S    
C24   H8    S    
O5    Zn1   S    
C33   C34   S    
O4    Zn2   S    
C11   O5    A    
C35   H13   S    
C41   H29   S    
C21   H5    S    
N1    Zn1   S    
C40   C41   S    
C22   C26   A    
N2    Zn2   S    
C1    C14   A    
C42   H39   S    
C19   C39   S    
C2    C9    S    
O6    Zn2   S    
C20   C31   A    
