data_mof_unit_22120.cif
_audit_creation_date              2013-03-05T16:00:38-0500
_audit_creation_method            fapswitch 2.2
_symmetry_space_group_name_H-M    P1
_symmetry_Int_Tables_number       1
_space_group_crystal_system       triclinic
_cell_length_a                    10.761937
_cell_length_b                    14.7699
_cell_length_c                    14.708914
_cell_angle_alpha                 64.937191
_cell_angle_beta                  104.089584
_cell_angle_gamma                 102.903901
_cell_volume                      2034.85700054

loop_
_atom_site_label
_atom_site_type_symbol
_atom_site_description
_atom_site_fract_x
_atom_site_fract_y
_atom_site_fract_z
_atom_type_partial_charge
O1    O     O_R   0.455060 0.022100 0.338110 -0.591149
O2    O     O_R   0.512640 0.160150 0.379180 -0.601415
C1    C     C_R   0.480732 0.119509 0.312100 0.862272
O3    O     O_R   0.288900 0.930980 0.479450 -0.573847
O4    O     O_R   0.346480 0.069030 0.520520 -0.579364
C2    C     C_R   0.259743 0.003784 0.494185 0.858405
Cu1   Cu    Cu3+1 0.465900 0.918260 0.475680 1.008699
Cu2   Cu    Cu3+1 0.534100 0.081740 0.524320 1.044708
O5    O     O_R   0.487360 0.839850 0.620820 -0.608492
O6    O     O_R   0.544940 0.977900 0.661890 -0.507718
O7    O     O_R   0.653520 0.930970 0.479480 -0.563971
O8    O     O_R   0.711100 0.069020 0.520550 -0.565557
C3    C     C_R   0.516620 0.880702 0.687858 0.891383
C4    C     C_R   0.739736 0.000593 0.498737 0.841683
C5    C     C_3   0.029392 0.941736 0.432396 0.200527
H1    H     H_    0.053898 0.863146 0.471561 0.140043
C6    C     C_3   0.887791 0.935124 0.441491 -0.397736
H2    H     H_    0.824435 0.957365 0.365581 0.210439
H3    H     H_    0.850902 0.855726 0.484521 0.249185
H4    H     H_    0.114684 0.876494 0.636119 0.219086
C7    C     C_3   0.096969 0.956532 0.602259 -0.529475
C8    C     C_3   0.086238 0.117065 0.445649 -0.153943
C9    C     C_3   0.121392 0.006635 0.490213 -0.099349
H5    H     H_    0.132604 0.149833 0.503564 0.144847
C10   C     C_3   0.877483 0.002097 0.496153 -0.077564
C11   C     C_3   0.957798 0.965561 0.606115 0.192676
C12   C     C_3   0.937844 0.111544 0.434609 -0.453198
H6    H     H_    0.890660 0.135157 0.353285 0.215438
H7    H     H_    0.919700 0.166019 0.462327 0.215712
H8    H     H_    0.166732 0.993918 0.649564 0.225918
H9    H     H_    0.966299 0.024942 0.635509 0.194994
C13   C     C_R   0.471968 0.187109 0.203786 -0.110377
C14   C     C_R   0.514120 0.813558 0.795765 -0.154574
C15   C     C_R   0.447178 0.216203 0.025256 0.334263
C16   C     C_R   0.449517 0.149938 0.127421 -0.196449
C17   C     C_R   0.488878 0.290963 0.177629 -0.257356
C18   C     C_R   0.477035 0.359709 0.075854 0.057902
C19   C     C_R   0.459739 0.321790 0.998763 0.029562
C20   C     C_R   0.483310 0.465165 0.049413 0.094207
C21   C     C_R   0.485689 0.533176 0.946472 0.092114
C22   C     C_R   0.466559 0.493020 0.871538 -0.175962
C23   C     C_R   0.451696 0.389840 0.897069 -0.147311
C24   C     C_R   0.482120 0.504480 0.121941 -0.192648
C25   C     C_R   0.488617 0.607097 0.095280 -0.173706
C26   C     C_R   0.497967 0.674735 0.995983 0.090635
C27   C     C_R   0.499978 0.639015 0.921112 0.089414
C28   C     C_R   0.501325 0.777845 0.970432 -0.212079
C29   C     C_R   0.503908 0.847427 0.870188 0.344869
C30   C     C_R   0.515934 0.710630 0.823237 -0.225378
H10   H     H_    0.432273 0.364341 0.835446 0.195391
H11   H     H_    0.531129 0.687924 0.766672 0.191491
H12   H     H_    0.485289 0.633614 0.152936 0.153413
H13   H     H_    0.438821 0.069391 0.147428 0.188112
H14   H     H_    0.513600 0.316753 0.238819 0.164713
H15   H     H_    0.456257 0.539243 0.791192 0.146101
H16   H     H_    0.470331 0.457900 0.199552 0.136618
H17   H     H_    0.495165 0.803858 0.027769 0.178159
N1    N     N_R   0.585360 0.204570 0.560800 -0.245874
N2    N     N_R   0.414550 0.795430 0.439160 -0.207734
C31   C     C_R   0.700709 0.277479 0.679600 -0.227585
C32   C     C_R   0.678926 0.201863 0.642971 0.559675
C33   C     C_R   0.515511 0.283935 0.510326 -0.035996
C34   C     C_R   0.539775 0.367056 0.540711 -0.011602
C35   C     C_R   0.632166 0.359761 0.629092 0.025866
C36   C     C_R   0.478748 0.456989 0.486577 0.061213
C37   C     C_R   0.512490 0.538009 0.522265 -0.041424
C38   C     C_R   0.612368 0.527695 0.608596 0.262365
C39   C     C_R   0.663855 0.437629 0.663239 -0.176494
C40   C     C_R   0.390626 0.470759 0.394890 -0.183269
C41   C     C_R   0.338746 0.560379 0.338369 -0.174886
C42   C     C_R   0.367336 0.638502 0.372776 0.137312
C43   C     C_R   0.449042 0.627345 0.467138 0.000248
C44   C     C_R   0.314659 0.728401 0.312849 -0.281794
C45   C     C_R   0.342900 0.807088 0.346158 0.119442
C46   C     C_R   0.461751 0.706707 0.501261 0.069857
H18   H     H_    0.740006 0.432400 0.728339 0.194752
H19   H     H_    0.507762 0.699421 0.576874 0.167580
H20   H     H_    0.308292 0.878161 0.296937 0.186332
H21   H     H_    0.274798 0.568445 0.266706 0.162228
H22   H     H_    0.775291 0.273632 0.745287 0.184539
H23   H     H_    0.441099 0.279964 0.447745 0.139335
H24   H     H_    0.362601 0.414454 0.362664 0.147059
H25   H     H_    0.254651 0.738823 0.239277 0.170321
N3    N     N_R   0.489433 0.949934 0.845543 0.161301
O9    O     O_R   0.396205 0.991218 0.774568 -0.347206
O10   O     O_R   0.548770 0.993166 0.908153 -0.245741
N4    N     N_R   0.433960 0.174884 0.950247 0.130990
O11   O     O_R   0.353779 0.093215 0.955619 -0.281052
O12   O     O_R   0.517910 0.207004 0.889065 -0.320805
N5    N     N_R   0.043943 0.978251 0.325235 0.164211
O13   O     O_R   0.093277 0.923696 0.296845 -0.351428
O14   O     O_R   0.986306 0.053010 0.255272 -0.322396
N6    N     N_R   0.762012 0.125844 0.688746 0.136658
O15   O     O_R   0.874248 0.147790 0.660691 -0.392998
O16   O     O_R   0.748787 0.056541 0.778431 -0.270777
N7    N     N_R   0.682394 0.612229 0.630643 0.101183
O17   O     O_R   0.738228 0.686979 0.560399 -0.352372
O18   O     O_R   0.713922 0.605281 0.724360 -0.329990
N8    N     N_R   0.895900 0.871517 0.676757 0.137964
O19   O     O_R   0.902290 0.784715 0.676655 -0.277491
O20   O     O_R   0.843929 0.873746 0.746797 -0.301646
C47   C     C_2   0.135260 0.192520 0.348909 0.900321
O21   O     O_2   0.110883 0.279153 0.313673 -0.597822
O22   O     O_R   0.210225 0.165996 0.301104 -0.733223
H26   H     H_    0.233724 0.223808 0.236612 0.336494

loop_
_geom_bond_atom_site_label_1
_geom_bond_atom_site_label_2
_geom_bond_distance
_ccdc_geom_bond_type
N1    C33   1.369253 A    
N4    O11   1.301317 A    
C34   C36   1.438294 A    
N6    O15   1.299535 A    
C16   H13   1.083452 S    
C44   C45   1.391138 A    
C7    C11   1.549588 S    
Cu1   Cu2   2.701323 S    
C26   C27   1.414413 A    
C21   C27   1.425837 A    
C27   C30   1.403554 A    
C18   C19   1.422247 A    
C35   C39   1.386408 A    
C17   C18   1.401914 A    
N3    O10   1.301285 A    
C19   C23   1.399008 A    
C43   C46   1.427584 A    
O4    C2    1.299427 A    
O7    C4    1.300480 A    
C32   N6    1.424199 S    
C12   H7    1.112909 S    
C14   C30   1.401338 A    
C5    H1    1.115803 S    
C5    C6    1.539947 S    
C15   C16   1.401168 A    
C22   C23   1.387278 A    
O5    C3    1.305209 A    
C22   H15   1.077723 S    
C40   H24   1.076847 S    
Cu2   N1    2.029074 S    
C37   C43   1.446072 A    
N8    O19   1.299797 A    
C30   H11   1.076374 S    
N7    O18   1.301483 A    
C41   C42   1.393753 A    
C11   N8    1.467558 S    
C25   H12   1.084586 S    
N1    C32   1.364137 A    
C5    C9    1.574529 S    
C37   C38   1.426798 A    
C11   H9    1.109369 S    
N6    O16   1.300218 A    
C15   C19   1.420849 A    
C47   O21   1.223350 D    
O3    Cu1   1.971539 S    
Cu1   N2    2.029421 S    
O22   H26   1.013435 S    
C26   C28   1.399632 A    
C38   C39   1.388945 A    
C13   C16   1.397338 A    
N3    O9    1.300872 A    
O3    C2    1.297300 A    
C20   C21   1.421662 A    
C42   C44   1.400973 A    
C20   C24   1.417823 A    
C10   C11   1.562872 S    
C29   N3    1.435548 S    
C31   C32   1.387060 A    
O1    C1    1.303927 A    
Cu1   O7    1.974841 S    
C24   C25   1.385031 A    
C3    C14   1.476052 S    
C33   C34   1.428282 A    
C28   H17   1.084617 S    
N5    O14   1.302078 A    
C28   C29   1.398006 A    
Cu2   O8    1.971540 S    
N7    O17   1.298866 A    
C6    H2    1.112722 S    
C1    C13   1.471472 S    
C47   O22   1.396251 S    
C46   H19   1.071453 S    
N2    C45   1.357101 A    
C23   H10   1.081169 S    
C21   C22   1.413442 A    
N8    O20   1.301053 A    
C33   H23   1.076076 S    
O8    C4    1.296660 A    
C8    C12   1.552497 S    
C7    C9    1.556794 S    
C38   N7    1.426816 S    
C8    H5    1.115070 S    
C10   C12   1.559521 S    
N2    C46   1.366351 A    
C25   C26   1.389908 A    
Cu1   O5    1.933103 S    
C31   H22   1.085019 S    
C41   H21   1.084402 S    
O1    Cu1   1.948355 S    
O2    Cu2   1.933103 S    
O6    C3    1.302465 A    
O4    Cu2   1.974841 S    
C13   C17   1.394083 A    
C39   H18   1.085375 S    
C7    H8    1.112988 S    
C8    C47   1.518039 S    
C31   C35   1.393430 A    
C6    C10   1.550308 S    
N4    O12   1.301497 A    
O2    C1    1.302499 A    
C42   C43   1.415463 A    
C18   C20   1.426338 A    
C5    N5    1.470411 S    
N5    O13   1.299848 A    
C36   C40   1.410876 A    
C2    C9    1.485142 S    
C6    H3    1.104082 S    
C15   N4    1.437089 S    
C4    C10   1.487129 S    
C40   C41   1.388083 A    
C17   H14   1.074500 S    
C34   C35   1.410705 A    
C24   H16   1.076455 S    
H4    C7    1.112435 S    
Cu2   O6    1.948355 S    
C36   C37   1.443865 A    
C45   H20   1.079017 S    
C12   H6    1.113672 S    
C14   C29   1.416935 A    
C8    C9    1.575492 S    
C44   H25   1.083904 S    
