data_mof_unit_36345.cif
_audit_creation_date              2013-03-05T16:15:04-0500
_audit_creation_method            fapswitch 2.2
_symmetry_space_group_name_H-M    P1
_symmetry_Int_Tables_number       1
_space_group_crystal_system       triclinic
_cell_length_a                    23.528757
_cell_length_b                    10.639013
_cell_length_c                    9.403145
_cell_angle_alpha                 89.238664
_cell_angle_beta                  90.515322
_cell_angle_gamma                 90.039488
_cell_volume                      2353.5177535

loop_
_atom_site_label
_atom_site_type_symbol
_atom_site_description
_atom_site_fract_x
_atom_site_fract_y
_atom_site_fract_z
_atom_type_partial_charge
O1    O     O_R   0.500030 0.316850 0.620870 -0.561993
O2    O     O_R   0.499970 0.683150 0.379130 -0.551818
O3    O     O_R   0.500000 0.316860 0.379090 -0.569250
O4    O     O_R   0.500000 0.683140 0.620910 -0.581186
C1    C     C_R   0.500740 0.259569 0.501029 0.901664
C2    C     C_R   0.499207 0.740418 0.498953 0.895654
O5    O     O_R   0.417890 0.499960 0.620920 -0.596756
O6    O     O_R   0.582110 0.500040 0.379080 -0.550152
O7    O     O_R   0.417870 0.499970 0.379140 -0.546894
O8    O     O_R   0.582130 0.500030 0.620860 -0.588071
C3    C     C_R   0.390904 0.502684 0.499553 0.871981
C4    C     C_R   0.609005 0.498515 0.500559 0.879089
Cu1   Cu    Cu3+1 0.500010 0.499990 0.643150 0.997104
Cu2   Cu    Cu3+1 0.499990 0.500010 0.356850 1.046858
C5    C     C_R   0.879803 0.625977 0.505685 0.659392
C6    C     C_R   0.118312 0.399001 0.553041 0.648102
N1    N     N_R   0.851674 0.515843 0.529483 -0.460595
N2    N     N_R   0.147697 0.508031 0.531952 -0.458787
C7    C     C_R   0.879313 0.407724 0.566588 0.661010
C8    C     C_R   0.120694 0.621430 0.526071 0.666498
C9    C     C_R   0.939040 0.406238 0.582150 -0.124597
C10   C     C_R   0.060728 0.627331 0.518229 -0.117609
C11   C     C_R   0.969569 0.517652 0.547317 -0.074832
C12   C     C_R   0.029729 0.515791 0.547693 -0.076992
C13   C     C_R   0.939963 0.630392 0.511389 -0.123172
C14   C     C_R   0.059126 0.401662 0.576022 -0.125631
C15   C     C_R   0.969073 0.298011 0.631456 0.267694
C16   C     C_R   0.031222 0.739530 0.481257 0.262899
C17   C     C_R   0.028775 0.295182 0.626276 0.260418
C18   C     C_R   0.971347 0.741725 0.479686 0.253985
O9    O     O_2   0.848839 0.729127 0.474099 -0.428301
O10   O     O_2   0.146463 0.288991 0.546906 -0.426425
O11   O     O_2   0.848454 0.302058 0.584183 -0.423574
O12   O     O_2   0.152355 0.726876 0.529938 -0.427327
C19   C     C_R   0.234993 0.548811 0.392332 0.301776
C20   C     C_R   0.764216 0.457756 0.397083 0.294772
C21   C     C_R   0.294995 0.552413 0.384897 0.227817
C22   C     C_R   0.704281 0.450004 0.391028 0.230774
C23   C     C_R   0.328045 0.505756 0.501069 -0.190051
C24   C     C_R   0.671676 0.499470 0.503293 -0.191960
C25   C     C_R   0.300558 0.460110 0.623243 -0.197977
C26   C     C_R   0.699313 0.554067 0.620006 -0.181605
H1    H     H_    0.324702 0.424011 0.713530 0.198535
H2    H     H_    0.675246 0.592897 0.706734 0.202388
C27   C     C_R   0.241720 0.459877 0.631494 -0.089805
C28   C     C_R   0.758168 0.561209 0.625872 -0.090426
H3    H     H_    0.221646 0.426327 0.728023 0.199451
H4    H     H_    0.778721 0.602925 0.717338 0.194938
C29   C     C_R   0.208569 0.503652 0.517283 0.166863
C30   C     C_R   0.790808 0.513641 0.515676 0.169972
C31   C     C_3   0.511486 0.036532 0.632652 0.289202
C32   C     C_3   0.488375 0.963416 0.367270 0.294260
C33   C     C_3   0.550578 0.955719 0.540915 0.246522
C34   C     C_3   0.449282 0.044247 0.458992 0.247492
C35   C     C_3   0.499036 0.876959 0.496750 -0.217580
C36   C     C_3   0.500835 0.123003 0.503169 -0.225104
C37   C     C_3   0.459502 0.956425 0.589132 -0.283567
C38   C     C_3   0.540352 0.043508 0.410787 -0.274603
H5    H     H_    0.426347 0.918907 0.661496 0.212137
H6    H     H_    0.573482 0.080656 0.338192 0.240312
C39   C     C_3   0.525125 0.599072 0.049660 -0.003650
C40   C     C_3   0.474983 0.400854 0.950339 -0.046591
C41   C     C_3   0.473781 0.597573 0.947302 0.011497
C42   C     C_3   0.526263 0.402392 0.052738 0.033985
H7    H     H_    0.451597 0.679578 0.898129 0.172917
H8    H     H_    0.548288 0.320209 0.101919 0.196568
H9    H     H_    0.546692 0.681824 0.096437 0.178946
H10   H     H_    0.453363 0.318152 0.903589 0.181707
N3    N     N_3   0.500040 0.499970 0.858290 -0.194908
N4    N     N_3   0.499960 0.500030 0.141710 -0.194385
C43   C     C_3   0.551390 0.501456 0.950772 -0.011149
C44   C     C_3   0.448726 0.498369 0.049135 -0.018120
H11   H     H_    0.594718 0.502731 0.905091 0.170186
H12   H     H_    0.405686 0.494082 0.094975 0.204245
Br1   Br    Br    0.931013 0.155072 0.719381 -0.195287
Br2   Br    Br    0.070819 0.889241 0.414316 -0.171417
Br3   Br    Br    0.067593 0.148860 0.705724 -0.212504
Br4   Br    Br    0.935165 0.901022 0.430875 -0.188869
N5    N     N_R   0.200787 0.594281 0.275224 0.164838
O13   O     O_R   0.158493 0.527487 0.227857 -0.306670
O14   O     O_R   0.209315 0.706192 0.222061 -0.205138
N6    N     N_R   0.798101 0.405056 0.286228 0.166156
O15   O     O_R   0.841492 0.466502 0.235911 -0.305539
O16   O     O_R   0.787336 0.292797 0.239679 -0.208172
N7    N     N_R   0.321647 0.606128 0.261495 0.143982
O17   O     O_R   0.356352 0.700617 0.274878 -0.294338
O18   O     O_R   0.305814 0.571842 0.134836 -0.316677
N8    N     N_R   0.677035 0.390613 0.272419 0.159956
O19   O     O_R   0.644904 0.292554 0.292855 -0.345298
O20   O     O_R   0.686952 0.429691 0.143274 -0.310316
Br5   Br    Br    0.624029 0.888541 0.597795 -0.378516
Br6   Br    Br    0.375864 0.111600 0.402069 -0.351641
Br7   Br    Br    0.529014 0.085286 0.826084 -0.396419
Br8   Br    Br    0.470971 0.914783 0.173741 -0.362302

loop_
_geom_bond_atom_site_label_1
_geom_bond_atom_site_label_2
_geom_bond_distance
_ccdc_geom_bond_type
C39   N4    1.481286 S    
C41   H7    1.110401 S    
C15   C17   1.406350 A    
C25   H1    1.083485 S    
C1    C36   1.452800 S    
C2    C35   1.452545 S    
C23   C25   1.404282 A    
N7    O17   1.301364 A    
C34   Br6   1.938782 S    
O1    C1    1.288458 A    
C21   N7    1.435704 S    
C19   C21   1.414582 A    
C12   C14   1.418783 A    
C37   H5    1.110300 S    
C38   H6    1.109867 S    
N3    C43   1.482465 S    
C31   C36   1.535132 S    
C26   C28   1.387453 A    
C42   C43   1.536913 S    
C19   N5    1.436943 S    
O4    Cu1   1.956959 S    
C39   C41   1.538030 S    
C40   C42   1.537102 S    
C41   N3    1.481164 S    
C20   N6    1.437921 S    
C19   C29   1.412645 A    
C11   C12   1.415619 A    
C32   Br8   1.938638 S    
C31   C37   1.545529 S    
C42   N4    1.481652 S    
C32   C35   1.535055 S    
C8    O12   1.346923 S    
C39   C43   1.536883 S    
C24   C26   1.402948 A    
C9    C15   1.421658 A    
C10   C16   1.418975 A    
Cu1   Cu2   2.692114 S    
Cu2   N4    2.022983 S    
O2    C2    1.288266 A    
C26   H2    1.083497 S    
C15   Br1   1.943229 S    
C32   C34   1.537697 S    
C28   H4    1.083017 S    
C27   H3    1.083151 S    
C6    C14   1.411516 A    
C32   C38   1.545305 S    
C34   C36   1.531247 S    
N7    O18   1.301418 A    
C44   H12   1.104833 S    
C7    O11   1.346998 S    
N5    O14   1.301304 A    
C40   N3    1.480811 S    
C22   N8    1.435065 S    
C31   C33   1.537663 S    
C42   H8    1.110173 S    
C4    C24   1.474594 S    
O5    C3    1.300968 A    
O7    Cu2   1.945389 S    
C33   Br5   1.938687 S    
C39   H9    1.109835 S    
C27   C29   1.396695 A    
O6    C4    1.300786 A    
C40   C44   1.535531 S    
N8    O19   1.301164 A    
C3    C23   1.479569 S    
O7    C3    1.303541 A    
O3    Cu2   1.956959 S    
O8    C4    1.301190 A    
C31   Br7   1.938729 S    
O4    C2    1.291457 A    
N8    O20   1.301358 A    
N6    O16   1.301394 A    
C35   C37   1.539414 S    
C10   C12   1.417958 A    
O1    Cu1   1.962427 S    
C33   C35   1.531029 S    
C16   Br2   1.944995 S    
C20   C30   1.411758 A    
C43   H11   1.109817 S    
C13   C18   1.424955 A    
C5    N1    1.362227 A    
O6    Cu2   1.941584 S    
C7    C9    1.411668 A    
C8    C10   1.413600 A    
O3    C1    1.291366 A    
O8    Cu1   1.945386 S    
N1    C30   1.437010 S    
C33   C38   1.546636 S    
C5    O9    1.346035 S    
C6    O10   1.347390 S    
C28   C30   1.395842 A    
C40   H10   1.109868 S    
C9    C11   1.421632 A    
C16   C18   1.408926 A    
C21   C23   1.419600 A    
C22   C24   1.417669 A    
Cu1   N3    2.022983 S    
C20   C22   1.413231 A    
N1    C7    1.361644 A    
C36   C38   1.539327 S    
N2    C8    1.364145 A    
C11   C13   1.422736 A    
O2    Cu2   1.962428 S    
C5    C13   1.416808 A    
N5    O13   1.301211 A    
C18   Br4   1.944716 S    
O5    Cu1   1.941588 S    
C17   Br3   1.942803 S    
C41   C44   1.536489 S    
C14   C17   1.416799 A    
C6    N2    1.363128 A    
N6    O15   1.301198 A    
C25   C27   1.387274 A    
N4    C44   1.480790 S    
N2    C29   1.440964 S    
C34   C37   1.546912 S    
