data_mof_unit_16370.cif
_audit_creation_date              2012-10-26T20:33:59-0400
_audit_creation_method            fapswitch 2.2
_symmetry_space_group_name_H-M    P1
_symmetry_Int_Tables_number       1
_space_group_crystal_system       triclinic
_cell_length_a                    15.925307
_cell_length_b                    9.093158
_cell_length_c                    7.790455
_cell_angle_alpha                 90.006903
_cell_angle_beta                  90.166426
_cell_angle_gamma                 90.001727
_cell_volume                      1128.14140338

loop_
_atom_site_label
_atom_site_type_symbol
_atom_type_description
_atom_site_fract_x
_atom_site_fract_y
_atom_site_fract_z
_atom_type_partial_charge
C1    C     C_R   0.500000 0.220042 0.499994 0.554978
C2    C     C_3   0.048064 0.443809 0.313388 -0.113942
C3    C     C_3   0.951862 0.389472 0.651623 -0.105308
C4    C     C_3   0.949718 0.429929 0.321053 -0.078732
C5    C     C_1   0.749509 0.496632 0.500849 0.010965
C6    C     C_1   0.250490 0.496725 0.498793 0.010825
C7    C     C_3   0.083050 0.485620 0.495604 -0.035580
C8    C     C_3   0.916940 0.485249 0.499611 -0.034231
C9    C     C_3   0.951558 0.643584 0.526314 -0.255665
C10   C     C_3   0.048651 0.641517 0.538102 -0.252958
C11   C     C_2   0.906969 0.243926 0.677988 0.219865
C12   C     C_1   0.824783 0.492244 0.500886 -0.049253
C13   C     C_2   0.916634 0.278706 0.274896 0.280307
C14   C     C_2   0.082735 0.222903 0.616500 0.279785
C15   C     C_2   0.092684 0.316106 0.227331 0.201107
C16   C     C_1   0.175216 0.492460 0.497332 -0.050594
C17   C     C_R   0.339852 0.499953 0.499726 0.550422
C18   C     C_R   0.660148 0.499952 0.500251 0.548581
C19   C     C_1   0.499999 0.934631 0.500009 -0.030799
C20   C     C_1   0.499999 0.065381 0.499991 -0.028255
C21   C     C_R   0.499999 0.779967 0.500006 0.549618
C22   C     C_3   0.050162 0.378412 0.638237 -0.069743
Cu1   Cu    Cu3+1 0.500000 0.500010 0.669080 1.062219
Cu2   Cu    Cu3+1 0.500000 0.500010 0.330920 1.059862
H1    H     H_    0.068553 0.674737 0.669647 0.147925
H2    H     H_    0.941176 0.181265 0.337186 0.093967
H3    H     H_    0.057968 0.152043 0.516779 0.081915
H4    H     H_    0.141514 0.254994 0.293185 0.124142
H5    H     H_    0.074834 0.724638 0.447963 0.142856
H6    H     H_    0.925482 0.692909 0.645647 0.147604
H7    H     H_    0.931733 0.715642 0.417978 0.140269
H8    H     H_    0.062082 0.539035 0.227914 0.136880
H9    H     H_    0.076024 0.418614 0.762926 0.189448
H10   H     H_    0.924126 0.506419 0.221827 0.153115
H11   H     H_    0.938126 0.451716 0.771707 0.157685
H12   H     H_    0.858509 0.206999 0.590056 0.108050
N1    N     N_1   0.500000 0.499970 0.076820 -0.070106
N2    N     N_1   0.500000 0.499970 0.923180 -0.070054
O1    O     O_R   0.500000 0.288400 0.642760 -0.492396
O2    O     O_2   0.862577 0.264756 0.164652 -0.447490
O3    O     O_2   0.136488 0.174656 0.713318 -0.446761
O4    O     O_2   0.075902 0.283390 0.079188 -0.440817
O5    O     O_R   0.500000 0.288400 0.357240 -0.493674
O6    O     O_R   0.379440 0.500020 0.642850 -0.490379
O7    O     O_R   0.379440 0.500020 0.357150 -0.500026
O8    O     O_R   0.620560 0.500020 0.642850 -0.497248
O9    O     O_R   0.620560 0.500020 0.357150 -0.489729
O10   O     O_R   0.500000 0.711620 0.642810 -0.496673
O11   O     O_R   0.500000 0.711620 0.357190 -0.497289
O12   O     O_2   0.923222 0.167963 0.802967 -0.414687

loop_
_geom_bond_atom_site_label_1
_geom_bond_atom_site_label_2
_ccdc_geom_bond_type
C7    C10   S    
C2    C4    S    
Cu1   Cu2   S    
N1    N2    T    
Cu1   O10   S    
C14   H3    S    
Cu1   N2    S    
C9    C10   S    
C19   C20   T    
C3    H11   S    
C4    C8    S    
C21   O10   A    
C18   O9    A    
C14   C22   S    
C21   O11   A    
Cu2   N1    S    
C17   O6    A    
Cu1   O8    S    
C2    C15   S    
C10   H5    S    
C13   O2    D    
C15   H4    S    
C9    H6    S    
C22   H9    S    
C14   O3    D    
Cu1   O1    S    
Cu2   O7    S    
C18   O8    A    
C10   H1    S    
C7    C16   S    
C19   C21   S    
C17   O7    A    
C9    H7    S    
C8    C12   S    
C4    H10   S    
C13   H2    S    
C3    C11   S    
C1    O1    A    
C6    C16   T    
C7    C22   S    
C4    C13   S    
C5    C12   T    
C2    H8    S    
C3    C8    S    
Cu2   O11   S    
C6    C17   S    
Cu2   O5    S    
C11   O12   D    
C11   H12   S    
C1    C20   S    
C5    C18   S    
Cu2   O9    S    
C1    O5    A    
Cu1   O6    S    
C2    C7    S    
C15   O4    D    
C8    C9    S    
C3    C22   S    
