data_mof_unit_36726.cif
_audit_creation_date              2012-12-10T17:16:39-0500
_audit_creation_method            fapswitch 2.2
_symmetry_space_group_name_H-M    P1
_symmetry_Int_Tables_number       1
_space_group_crystal_system       triclinic
_cell_length_a                    10.242018
_cell_length_b                    10.708785
_cell_length_c                    10.814175
_cell_angle_alpha                 92.245304
_cell_angle_beta                  94.775677
_cell_angle_gamma                 83.735321
_cell_volume                      1174.37571405

loop_
_atom_site_label
_atom_site_type_symbol
_atom_type_description
_atom_site_fract_x
_atom_site_fract_y
_atom_site_fract_z
_atom_type_partial_charge
C1    C     C_R   0.445097 0.508091 0.267991 0.984743
C2    C     C_R   0.554420 0.485121 0.731302 0.995153
C3    C     C_2   0.414247 0.504480 0.135813 -0.353494
C4    C     C_2   0.583641 0.463894 0.861662 -0.372345
C5    C     C_2   0.509249 0.461310 0.063890 -0.101308
C6    C     C_2   0.483637 0.462801 0.932193 -0.163180
C7    C     C_2   0.074456 0.474452 0.506498 0.089533
C8    C     C_2   0.930391 0.497049 0.524121 0.105331
C9    C     C_R   0.496703 0.261098 0.500432 0.944714
C10   C     C_R   0.503660 0.738930 0.500593 0.939420
C11   C     C_R   0.551091 0.111410 0.279278 0.435747
C12   C     C_R   0.447123 0.888569 0.723842 0.455319
C13   C     C_R   0.623759 0.043112 0.190665 -0.397761
C14   C     C_R   0.372008 0.958724 0.810567 -0.409012
C15   C     C_R   0.666170 0.915977 0.207358 0.534186
C16   C     C_R   0.333735 0.086632 0.794075 0.559134
C17   C     C_R   0.623354 0.857049 0.306999 -0.237274
C18   C     C_R   0.380956 0.144415 0.696425 -0.222438
C19   C     C_R   0.558947 0.926934 0.403466 -0.092180
C20   C     C_R   0.444057 0.073306 0.600259 -0.110836
C21   C     C_R   0.534261 0.057145 0.394103 -0.025763
C22   C     C_R   0.466907 0.942659 0.609429 -0.006288
C23   C     C_R   0.515422 0.870870 0.507051 -0.073821
C24   C     C_R   0.486188 0.128979 0.496065 -0.096587
H1    H     H_    0.638649 0.087536 0.105502 0.169023
H2    H     H_    0.349333 0.914561 0.893272 0.152830
H3    H     H_    0.645907 0.756644 0.306763 0.207331
H4    H     H_    0.361528 0.245142 0.696988 0.195607
H5    H     H_    0.381430 0.473527 0.894021 0.198635
H6    H     H_    0.608923 0.430918 0.101624 0.196554
H7    H     H_    0.685473 0.454111 0.900721 0.178511
H8    H     H_    0.314688 0.534330 0.097422 0.152620
N1    N     N_2   0.157300 0.551390 0.551120 0.013863
N2    N     N_2   0.842700 0.448610 0.448880 0.018728
O1    O     O_R   0.568940 0.489660 0.307530 -0.613829
O2    O     O_R   0.431060 0.510340 0.692470 -0.635602
O3    O     O_R   0.348880 0.522640 0.340350 -0.576468
O4    O     O_R   0.651120 0.477360 0.659650 -0.615165
O5    O     O_R   0.610030 0.300280 0.483580 -0.634084
O6    O     O_R   0.389970 0.699720 0.516420 -0.599398
O7    O     O_R   0.389970 0.333270 0.516400 -0.634498
O8    O     O_R   0.610030 0.666730 0.483600 -0.594260
Zn1   Zn    Zn3+2 0.646940 0.477980 0.478080 1.022391
Zn2   Zn    Zn3+2 0.353060 0.522020 0.521920 1.023280
O9    O     O_3   0.263228 0.161614 0.878516 -0.615203
C25   C     C_3   0.150354 0.106631 0.906408 -0.325385
H9    H     H_    0.176535 0.033598 0.977000 0.139340
H10   H     H_    0.097414 0.067177 0.822024 0.180047
H11   H     H_    0.081079 0.180648 0.947430 0.206737
O10   O     O_3   0.734576 0.842367 0.120511 -0.613032
C26   C     C_3   0.844661 0.899637 0.089006 -0.336593
H12   H     H_    0.900658 0.937874 0.172197 0.171339
H13   H     H_    0.814425 0.974191 0.020696 0.148462
H14   H     H_    0.912589 0.827381 0.043850 0.198622
O11   O     O_3   0.482342 0.224761 0.246278 -0.635728
C27   C     C_3   0.363278 0.198216 0.180002 -0.203096
H15   H     H_    0.382350 0.141695 0.093758 0.189136
H16   H     H_    0.305204 0.287303 0.151979 0.231549
H17   H     H_    0.302009 0.148426 0.238311 0.161939
O12   O     O_3   0.507285 0.769862 0.752612 -0.638460
C28   C     C_3   0.591809 0.777474 0.862322 -0.239409
H18   H     H_    0.535540 0.774979 0.945506 0.193739
H19   H     H_    0.646812 0.862059 0.866705 0.168477
H20   H     H_    0.666777 0.694876 0.864946 0.195810
C29   C     C_2   0.890497 0.562804 0.639243 0.962336
O13   O     O_2   0.918357 0.512249 0.738824 -0.670500
O14   O     O_R   0.830250 0.686109 0.634759 -0.744295
H21   H     H_    0.818852 0.725701 0.720236 0.323335
C30   C     C_2   0.124238 0.352527 0.451581 0.961319
O15   O     O_2   0.171727 0.348418 0.351521 -0.609546
O16   O     O_R   0.109955 0.241824 0.510931 -0.831009
H22   H     H_    0.146441 0.163957 0.463532 0.334009
O17   O     O_3   0.880420 0.411993 0.335306 -0.543679
C31   C     C_3   0.832080 0.295838 0.304910 -0.102633
H23   H     H_    0.725924 0.308492 0.275149 0.203065
H24   H     H_    0.851583 0.229825 0.383022 0.157299
H25   H     H_    0.883665 0.251616 0.225462 0.127324
O18   O     O_3   0.105626 0.669326 0.579048 -0.528579
C32   C     C_3   0.160550 0.700913 0.698187 -0.122544
H26   H     H_    0.267424 0.706540 0.699181 0.219806
H27   H     H_    0.141507 0.632305 0.767444 0.141708
H28   H     H_    0.113872 0.794686 0.727171 0.137227

loop_
_geom_bond_atom_site_label_1
_geom_bond_atom_site_label_2
_ccdc_geom_bond_type
O11   C27   S    
C10   O8    A    
O17   C31   S    
C2    C4    S    
C7    C8    S    
O9    C25   S    
C25   H11   S    
C31   H24   S    
C19   C21   A    
C30   O15   D    
C5    C6    S    
N1    O18   S    
C12   C22   A    
C9    O5    A    
C27   H15   S    
C10   O6    A    
C15   O10   S    
C28   H19   S    
C20   C24   A    
C29   O14   S    
C31   H25   S    
O1    Zn1   S    
C18   C20   A    
C1    O3    A    
C8    C29   S    
C7    N1    D    
C13   H1    S    
C28   H18   S    
C25   H10   S    
C30   O16   S    
C31   H23   S    
O14   H21   S    
C17   H3    S    
C18   H4    S    
C4    C6    D    
C32   H27   S    
O18   C32   S    
O5    Zn1   S    
C11   C21   A    
C26   H12   S    
O12   C28   S    
C26   H13   S    
C28   H20   S    
C19   C23   A    
C2    O4    A    
O10   C26   S    
C8    N2    D    
C14   H2    S    
C20   C22   A    
C13   C15   A    
O7    Zn2   S    
O4    Zn1   S    
O2    Zn2   S    
O8    Zn1   S    
C11   O11   S    
C1    O1    A    
C5    H6    S    
C2    O2    A    
C15   C17   A    
C25   H9    S    
N1    Zn2   S    
N2    Zn1   S    
C12   C14   A    
C3    C5    D    
C16   O9    S    
C7    C30   S    
C32   H28   S    
C9    C24   S    
C10   C23   S    
C9    O7    A    
C27   H17   S    
C26   H14   S    
O3    Zn2   S    
O16   H22   S    
C11   C13   A    
C17   C19   A    
C27   H16   S    
C14   C16   A    
C3    H8    S    
C4    H7    S    
N2    O17   S    
C32   H26   S    
C12   O12   S    
O6    Zn2   S    
C6    H5    S    
C16   C18   A    
C29   O13   D    
C21   C24   A    
C22   C23   A    
C1    C3    S    
