data_mof_unit_5083.cif
_audit_creation_date              2012-12-10T19:56:40-0500
_audit_creation_method            fapswitch 2.2
_symmetry_space_group_name_H-M    P1
_symmetry_Int_Tables_number       1
_space_group_crystal_system       triclinic
_cell_length_a                    28.695834
_cell_length_b                    18.255023
_cell_length_c                    18.262152
_cell_angle_alpha                 90.467394
_cell_angle_beta                  131.022892
_cell_angle_gamma                 90.132097
_cell_volume                      7216.81076001

loop_
_atom_site_label
_atom_site_type_symbol
_atom_type_description
_atom_site_fract_x
_atom_site_fract_y
_atom_site_fract_z
_atom_type_partial_charge
C1    C     C_R   0.500507 0.999736 0.359267 0.964263
C2    C     C_R   0.220871 0.047513 0.264904 0.048999
C3    C     C_R   0.826867 0.412388 0.162722 0.351938
C4    C     C_R   0.671287 0.934504 0.921534 0.021616
C5    C     C_R   0.353945 0.861641 0.141686 0.020304
C6    C     C_R   0.171294 0.434529 0.921544 0.021622
C7    C     C_R   0.853943 0.361657 0.141677 0.020344
C8    C     C_R   0.649858 0.861345 0.900119 0.480075
C9    C     C_R   0.364454 0.789375 0.175475 0.453753
C10   C     C_R   0.149865 0.361371 0.900141 0.480082
C11   C     C_R   0.864490 0.289401 0.175505 0.453857
C12   C     C_R   0.782793 0.947664 0.828934 0.118938
C13   C     C_R   0.279053 0.537370 0.725283 0.067213
C14   C     C_R   0.215189 0.940319 0.176459 0.124630
C15   C     C_R   0.282793 0.447661 0.828929 0.118917
C16   C     C_R   0.715191 0.440311 0.176476 0.124561
C17   C     C_3   0.575545 0.798744 0.890167 0.103888
C18   C     C_3   0.578212 0.717541 0.910493 -0.821742
C19   C     C_3   0.447140 0.721595 0.225422 0.051388
C20   C     C_3   0.472743 0.678370 0.187391 -0.768451
C21   C     C_3   0.075560 0.298755 0.890204 0.103920
C22   C     C_3   0.078251 0.217553 0.910553 -0.821825
C23   C     C_3   0.947168 0.221519 0.225581 0.051367
C24   C     C_R   0.720869 0.547529 0.264887 0.048954
C25   C     C_3   0.972855 0.178357 0.187642 -0.768387
C26   C     C_3   0.926809 0.178715 0.653899 -0.948180
C27   C     C_3   0.129676 0.264785 0.377800 -0.920088
C28   C     C_3   0.426763 0.678799 0.653854 -0.948171
C29   C     C_3   0.629635 0.764812 0.377713 -0.920179
C30   C     C_3   0.881766 0.263742 0.738440 -0.885213
C31   C     C_3   0.153499 0.302230 0.249050 -0.831149
C32   C     C_3   0.381728 0.763786 0.738432 -0.885183
C33   C     C_3   0.653646 0.802305 0.249206 -0.831250
C34   C     C_3   0.612655 0.770484 0.653986 0.156349
C35   C     C_R   0.715863 0.041513 0.668231 -0.272173
C36   C     C_3   0.604492 0.753877 0.564414 -0.838594
C37   C     C_3   0.359718 0.781455 0.403502 0.136461
C38   C     C_3   0.353915 0.818815 0.472019 -0.799077
C39   C     C_3   0.112640 0.270490 0.654002 0.156362
C40   C     C_3   0.104469 0.253866 0.564427 -0.838656
C41   C     C_3   0.859842 0.281426 0.403585 0.136552
C42   C     C_3   0.854120 0.318749 0.472212 -0.799269
C43   C     C_3   0.763937 0.057201 0.963558 0.109492
C44   C     C_3   0.785691 0.121788 0.940195 -0.755042
C45   C     C_3   0.258944 0.990777 0.038946 0.102484
C46   C     C_R   0.284068 0.049479 0.321866 -0.301839
C47   C     C_3   0.233767 0.066763 0.028998 -0.788976
C48   C     C_3   0.263946 0.557217 0.963537 0.109541
C49   C     C_3   0.285691 0.621801 0.940154 -0.754992
C50   C     C_3   0.758886 0.490726 0.038866 0.102500
C51   C     C_3   0.733676 0.566701 0.028858 -0.788967
C52   C     C_3   0.676406 0.978123 0.996996 -0.746646
C53   C     C_3   0.371359 0.882802 0.082752 -0.761120
C54   C     C_3   0.176413 0.478161 0.996999 -0.746596
C55   C     C_3   0.871355 0.382830 0.082744 -0.760977
C56   C     C_3   0.818585 0.890039 0.907567 -0.842165
C57   C     C_R   0.215863 0.541517 0.668233 -0.272196
C58   C     C_3   0.176653 0.879409 0.101276 -0.844756
C59   C     C_3   0.318584 0.390033 0.907557 -0.842185
C60   C     C_3   0.676657 0.379385 0.101319 -0.844898
C61   C     C_3   0.755507 0.962522 0.509268 0.078886
C62   C     C_3   0.690466 0.968043 0.473527 -0.868544
C63   C     C_3   0.253926 0.003999 0.476040 0.083009
C64   C     C_3   0.261981 0.928397 0.517110 -0.812569
C65   C     C_3   0.255517 0.462551 0.509271 0.078881
C66   C     C_3   0.190477 0.468058 0.473536 -0.868540
C67   C     C_3   0.753694 0.503873 0.475779 0.082994
C68   C     C_R   0.784066 0.549487 0.321859 -0.301787
C69   C     C_3   0.761758 0.428108 0.516478 -0.812471
C70   C     C_3   0.887928 0.025953 0.596012 -0.908502
C71   C     C_3   0.146394 0.109298 0.442479 -0.911351
C72   C     C_3   0.387924 0.526023 0.596002 -0.908513
C73   C     C_3   0.646160 0.609275 0.442137 -0.911470
C74   C     C_R   0.686195 0.000297 0.691020 -0.093229
C75   C     C_R   0.313343 0.997647 0.308520 -0.110503
C76   C     C_R   0.186196 0.500297 0.691019 -0.093227
C77   C     C_R   0.499684 0.000195 0.640934 0.943034
C78   C     C_R   0.813343 0.497647 0.308523 -0.110424
C79   C     C_R   0.718929 0.954734 0.772382 0.165559
C80   C     C_R   0.279760 0.942482 0.236141 0.160390
C81   C     C_R   0.218929 0.454733 0.772379 0.165547
C82   C     C_R   0.779761 0.442477 0.236150 0.160438
C83   C     C_R   0.821707 0.039147 0.642025 0.533475
C84   C     C_R   0.183616 0.080422 0.352380 0.488400
C85   C     C_R   0.321708 0.539179 0.642029 0.533488
C86   C     C_R   0.683508 0.580425 0.352215 0.488469
C87   C     C_R   0.863119 0.071105 0.633674 0.068252
C88   C     C_R   0.000507 0.499736 0.359267 0.964225
C89   C     C_R   0.160162 0.132370 0.378855 0.087110
C90   C     C_R   0.363110 0.571158 0.633666 0.068242
C91   C     C_R   0.660042 0.632374 0.378667 0.087113
C92   C     C_R   0.883500 0.144741 0.664938 0.221438
C93   C     C_R   0.150798 0.205846 0.346492 0.197171
C94   C     C_R   0.383475 0.644800 0.664922 0.221431
C95   C     C_R   0.650767 0.705875 0.346419 0.197145
C96   C     C_R   0.863886 0.184549 0.707541 0.225804
C97   C     C_R   0.161973 0.224915 0.284067 0.190054
C98   C     C_R   0.363862 0.684589 0.707537 0.225779
C99   C     C_R   0.999684 0.500195 0.640934 0.943044
C100  C     C_R   0.662039 0.724969 0.284120 0.190147
C101  C     C_R   0.828100 0.149217 0.723994 -0.325533
C102  C     C_R   0.182215 0.171697 0.255023 -0.312216
C103  C     C_R   0.328089 0.649238 0.724004 -0.325545
C104  C     C_R   0.682295 0.671752 0.255097 -0.312269
C105  C     C_R   0.620228 0.000314 0.623632 0.917285
C106  C     C_R   0.379617 0.999414 0.376219 0.923343
C107  C     C_R   0.120228 0.500314 0.623632 0.917293
C108  C     C_R   0.879617 0.499414 0.376221 0.923304
C109  C     C_R   0.808567 0.076714 0.694110 -0.041824
C110  C     C_R   0.812907 0.993413 0.808929 -0.103923
C111  C     C_R   0.193137 0.100120 0.288656 -0.062138
C112  C     C_R   0.308568 0.576732 0.694121 -0.041818
C113  C     C_R   0.693129 0.600149 0.288621 -0.062275
C114  C     C_1   0.501648 0.999327 0.283978 -0.172444
C115  C     C_1   0.498679 0.000433 0.716370 -0.200233
C116  C     C_1   0.001648 0.499327 0.283979 -0.172449
C117  C     C_1   0.998679 0.500433 0.716371 -0.200220
C118  C     C_1   0.501981 0.999510 0.219530 -0.206573
C119  C     C_1   0.498288 0.000169 0.780756 -0.202884
C120  C     C_1   0.001981 0.499511 0.219530 -0.206571
C121  C     C_R   0.186355 0.995171 0.189380 -0.082989
C122  C     C_1   0.998289 0.500169 0.780757 -0.202851
C123  C     C_R   0.999819 0.141279 0.000121 0.947302
C124  C     C_R   0.499819 0.641279 0.000122 0.947253
C125  C     C_R   0.879492 0.998054 0.878288 0.901356
C126  C     C_R   0.120287 0.999433 0.121302 0.903847
C127  C     C_R   0.379492 0.498055 0.878288 0.901348
C128  C     C_R   0.620287 0.499432 0.121302 0.903869
C129  C     C_R   0.000161 0.858787 0.999915 0.929846
C130  C     C_R   0.500162 0.358787 0.999915 0.929837
C131  C     C_R   0.500254 0.140987 0.000082 0.937313
C132  C     C_R   0.312907 0.493413 0.808928 -0.103906
C133  C     C_R   0.000254 0.640987 0.000082 0.937307
C134  C     C_R   0.500689 0.999843 0.141719 0.924823
C135  C     C_R   0.499362 0.999843 0.858334 0.925011
C136  C     C_R   0.000689 0.499843 0.141719 0.924824
C137  C     C_R   0.999362 0.499843 0.858334 0.925013
C138  C     C_R   0.499751 0.859002 0.000411 0.905373
C139  C     C_R   0.999751 0.359002 0.000409 0.905372
C140  C     C_1   0.999446 0.217730 0.000482 -0.197204
C141  C     C_1   0.499447 0.717730 0.000483 -0.197290
C142  C     C_R   0.648610 0.820394 0.833312 -0.455214
C143  C     C_R   0.686354 0.495172 0.189381 -0.082882
C144  C     C_R   0.349116 0.768382 0.231083 -0.450215
C145  C     C_R   0.148614 0.320412 0.833333 -0.455243
C146  C     C_R   0.849165 0.268403 0.231131 -0.450499
C147  C     C_1   0.499328 0.782518 0.000525 -0.214519
C148  C     C_1   0.999326 0.282518 0.000523 -0.214590
C149  C     C_1   0.000567 0.782303 0.999899 -0.187767
C150  C     C_1   0.500567 0.282303 0.999899 -0.187774
C151  C     C_1   0.500692 0.217494 0.000138 -0.179134
C152  C     C_1   0.000692 0.717494 0.000138 -0.179119
C153  C     C_R   0.666221 0.851944 0.784515 0.423502
C154  C     C_R   0.779052 0.037365 0.725280 0.067223
C155  C     C_R   0.324087 0.819018 0.254798 0.432515
C156  C     C_R   0.166221 0.351952 0.784529 0.423512
C157  C     C_R   0.824127 0.319031 0.254844 0.432676
C158  C     C_R   0.689039 0.924324 0.808068 -0.130630
C159  C     C_R   0.311451 0.890552 0.218506 -0.116426
C160  C     C_R   0.189042 0.424332 0.808074 -0.130634
C161  C     C_R   0.811452 0.390553 0.218507 -0.116418
C162  C     C_R   0.689645 0.966569 0.873762 0.345487
C163  C     C_R   0.326889 0.912386 0.162753 0.352016
C164  C     C_R   0.189651 0.466584 0.873766 0.345468
H1    H     H_    0.816324 0.177642 0.762222 0.172506
H2    H     H_    0.310897 0.090113 0.379860 0.164812
H3    H     H_    0.420507 0.869340 0.123166 0.232941
H4    H     H_    0.342095 0.851822 0.012885 0.233298
H5    H     H_    0.365773 0.942130 0.067014 0.259982
H6    H     H_    0.157041 0.448483 0.024601 0.275246
H7    H     H_    0.225733 0.489209 0.060428 0.191357
H8    H     H_    0.151734 0.530848 0.966060 0.258766
H9    H     H_    0.920505 0.369374 0.123161 0.233036
H10   H     H_    0.842094 0.351848 0.012878 0.233269
H11   H     H_    0.865763 0.442158 0.067006 0.259954
H12   H     H_    0.788481 0.847407 0.900884 0.247698
H13   H     H_    0.189435 0.575892 0.604652 0.159576
H14   H     H_    0.850165 0.860814 0.902186 0.238267
H15   H     H_    0.846017 0.915440 0.980718 0.234632
H16   H     H_    0.204208 0.834785 0.105305 0.239380
H17   H     H_    0.146228 0.853837 0.111671 0.240568
H18   H     H_    0.147816 0.901558 0.026899 0.237390
H19   H     H_    0.288479 0.347400 0.900868 0.247711
H20   H     H_    0.350165 0.360811 0.902175 0.238265
H21   H     H_    0.346016 0.415430 0.980710 0.234632
H22   H     H_    0.704218 0.334757 0.105366 0.239378
H23   H     H_    0.646239 0.353822 0.111735 0.240560
H24   H     H_    0.810895 0.590124 0.379848 0.164851
H25   H     H_    0.647813 0.401516 0.026933 0.237421
H26   H     H_    0.759880 0.907886 0.487205 0.167434
H27   H     H_    0.761370 0.003799 0.471112 0.135145
H28   H     H_    0.680886 0.025552 0.479425 0.237231
H29   H     H_    0.656188 0.950991 0.395940 0.226149
H30   H     H_    0.685234 0.931986 0.516490 0.279494
H31   H     H_    0.261988 0.045450 0.528551 0.144279
H32   H     H_    0.289593 0.011514 0.469786 0.143967
H33   H     H_    0.253089 0.885602 0.465614 0.268469
H34   H     H_    0.309865 0.922662 0.587348 0.208956
H35   H     H_    0.548765 0.806277 0.810939 0.113343
H36   H     H_    0.229073 0.920553 0.529161 0.251784
H37   H     H_    0.259895 0.407919 0.487205 0.167444
H38   H     H_    0.261373 0.503835 0.471113 0.135148
H39   H     H_    0.180891 0.525564 0.479436 0.237232
H40   H     H_    0.156199 0.451006 0.395950 0.226137
H41   H     H_    0.185251 0.431995 0.516502 0.279499
H42   H     H_    0.761662 0.545107 0.528415 0.144372
H43   H     H_    0.789416 0.511651 0.469688 0.143841
H44   H     H_    0.752931 0.385528 0.464813 0.268570
H45   H     H_    0.809625 0.422300 0.586731 0.208846
H46   H     H_    0.549117 0.826808 0.906723 0.162461
H47   H     H_    0.728808 0.419996 0.528394 0.251861
H48   H     H_    0.939152 0.025589 0.650568 0.240619
H49   H     H_    0.872868 0.967810 0.582204 0.258409
H50   H     H_    0.872427 0.049349 0.527293 0.231380
H51   H     H_    0.097865 0.121838 0.406845 0.234038
H52   H     H_    0.152044 0.049715 0.456944 0.274548
H53   H     H_    0.178104 0.138581 0.513453 0.237904
H54   H     H_    0.439149 0.525670 0.650558 0.240616
H55   H     H_    0.372874 0.467876 0.582193 0.258405
H56   H     H_    0.372419 0.549424 0.527283 0.231385
H57   H     H_    0.530683 0.694777 0.864792 0.236386
H58   H     H_    0.597627 0.621874 0.406429 0.234073
H59   H     H_    0.651738 0.549678 0.456502 0.274508
H60   H     H_    0.677854 0.638491 0.513163 0.237887
H61   H     H_    0.603769 0.687685 0.893413 0.236567
H62   H     H_    0.601777 0.709468 0.988121 0.264717
H63   H     H_    0.450900 0.687731 0.279465 0.137316
H64   H     H_    0.475778 0.772382 0.261735 0.145698
H65   H     H_    0.191084 0.186304 0.207682 0.179138
H66   H     H_    0.469485 0.711434 0.133435 0.261733
H67   H     H_    0.521773 0.665026 0.247694 0.218823
H68   H     H_    0.446250 0.626450 0.152586 0.248331
H69   H     H_    0.048778 0.306280 0.810973 0.113323
H70   H     H_    0.049124 0.326807 0.906750 0.162466
H71   H     H_    0.030729 0.194767 0.864845 0.236386
H72   H     H_    0.103827 0.187709 0.893499 0.236585
H73   H     H_    0.101808 0.209490 0.988179 0.264674
H74   H     H_    0.950789 0.187562 0.279431 0.137297
H75   H     H_    0.975850 0.272252 0.262104 0.145709
H76   H     H_    0.316312 0.677652 0.762236 0.172502
H77   H     H_    0.969827 0.211549 0.133985 0.261635
H78   H     H_    0.021822 0.164823 0.248054 0.218684
H79   H     H_    0.946263 0.126538 0.152509 0.248460
H80   H     H_    0.970472 0.147525 0.696492 0.240061
H81   H     H_    0.904813 0.177302 0.576405 0.242507
H82   H     H_    0.939641 0.236248 0.679463 0.239207
H83   H     H_    0.121709 0.245063 0.425777 0.252544
H84   H     H_    0.165328 0.308711 0.418116 0.253741
H85   H     H_    0.085614 0.288563 0.313226 0.237695
H86   H     H_    0.470433 0.647623 0.696430 0.240063
H87   H     H_    0.691238 0.686377 0.207853 0.179222
H88   H     H_    0.404753 0.677391 0.576355 0.242480
H89   H     H_    0.439586 0.736334 0.679415 0.239198
H90   H     H_    0.621586 0.745069 0.425581 0.252539
H91   H     H_    0.665323 0.808693 0.418145 0.253779
H92   H     H_    0.585617 0.788655 0.313126 0.237663
H93   H     H_    0.862054 0.285869 0.769811 0.246102
H94   H     H_    0.932728 0.269428 0.794478 0.233741
H95   H     H_    0.864279 0.297475 0.674688 0.236859
H96   H     H_    0.161852 0.307056 0.197863 0.248150
H97   H     H_    0.105615 0.319997 0.210913 0.251138
H98   H     H_    0.635672 0.763112 0.821966 0.168259
H99   H     H_    0.186295 0.339652 0.311680 0.221216
H100  H     H_    0.362021 0.785896 0.769818 0.246104
H101  H     H_    0.432689 0.769486 0.794458 0.233732
H102  H     H_    0.364225 0.797522 0.674675 0.236880
H103  H     H_    0.662067 0.807150 0.198106 0.248090
H104  H     H_    0.605761 0.820111 0.211001 0.251235
H105  H     H_    0.686434 0.839684 0.311895 0.221181
H106  H     H_    0.570919 0.800529 0.630063 0.140238
H107  H     H_    0.615853 0.717507 0.686545 0.120832
H108  H     H_    0.644640 0.722489 0.585168 0.256243
H109  H     H_    0.355667 0.712224 0.254573 0.171852
H110  H     H_    0.561726 0.720882 0.511397 0.177258
H111  H     H_    0.600891 0.805707 0.529636 0.272256
H112  H     H_    0.404494 0.799419 0.424847 0.134784
H113  H     H_    0.361923 0.721252 0.413471 0.125934
H114  H     H_    0.317407 0.791254 0.467136 0.245653
H115  H     H_    0.398468 0.816251 0.547718 0.203516
H116  H     H_    0.341852 0.877352 0.452835 0.264899
H117  H     H_    0.070909 0.300546 0.630082 0.140250
H118  H     H_    0.115834 0.217518 0.686569 0.120829
H119  H     H_    0.144608 0.222460 0.585178 0.256238
H120  H     H_    0.135677 0.263129 0.821999 0.168258
H121  H     H_    0.061695 0.220882 0.511414 0.177238
H122  H     H_    0.100878 0.305690 0.529646 0.272263
H123  H     H_    0.904602 0.299387 0.424869 0.134767
H124  H     H_    0.862035 0.221218 0.413504 0.125891
H125  H     H_    0.817655 0.291165 0.467420 0.245611
H126  H     H_    0.898708 0.316178 0.547872 0.203558
H127  H     H_    0.842042 0.377287 0.453062 0.264956
H128  H     H_    0.795607 0.010635 0.986012 0.127903
H129  H     H_    0.767873 0.073474 0.026108 0.159499
H130  H     H_    0.758959 0.171419 0.927213 0.258706
H131  H     H_    0.855740 0.212252 0.254651 0.171743
H132  H     H_    0.835415 0.132850 0.001754 0.241439
H133  H     H_    0.779179 0.109581 0.874385 0.239756
H134  H     H_    0.224273 0.949912 0.022827 0.132493
H135  H     H_    0.263551 0.983905 0.983463 0.148485
H136  H     H_    0.265950 0.109275 0.040860 0.263097
H137  H     H_    0.188069 0.072984 0.955130 0.196041
H138  H     H_    0.228212 0.074721 0.083274 0.257167
H139  H     H_    0.295614 0.510651 0.985981 0.127896
H140  H     H_    0.267895 0.573492 0.026098 0.159527
H141  H     H_    0.258973 0.671438 0.927205 0.258720
H142  H     H_    0.689435 0.075885 0.604647 0.159565
H143  H     H_    0.335421 0.632852 0.001689 0.241470
H144  H     H_    0.279152 0.609599 0.874319 0.239738
H145  H     H_    0.724231 0.449847 0.022774 0.132501
H146  H     H_    0.763501 0.483838 0.983393 0.148475
H147  H     H_    0.765842 0.609226 0.040692 0.263090
H148  H     H_    0.687976 0.572887 0.954984 0.196031
H149  H     H_    0.728115 0.574675 0.083125 0.257175
H150  H     H_    0.657025 0.948442 0.024581 0.275253
H151  H     H_    0.725727 0.989158 0.060434 0.191353
H152  H     H_    0.651736 0.030817 0.966072 0.258772
O1    O     O_R   0.500010 0.939400 0.392680 -0.643373
O2    O     O_R   0.551740 0.000000 0.944400 -0.629605
O3    O     O_R   0.948260 0.500000 0.055600 -0.621694
O4    O     O_R   0.051740 0.500000 0.944400 -0.629602
O5    O     O_R   0.551720 0.892660 0.051710 -0.625039
O6    O     O_R   0.448280 0.892660 0.948290 -0.620257
O7    O     O_R   0.051720 0.392660 0.051710 -0.625035
O8    O     O_R   0.948280 0.392660 0.948290 -0.620235
O9    O     O_R   0.499990 0.060580 0.392690 -0.613257
O10   O     O_R   0.500010 0.060580 0.607310 -0.610029
O11   O     O_R   0.999990 0.560580 0.392690 -0.613258
O12   O     O_R   0.499990 0.939400 0.607320 -0.650489
O13   O     O_R   0.000010 0.560580 0.607310 -0.610020
O14   O     O_R   0.591620 0.939400 0.591620 -0.618719
O15   O     O_R   0.408380 0.939400 0.408380 -0.644020
O16   O     O_R   0.091620 0.439400 0.591620 -0.618714
O17   O     O_R   0.908380 0.439400 0.408380 -0.643966
O18   O     O_R   0.591600 0.060580 0.591620 -0.618867
O19   O     O_R   0.408400 0.060580 0.408380 -0.616948
O20   O     O_R   0.091600 0.560580 0.591620 -0.618864
O21   O     O_R   0.908400 0.560580 0.408380 -0.616959
O22   O     O_R   0.999970 0.107360 0.060570 -0.628129
O23   O     O_R   0.000010 0.439400 0.392680 -0.643374
O24   O     O_R   0.000030 0.107360 0.939430 -0.627417
O25   O     O_R   0.499970 0.607360 0.060570 -0.628165
O26   O     O_R   0.500030 0.607360 0.939430 -0.627403
O27   O     O_R   0.908370 0.000030 0.968970 -0.635685
O28   O     O_R   0.091630 0.000030 0.031030 -0.637379
O29   O     O_R   0.408370 0.500030 0.968970 -0.635683
O30   O     O_R   0.591630 0.500030 0.031030 -0.637399
O31   O     O_R   0.908380 0.000000 0.847800 -0.604757
O32   O     O_R   0.091620 0.000000 0.152200 -0.590224
O33   O     O_R   0.408380 0.500000 0.847800 -0.604750
O34   O     O_R   0.999990 0.439400 0.607320 -0.650502
O35   O     O_R   0.591620 0.500000 0.152200 -0.590107
O36   O     O_R   0.000000 0.892710 0.060610 -0.615002
O37   O     O_R   0.000000 0.892710 0.939390 -0.615933
O38   O     O_R   0.500000 0.392710 0.060610 -0.614993
O39   O     O_R   0.500000 0.392710 0.939390 -0.615937
O40   O     O_R   0.551710 0.107310 0.051740 -0.614525
O41   O     O_R   0.448290 0.107310 0.948260 -0.615480
O42   O     O_R   0.051710 0.607310 0.051740 -0.614521
O43   O     O_R   0.948290 0.607310 0.948260 -0.615486
O44   O     O_3   0.636256 0.828365 0.952362 -0.598934
O45   O     O_R   0.551700 0.999990 0.159040 -0.623460
O46   O     O_3   0.384804 0.737780 0.146502 -0.602506
O47   O     O_3   0.136263 0.328402 0.952391 -0.598937
O48   O     O_3   0.884880 0.237831 0.146567 -0.602481
O49   O     O_3   0.667704 0.811764 0.721027 -0.581569
O50   O     O_3   0.306861 0.797664 0.306706 -0.589647
O51   O     O_3   0.167694 0.311765 0.721035 -0.581568
O52   O     O_3   0.806955 0.297688 0.306831 -0.589666
O53   O     O_3   0.701463 0.041314 0.882140 -0.598329
O54   O     O_3   0.317650 0.984327 0.132780 -0.604018
O55   O     O_3   0.201469 0.541329 0.882134 -0.598338
O56   O     O_R   0.448300 0.999990 0.840960 -0.623162
O57   O     O_3   0.817592 0.484322 0.132710 -0.604005
O58   O     O_3   0.800642 0.967470 0.612061 -0.603638
O59   O     O_3   0.193946 0.008844 0.384066 -0.591850
O60   O     O_3   0.300655 0.467499 0.612064 -0.603639
O61   O     O_3   0.693744 0.508820 0.383778 -0.591841
O62   O     O_R   0.051700 0.499990 0.159040 -0.623445
O63   O     O_R   0.948300 0.499990 0.840960 -0.623147
O64   O     O_R   0.448260 0.000000 0.055600 -0.621684
Zn1   Zn    Zn3+2 0.500000 0.919080 0.500000 0.890800
Zn2   Zn    Zn3+2 0.430940 0.999980 0.930930 0.947191
Zn3   Zn    Zn3+2 0.069060 0.499980 0.069070 0.939858
Zn4   Zn    Zn3+2 0.930940 0.499980 0.930930 0.947211
Zn5   Zn    Zn3+2 1.000000 0.419080 0.500000 0.890794
Zn6   Zn    Zn3+2 0.500000 0.080900 0.500000 0.978301
Zn7   Zn    Zn3+2 1.000000 0.580900 0.500000 0.978310
Zn8   Zn    Zn3+2 0.999980 0.000040 0.080910 0.961543
Zn9   Zn    Zn3+2 0.000020 0.000040 0.919090 0.956664
Zn10  Zn    Zn3+2 0.499980 0.500040 0.080910 0.961593
Zn11  Zn    Zn3+2 0.500020 0.500040 0.919090 0.956671
Zn12  Zn    Zn3+2 0.569060 0.999980 0.069070 0.939836

loop_
_geom_bond_atom_site_label_1
_geom_bond_atom_site_label_2
_ccdc_geom_bond_type
C42   H126  S    
C40   H119  S    
C64   H34   S    
C30   H93   S    
C63   O59   S    
C131  C151  S    
C19   C20   S    
C35   C154  A    
C7    C55   S    
O13   Zn7   S    
C146  C157  A    
C25   H78   S    
C99   O13   A    
C129  O36   A    
C57   C76   A    
C13   C112  S    
C70   C87   S    
C136  O3    A    
C26   C92   S    
C71   H52   S    
C100  C104  A    
C78   C108  S    
C77   O10   A    
O2    Zn12  S    
C32   H100  S    
C55   H9    S    
C30   C96   S    
C15   C132  A    
C1    O1    A    
C133  O43   A    
C69   H47   S    
C137  O4    A    
C46   H2    S    
O36   Zn8   S    
C138  O6    A    
C105  O18   A    
C14   C121  A    
C44   H130  S    
C21   C22   S    
C102  C111  A    
C47   H137  S    
C6    C54   S    
C88   O11   A    
C36   H110  S    
C45   C47   S    
C2    C111  S    
C70   H50   S    
C17   H46   S    
C80   C159  S    
C106  O15   A    
O35   Zn10  S    
C103  C112  A    
O15   Zn1   S    
O27   Zn8   S    
C43   C44   S    
C37   C38   S    
C27   H83   S    
C78   C82   A    
C21   H70   S    
O31   Zn9   S    
C131  O41   A    
C109  C154  S    
C73   C91   S    
O45   Zn12  S    
C76   C107  S    
C74   C79   A    
C48   O55   S    
C27   C93   S    
C62   H30   S    
C51   H148  S    
C2    C121  A    
C66   H41   S    
C69   H44   S    
O29   Zn10  S    
C122  C137  S    
C85   C90   A    
C135  O2    A    
C72   H54   S    
O38   Zn10  S    
C3    C7    A    
C31   H97   S    
C45   H134  S    
C108  O21   A    
C27   H85   S    
C124  O26   A    
O63   Zn4   S    
C123  C140  S    
C12   C56   S    
C13   C132  A    
C32   C98   S    
C130  O39   A    
C17   H35   S    
C29   H91   S    
C141  C147  T    
C38   H115  S    
C139  O8    A    
C44   H132  S    
C61   H27   S    
C63   H32   S    
C34   H106  S    
C58   H16   S    
C9    O46   S    
C41   H123  S    
C54   H8    S    
C26   H82   S    
C85   O60   S    
C52   H151  S    
C70   H48   S    
O10   Zn6   S    
C85   C112  A    
C79   C158  S    
C12   C110  A    
C10   O47   S    
C56   H14   S    
C5    C9    A    
C37   O50   S    
C56   H12   S    
C58   H17   S    
C5    C163  A    
C31   H99   S    
C137  O63   A    
O28   Zn9   S    
C13   C57   A    
C24   C143  A    
C92   C96   A    
C16   C60   S    
C153  C158  A    
C18   H57   S    
C19   H63   S    
C103  H76   S    
C130  C150  S    
C31   H96   S    
C118  C134  S    
C22   H73   S    
C66   H40   S    
C81   C160  S    
C43   O53   S    
C23   O48   S    
C46   C75   A    
O41   Zn2   S    
C72   H56   S    
C139  C148  S    
O34   Zn5   S    
C73   H59   S    
C33   H104  S    
C155  C159  A    
C128  O30   A    
C156  C160  A    
C28   H89   S    
O42   Zn3   S    
C39   C40   S    
C34   O49   S    
C3    C161  A    
C28   C94   S    
O19   Zn6   S    
C116  C120  T    
C117  C122  T    
C129  C149  S    
C18   H61   S    
O7    Zn3   S    
C99   C117  S    
C50   O57   S    
C72   C90   S    
O16   Zn5   S    
C53   H4    S    
C153  O49   S    
C17   C18   S    
C36   H108  S    
C32   H101  S    
C50   H146  S    
C59   H19   S    
O43   Zn4   S    
C83   O58   S    
C115  C119  T    
C124  C141  S    
C93   C97   A    
C106  O19   A    
C42   H127  S    
C30   H94   S    
C63   C64   S    
C135  O56   A    
C11   C146  A    
C51   H149  S    
C25   H77   S    
O12   Zn1   S    
C77   C115  S    
C74   C105  S    
C57   H13   S    
C71   H51   S    
C125  O31   A    
C59   H21   S    
C34   C36   S    
C89   C93   A    
C61   C62   S    
C28   H86   S    
C50   H145  S    
C91   C95   A    
C104  C113  A    
C68   H24   S    
C133  O42   A    
O56   Zn2   S    
C104  H87   S    
C96   C101  A    
C37   H113  S    
C83   C87   A    
C35   C74   A    
C41   C42   S    
C54   H6    S    
O37   Zn9   S    
C48   H139  S    
C86   O61   S    
C107  O20   A    
C99   O34   A    
C67   H43   S    
C8    O44   S    
C136  O62   A    
C21   O47   S    
C52   H150  S    
C86   C113  A    
C160  C164  A    
O23   Zn5   S    
C49   H141  S    
C86   C91   A    
C37   H112  S    
O21   Zn7   S    
C94   C98   A    
C39   H118  S    
C101  C109  A    
C98   C103  A    
C12   C79   A    
C40   H121  S    
O62   Zn3   S    
C61   O58   S    
C145  C156  A    
C21   H69   S    
C65   H38   S    
O8    Zn4   S    
C157  O52   S    
C97   C102  A    
C53   H5    S    
C49   H144  S    
C42   H125  S    
C64   H33   S    
C162  O53   S    
C133  C152  S    
C35   H142  S    
C84   O59   S    
C9    C144  A    
C90   C94   A    
C51   H147  S    
C25   H79   S    
C68   C78   A    
C14   C58   S    
O24   Zn9   S    
C84   C111  A    
C20   H66   S    
C19   O46   S    
C16   C143  A    
C163  O54   S    
C95   C100  A    
O33   Zn11  S    
C119  C135  S    
O6    Zn2   S    
C144  H109  S    
C120  C136  S    
C88   O23   A    
C28   H88   S    
C55   H10   S    
C23   H75   S    
C126  O32   A    
O4    Zn3   S    
C50   C51   S    
O17   Zn5   S    
C29   H90   S    
C101  H1    S    
C67   H42   S    
C38   H116  S    
C48   C49   S    
C6    C164  A    
C60   H23   S    
C61   H26   S    
C77   O12   A    
C63   H31   S    
C34   H107  S    
C47   H138  S    
C1    C114  S    
C157  C161  A    
O64   Zn2   S    
C52   H152  S    
C70   H49   S    
C15   C59   S    
C45   O54   S    
C49   H143  S    
C41   O52   S    
C6    C10   A    
C146  H131  S    
C71   H53   S    
C107  O16   A    
C58   H18   S    
C39   O51   S    
C27   H84   S    
O30   Zn11  S    
C67   O61   S    
C31   C97   S    
C128  C143  S    
C24   C68   A    
O11   Zn7   S    
C75   C106  S    
C138  O5    A    
C44   H133  S    
C108  O17   A    
C8    C142  A    
C142  H98   S    
C62   H29   S    
C20   H68   S    
C4    C8    A    
C140  C148  T    
C15   C81   A    
C2    C46   A    
C7    C11   A    
C125  O27   A    
C105  O14   A    
C73   H58   S    
C33   H103  S    
C45   H135  S    
C128  O35   A    
C5    C53   S    
O32   Zn8   S    
C134  O45   A    
C124  O25   A    
C26   H80   S    
O14   Zn1   S    
C130  O38   A    
C29   H92   S    
C43   H129  S    
C127  C132  S    
C18   H62   S    
C164  O55   S    
C53   H3    S    
C60   H25   S    
C102  H65   S    
C83   C109  A    
C32   H102  S    
C14   C80   A    
C41   H124  S    
C75   C80   A    
C36   H111  S    
O3    Zn4   S    
C26   H81   S    
C134  O64   A    
O25   Zn10  S    
C123  O24   A    
C24   C113  S    
O20   Zn7   S    
C65   O60   S    
C38   H114  S    
C4    C52   S    
C30   H95   S    
C127  O29   A    
C149  C152  T    
C11   O48   S    
C29   C95   S    
O9    Zn6   S    
C62   H28   S    
C10   C145  A    
C131  O40   A    
C22   H71   S    
C155  O50   S    
C67   C69   S    
C88   C116  S    
C19   H64   S    
C110  C154  A    
C23   H74   S    
C71   C89   S    
C138  C147  S    
C43   H128  S    
C16   C82   A    
O39   Zn11  S    
C55   H11   S    
C114  C118  T    
C22   H72   S    
C66   H39   S    
C17   O44   S    
C156  O51   S    
C159  C163  A    
C69   H45   S    
C84   C89   A    
O22   Zn8   S    
C87   C92   A    
C129  O37   A    
C72   H55   S    
C60   H22   S    
C3    O57   S    
C73   H60   S    
C33   H105  S    
C150  C151  T    
C54   H7    S    
C139  O7    A    
C48   H140  S    
C76   C81   A    
O1    Zn1   S    
C82   C161  S    
C47   H136  S    
C33   C100  S    
C144  C155  A    
C64   H36   S    
O18   Zn6   S    
C121  C126  S    
C126  O28   A    
C39   H117  S    
C40   H122  S    
C4    C162  A    
C23   C25   S    
C142  C153  A    
C59   H20   S    
O5    Zn12  S    
C158  C162  A    
C110  C125  S    
C123  O22   A    
O26   Zn11  S    
C65   H37   S    
C65   C66   S    
C20   H67   S    
C127  O33   A    
C145  H120  S    
C1    O9    A    
O40   Zn12  S    
C56   H15   S    
