data_mof_unit_38806.cif
_audit_creation_date              2012-12-10T17:53:22-0500
_audit_creation_method            fapswitch 2.2
_symmetry_space_group_name_H-M    P1
_symmetry_Int_Tables_number       1
_space_group_crystal_system       triclinic
_cell_length_a                    23.421052
_cell_length_b                    10.606479
_cell_length_c                    9.949822
_cell_angle_alpha                 86.991933
_cell_angle_beta                  90.275516
_cell_angle_gamma                 93.921437
_cell_volume                      2462.49773012

loop_
_atom_site_label
_atom_site_type_symbol
_atom_type_description
_atom_site_fract_x
_atom_site_fract_y
_atom_site_fract_z
_atom_type_partial_charge
Br1   Br    Br    0.928656 0.087707 0.448456 -0.412732
Br2   Br    Br    0.629872 0.777634 0.364142 -0.542589
Br3   Br    Br    0.400053 0.249549 0.744614 -0.514345
C1    C     C_R   0.499256 0.260405 0.503415 0.882942
C2    C     C_R   0.121478 0.601496 0.517741 0.507570
C3    C     C_R   0.237509 0.496217 0.377453 -0.096910
C4    C     C_R   0.389455 0.500994 0.499677 0.888084
C5    C     C_R   0.296857 0.499563 0.377197 -0.230794
C6    C     C_R   0.327151 0.501558 0.499262 -0.030596
C7    C     C_R   0.297346 0.503332 0.621199 -0.182882
C8    C     C_R   0.238048 0.500340 0.621124 -0.102132
C9    C     C_R   0.208263 0.496051 0.499413 0.319532
C10   C     C_R   0.760641 0.465768 0.382349 0.256248
C11   C     C_R   0.701275 0.469705 0.382412 -0.241442
C12   C     C_R   0.965478 0.253196 0.471751 0.311025
C13   C     C_R   0.672284 0.488411 0.502027 -0.048126
C14   C     C_R   0.702760 0.499310 0.622928 -0.222341
C15   C     C_R   0.761712 0.494110 0.623750 -0.150026
C16   C     C_R   0.504807 0.740059 0.496133 0.918380
C17   C     C_R   0.790740 0.478404 0.504054 0.284826
C18   C     C_R   0.604886 0.148731 0.569460 -0.192367
C19   C     C_R   0.658108 0.098077 0.571475 -0.167352
C20   C     C_R   0.663336 0.978115 0.525192 -0.100838
C21   C     C_R   0.614873 0.905179 0.484781 0.205430
C22   C     C_R   0.559427 0.948710 0.501313 0.028604
C23   C     C_R   0.025114 0.259095 0.469945 -0.189184
C24   C     C_R   0.555440 0.075833 0.530045 0.065784
C25   C     C_R   0.502271 0.128092 0.511552 -0.046204
C26   C     C_R   0.452626 0.055581 0.481894 -0.158188
C27   C     C_R   0.454860 0.927448 0.474375 -0.181153
C28   C     C_R   0.610358 0.496131 0.500625 0.908817
C29   C     C_R   0.507490 0.874171 0.485293 -0.077714
C30   C     C_R   0.412195 0.367751 0.151199 -0.132411
C31   C     C_R   0.360061 0.335612 0.092518 -0.249792
C32   C     C_R   0.354744 0.347889 0.954653 -0.205124
C33   C     C_R   0.403681 0.375099 0.875570 0.288864
C34   C     C_R   0.057305 0.373455 0.485547 -0.071536
C35   C     C_R   0.454490 0.436163 0.932302 0.102168
C36   C     C_R   0.456055 0.435369 0.076844 0.138156
C37   C     C_R   0.542583 0.560956 0.068158 -0.090533
C38   C     C_R   0.542803 0.560183 0.925468 -0.103942
C39   C     C_R   0.882667 0.589380 0.523863 0.494261
C40   C     C_R   0.876535 0.366874 0.491274 0.575722
C41   C     C_R   0.936611 0.364805 0.489407 -0.102148
C42   C     C_R   0.969318 0.480633 0.505656 -0.061486
C43   C     C_R   0.942137 0.593248 0.523742 -0.008768
C44   C     C_3   0.812758 0.564344 0.192194 -0.714016
C45   C     C_R   0.029485 0.484587 0.503806 -0.017130
C46   C     C_R   0.061851 0.600010 0.520115 -0.010138
C47   C     C_R   0.034113 0.710772 0.538322 -0.146576
C48   C     C_R   0.974772 0.707406 0.540138 -0.128711
C49   C     C_R   0.117112 0.379618 0.483738 0.529622
H1    H     H_    0.678101 0.460014 0.288592 0.168730
H2    H     H_    0.046288 0.173021 0.456118 0.215550
H3    H     H_    0.417162 0.337491 0.254256 0.206411
H4    H     H_    0.324935 0.292599 0.153094 0.179880
H5    H     H_    0.315159 0.310018 0.910632 0.190348
H6    H     H_    0.577748 0.609876 0.869699 0.150310
H7    H     H_    0.058107 0.800352 0.551059 0.203569
H8    H     H_    0.954584 0.794632 0.554199 0.222082
H9    H     H_    0.214182 0.493976 0.283273 0.141324
H10   H     H_    0.318852 0.500636 0.281806 0.172996
H11   H     H_    0.319669 0.506974 0.716472 0.165876
H12   H     H_    0.681215 0.512986 0.716598 0.169618
H13   H     H_    0.215136 0.500951 0.715349 0.139348
H14   H     H_    0.766817 0.390939 0.196154 0.235063
H15   H     H_    0.836600 0.541825 0.101280 0.239144
H16   H     H_    0.842775 0.617759 0.258488 0.266017
H17   H     H_    0.777427 0.624303 0.160690 0.248536
H18   H     H_    0.785126 0.503469 0.717234 0.155720
H19   H     H_    0.412136 0.098214 0.466869 0.163511
H20   H     H_    0.602803 0.244782 0.598935 0.147410
H21   H     H_    0.695817 0.154997 0.600790 0.181918
H22   H     H_    0.705620 0.944899 0.513068 0.200410
H23   H     H_    0.415555 0.869456 0.459913 0.151291
H24   H     H_    0.577390 0.611288 0.118924 0.180468
N1    N     N_R   0.851544 0.477976 0.506578 -0.356400
N2    N     N_R   0.147519 0.492356 0.499812 -0.361543
N3    N     N_R   0.499460 0.498800 0.142780 -0.116864
N4    N     N_R   0.499440 0.498720 0.857170 -0.111826
N5    N     N_2   0.789933 0.448195 0.260527 -0.299613
O1    O     O_R   0.500000 0.316780 0.614690 -0.571187
O2    O     O_R   0.583850 0.500050 0.614640 -0.639095
O3    O     O_R   0.583840 0.500030 0.385310 -0.594703
O4    O     O_2   0.855807 0.696388 0.539273 -0.525487
O5    O     O_2   0.842817 0.260096 0.478490 -0.497463
O6    O     O_2   0.144819 0.274080 0.466861 -0.539567
O7    O     O_2   0.153344 0.710826 0.532746 -0.539625
O8    O     O_R   0.500000 0.316750 0.385360 -0.641832
O9    O     O_R   0.416160 0.499970 0.614690 -0.598159
O10   O     O_R   0.416150 0.499950 0.385360 -0.649516
O11   O     O_R   0.500000 0.683250 0.614640 -0.609460
O12   O     O_R   0.500000 0.683220 0.385310 -0.580060
Zn1   Zn    Zn3+2 0.500000 0.500020 0.653130 0.987869
Zn2   Zn    Zn3+2 0.500000 0.499980 0.346870 0.973188

loop_
_geom_bond_atom_site_label_1
_geom_bond_atom_site_label_2
_ccdc_geom_bond_type
C15   H18   S    
C31   H4    S    
O1    Zn1   S    
C32   C33   A    
C38   N4    A    
C42   C43   A    
C13   C28   S    
C30   C36   A    
C17   N1    S    
C47   H7    S    
C3    H9    S    
C25   C26   A    
C38   H6    S    
C14   H12   S    
C3    C9    A    
C35   C36   A    
C10   N5    S    
C28   O2    A    
C14   C15   A    
C31   C32   A    
C39   C43   A    
C44   H17   S    
C16   O11   A    
C2    O7    S    
C7    H11   S    
C5    C6    A    
C9    N2    S    
C20   C21   A    
Br1   C12   S    
C6    C7    A    
C16   O12   A    
C22   C29   A    
C18   C24   A    
O12   Zn2   S    
C10   C11   A    
C2    C46   A    
C49   N2    A    
C16   C29   S    
C23   H2    S    
C44   H15   S    
C1    C25   S    
O9    Zn1   S    
C18   H20   S    
C21   C22   A    
C34   C49   A    
C13   C14   A    
C12   C23   A    
C3    C5    A    
C47   C48   A    
C4    O9    A    
C43   C48   A    
C28   O3    A    
C37   H24   S    
O3    Zn2   S    
C36   N3    A    
O8    Zn2   S    
C40   C41   A    
N3    Zn2   S    
C26   C27   A    
C4    O10   A    
O11   Zn1   S    
C30   C31   A    
C37   N3    A    
C30   H3    S    
C39   O4    S    
C34   C45   A    
C45   C46   A    
Br2   C21   S    
C11   C13   A    
C40   N1    A    
C20   H22   S    
N4    Zn1   S    
C44   H16   S    
C41   C42   A    
C1    O8    A    
C42   C45   A    
C4    C6    S    
C37   C38   A    
C10   C17   A    
C40   O5    S    
C49   O6    S    
C12   C41   A    
C8    C9    A    
C23   C34   A    
C22   C24   A    
C32   H5    S    
C33   C35   A    
H14   N5    S    
C27   C29   A    
C27   H23   S    
O2    Zn1   S    
C35   N4    A    
Br3   C33   S    
C15   C17   A    
C44   N5    S    
C7    C8    A    
O10   Zn2   S    
C11   H1    S    
C1    O1    A    
C39   N1    A    
C46   C47   A    
C24   C25   A    
C19   C20   A    
C48   H8    S    
C19   H21   S    
C2    N2    A    
C18   C19   A    
C8    H13   S    
C5    H10   S    
C26   H19   S    
