data_mof_unit_60967.cif
_audit_creation_date              2012-12-10T20:43:44-0500
_audit_creation_method            fapswitch 2.2
_symmetry_space_group_name_H-M    P1
_symmetry_Int_Tables_number       1
_space_group_crystal_system       triclinic
_cell_length_a                    10.830967
_cell_length_b                    19.217859
_cell_length_c                    19.212498
_cell_angle_alpha                 94.76184
_cell_angle_beta                  92.070365
_cell_angle_gamma                 96.664488
_cell_volume                      3954.07807947

loop_
_atom_site_label
_atom_site_type_symbol
_atom_type_description
_atom_site_fract_x
_atom_site_fract_y
_atom_site_fract_z
_atom_type_partial_charge
C1    C     C_R   0.513390 0.690136 0.508132 0.788805
C2    C     C_R   0.520243 0.767036 0.510508 0.004941
C3    C     C_R   0.629542 0.806391 0.491800 -0.213341
C4    C     C_R   0.486492 0.309701 0.492011 0.792902
C5    C     C_R   0.636106 0.879149 0.491718 -0.196764
C6    C     C_R   0.487637 0.511981 0.765815 0.000384
C7    C     C_R   0.543774 0.462929 0.802524 -0.224004
C8    C     C_R   0.547772 0.468173 0.875243 -0.169597
C9    C     C_R   0.495699 0.522972 0.912780 0.321110
C10   C     C_R   0.441255 0.572406 0.876132 -0.195754
C11   C     C_R   0.435960 0.566679 0.803132 -0.213896
C12   C     C_R   0.567034 0.201853 0.528864 -0.225952
C13   C     C_R   0.561118 0.543688 0.127621 -0.167239
C14   C     C_R   0.563918 0.547221 0.200526 -0.225609
C15   C     C_R   0.511954 0.480981 0.087861 0.320664
C16   C     C_R   0.512852 0.492660 0.310929 0.794188
C17   C     C_R   0.516400 0.488656 0.234443 0.002256
C18   C     C_R   0.469368 0.426011 0.194628 -0.211250
C19   C     C_R   0.468851 0.422098 0.121950 -0.194625
C20   C     C_R   0.487662 0.507211 0.689060 0.792047
C21   C     C_R   0.835225 0.515279 0.515242 0.861673
C22   C     C_R   0.163873 0.485033 0.485043 0.890255
C23   C     C_R   0.557599 0.129185 0.530350 -0.170626
C24   C     C_2   0.028975 0.479145 0.479208 -0.346318
C25   C     C_2   0.968549 0.521097 0.520989 -0.299788
C26   C     C_R   0.477646 0.232701 0.491128 -0.000448
C27   C     C_R   0.457874 0.085771 0.494069 0.320993
C28   C     C_R   0.367874 0.116656 0.457215 -0.196668
C29   C     C_R   0.378123 0.189563 0.455057 -0.215285
C30   C     C_R   0.423591 0.874430 0.528250 -0.169290
C31   C     C_R   0.417794 0.801605 0.529685 -0.228502
C32   C     C_R   0.532973 0.913569 0.508387 0.321004
H1    H     H_    0.644368 0.233908 0.557438 0.167159
H2    H     H_    0.016714 0.560164 0.559813 0.159964
H3    H     H_    0.332698 0.772241 0.544454 0.161406
H4    H     H_    0.343352 0.900068 0.543000 0.149028
H5    H     H_    0.290171 0.084022 0.429609 0.142415
H6    H     H_    0.307293 0.212191 0.426147 0.164608
H7    H     H_    0.710243 0.780921 0.477497 0.162926
H8    H     H_    0.627525 0.107129 0.560503 0.150501
H9    H     H_    0.721226 0.908811 0.477372 0.142313
H10   H     H_    0.978520 0.440472 0.440717 0.147475
H11   H     H_    0.600964 0.595980 0.230286 0.163692
H12   H     H_    0.597811 0.589561 0.102451 0.150363
H13   H     H_    0.401866 0.615127 0.904292 0.143364
H14   H     H_    0.393246 0.605591 0.775985 0.165303
H15   H     H_    0.433417 0.379903 0.219711 0.163455
H16   H     H_    0.592766 0.429841 0.901998 0.151373
H17   H     H_    0.432547 0.373351 0.091930 0.143315
H18   H     H_    0.584891 0.420448 0.775050 0.167755
N1    N     N_2   0.444328 0.011440 0.494691 -0.202976
N2    N     N_2   0.544520 0.987572 0.506648 -0.205517
N3    N     N_2   0.498580 0.530530 0.986966 -0.201935
N4    N     N_2   0.507512 0.474327 0.013828 -0.204489
O1    O     O_3   0.500000 0.500000 0.500000 -0.478797
O2    O     O_R   0.783160 0.551820 0.473170 -0.635437
O3    O     O_R   0.222430 0.530340 0.530340 -0.639960
O4    O     O_R   0.771990 0.472690 0.551320 -0.634639
O5    O     O_R   0.222420 0.445150 0.445160 -0.645376
O6    O     O_R   0.435070 0.449940 0.339290 -0.645436
O7    O     O_R   0.419380 0.543640 0.654290 -0.645649
O8    O     O_R   0.586230 0.658380 0.469080 -0.646448
O9    O     O_R   0.559310 0.348040 0.537340 -0.645376
O10   O     O_R   0.435110 0.654980 0.544320 -0.645432
O11   O     O_R   0.419350 0.338590 0.449260 -0.647440
O12   O     O_R   0.586210 0.538520 0.349230 -0.641761
O13   O     O_R   0.559330 0.467910 0.657200 -0.646148
Zn1   Zn    Zn3+2 0.396020 0.434560 0.434560 0.968665
Zn2   Zn    Zn3+2 0.611960 0.561120 0.448760 0.968854
Zn3   Zn    Zn3+2 0.595990 0.448060 0.560420 0.967452
Zn4   Zn    Zn3+2 0.396040 0.556260 0.556260 0.965161

loop_
_geom_bond_atom_site_label_1
_geom_bond_atom_site_label_2
_ccdc_geom_bond_type
C29   H6    S    
C8    C9    A    
C21   O2    A    
C4    C26   S    
C8    H16   S    
O1    Zn4   S    
C6    C7    A    
C23   C27   A    
O5    Zn1   S    
C6    C20   S    
C9    C10   A    
C19   H17   S    
C20   O13   A    
C4    O9    A    
O9    Zn3   S    
C30   H4    S    
C25   H2    S    
C5    C32   A    
C1    O8    A    
O11   Zn1   S    
C22   O3    A    
C2    C3    A    
C3    H7    S    
C21   O4    A    
N3    N4    D    
C18   H15   S    
C30   C32   A    
C20   O7    A    
C14   C17   A    
O7    Zn4   S    
O1    Zn2   S    
C16   O12   A    
C21   C25   S    
C28   H5    S    
C10   H13   S    
C6    C11   A    
C1    C2    S    
C16   C17   S    
C28   C29   A    
C27   N1    S    
O4    Zn3   S    
O1    Zn1   S    
C22   C24   S    
C13   C15   A    
C4    O11   A    
C13   C14   A    
C31   H3    S    
O12   Zn2   S    
C9    N3    S    
C10   C11   A    
C5    H9    S    
C23   H8    S    
O1    Zn3   S    
C15   N4    S    
O8    Zn2   S    
C27   C28   A    
C24   H10   S    
C24   C25   D    
O6    Zn1   S    
C26   C29   A    
C17   C18   A    
C18   C19   A    
C16   O6    A    
O10   Zn4   S    
C22   O5    A    
O2    Zn2   S    
C7    C8    A    
C14   H11   S    
C30   C31   A    
C32   N2    S    
C11   H14   S    
C12   C23   A    
O13   Zn3   S    
C12   H1    S    
C15   C19   A    
C1    O10   A    
C13   H12   S    
O3    Zn4   S    
N1    N2    D    
C7    H18   S    
C12   C26   A    
C2    C31   A    
C3    C5    A    
