data_mof_unit_10641.cif
_audit_creation_date              2012-12-10T18:52:13-0500
_audit_creation_method            fapswitch 2.2
_symmetry_space_group_name_H-M    P1
_symmetry_Int_Tables_number       1
_space_group_crystal_system       triclinic
_cell_length_a                    15.734126
_cell_length_b                    10.811999
_cell_length_c                    9.850819
_cell_angle_alpha                 90.191585
_cell_angle_beta                  90.12442
_cell_angle_gamma                 90.426257
_cell_volume                      1675.73548285

loop_
_atom_site_label
_atom_site_type_symbol
_atom_type_description
_atom_site_fract_x
_atom_site_fract_y
_atom_site_fract_z
_atom_type_partial_charge
C1    C     C_R   0.499953 0.260163 0.499927 1.023783
C2    C     C_R   0.500110 0.740565 0.500392 0.973719
C3    C     C_R   0.497887 0.939548 0.376780 0.215837
C4    C     C_R   0.524646 0.064172 0.618694 0.295255
C5    C     C_R   0.500047 0.873870 0.501202 -0.404155
C6    C     C_R   0.500012 0.128120 0.500508 -0.392435
C7    C     C_R   0.570354 0.536938 0.071809 0.569162
C8    C     C_R   0.430235 0.460675 0.927872 0.515359
C9    C     C_R   0.570013 0.538154 0.928574 0.536543
C10   C     C_R   0.429845 0.462356 0.071178 0.550118
C11   C     C_R   0.338016 0.500019 0.499818 0.907576
C12   C     C_R   0.661975 0.500024 0.500188 0.892914
C13   C     C_3   0.972162 0.384515 0.527354 0.207258
C14   C     C_3   0.027758 0.613661 0.472376 0.197522
C15   C     C_3   0.027896 0.420551 0.405170 0.596532
C16   C     C_3   0.972036 0.577549 0.594598 0.543091
C17   C     C_1   0.249389 0.500099 0.499377 -0.000665
C18   C     C_1   0.750579 0.499054 0.500655 -0.006934
C19   C     C_3   0.028257 0.464290 0.622051 0.101563
C20   C     C_3   0.971644 0.533841 0.377653 0.166449
C21   C     C_3   0.083655 0.500376 0.499931 -0.363550
C22   C     C_3   0.916278 0.497704 0.499900 -0.379723
C23   C     C_1   0.174288 0.500206 0.499217 0.270836
C24   C     C_1   0.825663 0.498230 0.500796 0.266305
C25   C     C_R   0.475306 0.062217 0.383249 0.301901
C26   C     C_R   0.502227 0.940515 0.625834 0.306698
N1    N     N_R   0.499980 0.499970 0.857200 -0.266476
N2    N     N_R   0.500020 0.500030 0.142800 -0.264413
O1    O     O_R   0.499990 0.316750 0.614620 -0.558203
O2    O     O_R   0.500010 0.683250 0.385380 -0.556324
O3    O     O_R   0.500000 0.316780 0.385290 -0.570605
O4    O     O_R   0.500000 0.683220 0.614710 -0.558945
O5    O     O_R   0.376780 0.499970 0.614640 -0.554948
O6    O     O_R   0.623220 0.500030 0.385360 -0.551464
O7    O     O_R   0.376780 0.500000 0.385310 -0.549086
O8    O     O_R   0.623220 0.500000 0.614690 -0.559479
Zn1   Zn    Zn3+2 0.500000 0.499980 0.653120 1.153498
Zn2   Zn    Zn3+2 0.500000 0.500020 0.346880 1.167389
F1    F     F_    0.058334 0.339957 0.307734 -0.511491
F2    F     F_    0.941632 0.658222 0.691983 -0.542774
S1    S     S_3+6 0.933717 0.232041 0.560067 0.173770
O9    O     O_2   0.878881 0.233567 0.684752 -0.229577
O10   O     O_2   0.882279 0.187471 0.440628 -0.199991
O11   O     O_3   0.016630 0.137447 0.584411 -0.409721
H1    H     H_    0.991024 0.057598 0.612485 0.430239
S2    S     S_3+6 0.066953 0.766138 0.441588 0.148692
O12   O     O_2   0.114509 0.811613 0.564616 -0.164249
O13   O     O_2   0.126355 0.764390 0.322281 -0.257896
O14   O     O_3   0.985176 0.861382 0.410493 -0.449312
H2    H     H_    0.984004 0.871902 0.310689 0.400278
S3    S     S_3+6 0.931162 0.574518 0.214730 0.171496
O15   O     O_2   0.881722 0.467038 0.157213 -0.154157
O16   O     O_2   0.873109 0.683675 0.228029 -0.238512
O17   O     O_3   0.012160 0.608984 0.109999 -0.418476
H3    H     H_    0.017006 0.700338 0.111656 0.396008
S4    S     S_3+6 0.067737 0.421555 0.785036 0.223764
O18   O     O_2   0.125276 0.312123 0.770061 -0.137599
O19   O     O_2   0.117005 0.527804 0.845685 -0.165861
O20   O     O_3   0.986448 0.383872 0.887665 -0.374687
H4    H     H_    0.945948 0.453128 0.879263 0.400050
S5    S     S_3+6 0.405329 0.121520 0.257280 0.173016
O21   O     O_2   0.455139 0.190069 0.151156 -0.190871
O22   O     O_2   0.357353 0.016838 0.190695 -0.177765
O23   O     O_3   0.335383 0.217780 0.330589 -0.518768
H5    H     H_    0.288613 0.226071 0.263857 0.437184
S6    S     S_3+6 0.466097 0.882184 0.785378 0.162984
O24   O     O_2   0.536555 0.811584 0.852149 -0.198740
O25   O     O_2   0.440046 0.986609 0.876932 -0.131288
O26   O     O_3   0.381164 0.788747 0.762565 -0.511552
H6    H     H_    0.373733 0.745594 0.850351 0.388838
S7    S     S_3+6 0.539900 0.883776 0.220124 0.169186
O27   O     O_2   0.474693 0.804467 0.148962 -0.215480
O28   O     O_2   0.564294 0.989068 0.128603 -0.148457
O29   O     O_3   0.627452 0.800141 0.250931 -0.434247
H7    H     H_    0.665391 0.855988 0.303583 0.362197
S8    S     S_3+6 0.594047 0.128212 0.744880 0.143776
O30   O     O_2   0.543427 0.197011 0.849672 -0.228005
O31   O     O_2   0.643053 0.027157 0.813374 -0.151829
O32   O     O_3   0.663540 0.226010 0.671302 -0.547386
H8    H     H_    0.692620 0.268688 0.747670 0.407866
F3    F     F_    0.641832 0.572632 0.138102 -0.506586
F4    F     F_    0.360679 0.417993 0.860907 -0.527021
F5    F     F_    0.640142 0.578695 0.862351 -0.531290
F6    F     F_    0.359091 0.424102 0.137077 -0.537658

loop_
_geom_bond_atom_site_label_1
_geom_bond_atom_site_label_2
_ccdc_geom_bond_type
C19   S4    S    
S6    O25   D    
S1    O9    D    
S8    O32   S    
C13   S1    S    
C14   S2    S    
S2    O14   S    
C17   C23   T    
C8    F4    S    
C14   C21   S    
O8    Zn1   S    
C19   C21   S    
S8    O31   D    
C20   S3    S    
C6    C25   A    
O1    Zn1   S    
C1    O3    A    
S4    O18   D    
O2    Zn2   S    
C2    O4    A    
S5    O22   D    
O17   H3    S    
C11   O7    A    
C18   C24   T    
C12   O8    A    
S6    O24   D    
O20   H4    S    
S1    O10   D    
S5    O21   D    
C15   C20   S    
S2    O13   D    
O29   H7    S    
C13   C19   S    
S3    O15   D    
C26   S6    S    
C14   C20   S    
C11   O5    A    
O7    Zn2   S    
S8    O30   D    
C4    C6    A    
S7    O28   D    
O5    Zn1   S    
C7    N2    A    
C5    C26   A    
S3    O16   D    
S5    O23   S    
C3    S7    S    
N2    Zn2   S    
C1    O1    A    
C25   S5    S    
O4    Zn1   S    
C15   F1    S    
C16   F2    S    
C7    F3    S    
C9    F5    S    
C21   C23   S    
S1    O11   S    
C22   C24   S    
C2    C5    S    
C12   O6    A    
O11   H1    S    
C9    N1    A    
C10   N2    A    
C7    C9    A    
S2    O12   D    
C11   C17   S    
C16   C22   S    
O6    Zn2   S    
C20   C22   S    
C3    C5    A    
S7    O29   S    
C4    C26   A    
S4    O20   S    
O3    Zn2   S    
C2    O2    A    
S3    O17   S    
O23   H5    S    
C13   C15   S    
S7    O27   D    
N1    Zn1   S    
C16   C19   S    
C10   F6    S    
S4    O19   D    
C13   C22   S    
C14   C16   S    
O26   H6    S    
C4    S8    S    
O32   H8    S    
S6    O26   S    
C15   C21   S    
C3    C25   A    
C8    C10   A    
O14   H2    S    
C12   C18   S    
C1    C6    S    
C8    N1    A    
