data_mof_unit_56014.cif
_audit_creation_date              2012-12-10T17:02:05-0500
_audit_creation_method            fapswitch 2.2
_symmetry_space_group_name_H-M    P1
_symmetry_Int_Tables_number       1
_space_group_crystal_system       triclinic
_cell_length_a                    11.001463
_cell_length_b                    11.206932
_cell_length_c                    9.903816
_cell_angle_alpha                 110.798727
_cell_angle_beta                  98.857192
_cell_angle_gamma                 91.363959
_cell_volume                      1123.80489199

loop_
_atom_site_label
_atom_site_type_symbol
_atom_type_description
_atom_site_fract_x
_atom_site_fract_y
_atom_site_fract_z
_atom_type_partial_charge
C1    C     C_R   0.491431 0.254767 0.442158 0.855383
C2    C     C_2   0.498020 0.929442 0.485486 -0.173183
C3    C     C_2   0.514678 0.507301 0.083220 0.012866
C4    C     C_R   0.261800 0.491365 0.498344 0.791253
C5    C     C_2   0.502968 0.483009 0.920324 -0.106658
C6    C     C_R   0.508130 0.743974 0.558389 0.884221
C7    C     C_R   0.737148 0.494980 0.499445 0.826082
C8    C     C_R   0.157915 0.488157 0.754309 -0.057114
C9    C     C_R   0.125088 0.554016 0.891008 -0.089735
C10   C     C_R   0.000573 0.570816 0.896650 0.122769
C11   C     C_R   0.916102 0.512009 0.767380 0.159562
C12   C     C_R   0.081207 0.491162 0.627834 0.006320
C13   C     C_R   0.953834 0.496962 0.631815 -0.001964
C14   C     C_1   0.074243 0.409184 0.221333 0.342164
C15   C     C_1   0.607283 0.604190 0.184825 0.380390
C16   C     C_1   0.592615 0.682406 0.946677 0.485771
C17   C     C_1   0.382812 0.327974 0.047436 0.467948
C18   C     C_1   0.214158 0.369247 0.733328 0.277751
C19   C     C_1   0.216421 0.605850 0.022287 0.300853
C20   C     C_1   0.538692 0.147235 0.677528 0.385165
C21   C     C_R   0.126393 0.475639 0.496090 -0.134164
C22   C     C_R   0.039870 0.449217 0.364918 -0.032162
C23   C     C_R   0.914408 0.455037 0.369460 -0.193227
C24   C     C_R   0.870153 0.482377 0.501122 -0.090768
C25   C     C_2   0.486612 0.116741 0.414283 -0.354810
C26   C     C_2   0.506494 0.068632 0.522664 0.011887
C27   C     C_2   0.512218 0.879815 0.591424 -0.307780
Cu1   Cu    Cu3+1 0.521920 0.521810 0.644910 0.996060
Cu2   Cu    Cu3+1 0.478080 0.478190 0.355090 0.999577
H1    H     H_    0.464925 0.051618 0.300641 0.164154
H2    H     H_    0.450966 0.397091 0.845074 0.183426
H3    H     H_    0.850427 0.437853 0.268170 0.183736
H4    H     H_    0.480846 0.867035 0.370530 0.196878
H5    H     H_    0.528239 0.939290 0.707057 0.166303
I1    I     I_    0.936898 0.660225 0.097735 -0.313470
I2    I     I_    0.815248 0.351965 0.775848 -0.285939
N1    N     N_2   0.445130 0.445430 0.137370 -0.266003
N2    N     N_2   0.554930 0.554500 0.862630 -0.242048
N3    N     N_1   0.100587 0.376015 0.105708 -0.248508
N4    N     N_1   0.681558 0.682215 0.265794 -0.256398
N5    N     N_1   0.623659 0.789142 0.015212 -0.296313
N6    N     N_1   0.331437 0.229327 0.974974 -0.272324
N7    N     N_1   0.254665 0.271021 0.709827 -0.276834
N8    N     N_1   0.287612 0.650799 0.129335 -0.268363
N9    N     N_1   0.565007 0.204232 0.802155 -0.284571
O1    O     O_R   0.511700 0.332330 0.577400 -0.572084
O2    O     O_R   0.474680 0.295500 0.332650 -0.585797
O3    O     O_R   0.338160 0.518420 0.622400 -0.591199
O4    O     O_R   0.301140 0.481590 0.377650 -0.572749
O5    O     O_R   0.525320 0.704500 0.667350 -0.590530
O6    O     O_R   0.488300 0.667670 0.422600 -0.573688
O7    O     O_R   0.698860 0.518410 0.622350 -0.565986
O8    O     O_R   0.661840 0.481580 0.377600 -0.596148

loop_
_geom_bond_atom_site_label_1
_geom_bond_atom_site_label_2
_ccdc_geom_bond_type
C23   C24   A    
C2    C27   D    
C6    O6    A    
C11   C13   A    
C9    C10   A    
C6    C27   S    
Cu1   N2    S    
C4    O4    A    
C8    C12   A    
C23   H3    S    
C14   C22   S    
C25   C26   D    
C2    C26   S    
C17   N1    S    
C18   N7    T    
C6    O5    A    
C1    C25   S    
C4    C21   S    
Cu1   O7    S    
Cu1   O1    S    
C10   I1    S    
C20   C26   S    
Cu2   O2    S    
C16   N5    T    
C2    H4    S    
Cu1   Cu2   S    
C7    O7    A    
C5    N2    D    
C27   H5    S    
C4    O3    A    
C15   N4    T    
C8    C18   S    
C1    O1    A    
C5    H2    S    
C10   C11   A    
C7    O8    A    
C7    C24   S    
C3    C5    S    
C17   N6    T    
C3    C15   S    
C19   N8    T    
C3    N1    D    
Cu2   O6    S    
Cu2   N1    S    
C25   H1    S    
C22   C23   A    
Cu1   O3    S    
Cu2   O4    S    
C12   C13   A    
C14   N3    T    
C21   C22   A    
Cu1   O5    S    
C12   C21   A    
C9    C19   S    
C1    O2    A    
C20   N9    T    
C13   C24   A    
C16   N2    S    
C8    C9    A    
Cu2   O8    S    
C11   I2    S    
