data_mof_unit_51085.cif
_audit_creation_date              2012-12-10T19:25:08-0500
_audit_creation_method            fapswitch 2.2
_symmetry_space_group_name_H-M    P1
_symmetry_Int_Tables_number       1
_space_group_crystal_system       triclinic
_cell_length_a                    13.589536
_cell_length_b                    16.565124
_cell_length_c                    17.721268
_cell_angle_alpha                 89.766346
_cell_angle_beta                  92.007862
_cell_angle_gamma                 73.396462
_cell_volume                      3820.18246454

loop_
_atom_site_label
_atom_site_type_symbol
_atom_type_description
_atom_site_fract_x
_atom_site_fract_y
_atom_site_fract_z
_atom_type_partial_charge
C1    C     C_R   0.500318 0.499806 0.644645 0.785878
C2    C     C_R   0.979722 0.466430 0.518421 0.066492
C3    C     C_R   0.871908 0.489896 0.526165 0.029307
C4    C     C_R   0.032474 0.529712 0.519968 0.049635
C5    C     C_R   0.979349 0.615067 0.535543 0.092565
C6    C     C_R   0.871691 0.637381 0.535184 0.032053
C7    C     C_R   0.823519 0.574607 0.544195 -0.213150
C8    C     C_R   0.136253 0.510843 0.502692 -0.246797
C9    C     C_R   0.141729 0.649479 0.538887 -0.211891
C10   C     C_R   0.816165 0.429011 0.513050 -0.181045
C11   C     C_R   0.504071 0.426627 0.153926 -0.162258
C12   C     C_R   0.700798 0.455333 0.504591 0.800349
C13   C     C_R   0.503989 0.426392 0.232565 -0.195199
C14   C     C_R   0.500370 0.500362 0.272381 -0.036356
C15   C     C_R   0.497293 0.574411 0.232116 -0.202252
C16   C     C_R   0.497372 0.574455 0.153439 -0.156004
C17   C     C_R   0.500697 0.500606 0.114455 0.151418
C18   C     C_1   0.500806 0.500594 0.033845 -0.069008
C19   C     C_1   0.500885 0.500368 0.966175 -0.068889
C20   C     C_R   0.499925 0.427035 0.846737 -0.160519
C21   C     C_R   0.499789 0.426762 0.768050 -0.197278
C22   C     C_R   0.500611 0.499752 0.727633 -0.033295
C23   C     C_R   0.500047 0.500154 0.355361 0.797863
C24   C     C_R   0.501737 0.572870 0.767291 -0.200719
C25   C     C_R   0.501884 0.572931 0.845940 -0.160624
C26   C     C_R   0.500928 0.500087 0.885564 0.152027
C27   C     C_R   0.420665 0.193536 0.450823 -0.022979
C28   C     C_R   0.431109 0.277206 0.451866 0.331660
C29   C     C_R   0.563240 0.239472 0.546823 0.004489
C30   C     C_R   0.559752 0.155338 0.546111 -0.314783
C31   C     C_R   0.488956 0.130056 0.498668 0.119381
C32   C     C_1   0.491717 0.039793 0.501437 -0.058519
C33   C     C_1   0.495551 0.964565 0.503867 -0.070628
C34   C     C_R   0.300879 0.544446 0.501655 0.821646
C35   C     C_R   0.460843 0.839583 0.440880 0.043355
C36   C     C_R   0.448192 0.757902 0.444554 0.285700
C37   C     C_R   0.543978 0.731465 0.560288 -0.052293
C38   C     C_R   0.538839 0.818545 0.566521 -0.002477
C39   C     C_R   0.499340 0.873862 0.504226 0.048486
C40   C     C_R   0.036718 0.673497 0.551799 0.094119
C41   C     C_R   0.190346 0.569943 0.511687 -0.090766
C42   C     C_R   0.873262 0.342737 0.503918 0.121432
C43   C     C_R   0.981001 0.318761 0.507593 0.151982
C44   C     C_R   0.032692 0.380034 0.513740 -0.278148
Cu1   Cu    Cu3+1 0.500000 0.419580 0.500020 0.948295
Cu2   Cu    Cu3+1 0.500000 0.580420 0.499980 0.913099
H1    H     H_    0.186878 0.691823 0.553449 0.155173
H2    H     H_    0.507095 0.368304 0.262044 0.146606
H3    H     H_    0.494906 0.632202 0.261276 0.145564
H4    H     H_    0.494896 0.631945 0.123053 0.129227
H5    H     H_    0.499207 0.370401 0.877261 0.128842
H6    H     H_    0.498978 0.369561 0.738976 0.150460
H7    H     H_    0.502504 0.629994 0.737662 0.142373
H8    H     H_    0.502703 0.629699 0.875815 0.127672
H9    H     H_    0.617014 0.257229 0.585061 0.121591
H10   H     H_    0.612480 0.109825 0.583442 0.143864
H11   H     H_    0.578778 0.688603 0.606260 0.131694
H12   H     H_    0.176560 0.450633 0.480529 0.149534
H13   H     H_    0.115407 0.357787 0.517780 0.134215
H14   H     H_    0.746796 0.596349 0.563661 0.178611
H15   H     H_    0.506858 0.369182 0.123935 0.128152
N1    N     N_R   0.500030 0.298780 0.500030 -0.168371
N2    N     N_R   0.500020 0.701210 0.500010 -0.212387
O1    O     O_R   0.500010 0.432060 0.608760 -0.584910
O2    O     O_R   0.500000 0.567880 0.608730 -0.593865
O3    O     O_R   0.650990 0.398950 0.500000 -0.588814
O4    O     O_R   0.650980 0.534770 0.499970 -0.589737
O5    O     O_R   0.500000 0.432120 0.391270 -0.552531
O6    O     O_R   0.499990 0.567940 0.391240 -0.610281
O7    O     O_R   0.349020 0.465230 0.500030 -0.557175
O8    O     O_R   0.349010 0.601050 0.500000 -0.599983
C45   C     C_3   0.333154 0.182184 0.398979 -0.442586
C46   C     C_3   0.318107 0.095502 0.391214 -0.347887
C47   C     C_3   0.226311 0.097973 0.337764 -0.868872
H16   H     H_    0.155004 0.141778 0.358966 0.252008
H17   H     H_    0.239567 0.118811 0.280302 0.257041
H18   H     H_    0.214970 0.034380 0.333848 0.241311
H19   H     H_    0.388654 0.055016 0.366542 0.230555
H20   H     H_    0.303529 0.071454 0.447048 0.231288
H21   H     H_    0.260158 0.224832 0.418592 0.190690
H22   H     H_    0.344728 0.202669 0.340996 0.199511
N3    N     N_3   0.369396 0.341120 0.401351 -0.529589
H23   H     H_    0.385763 0.323469 0.345623 0.181607
H24   H     H_    0.291571 0.349621 0.409998 0.179584
C48   C     C_3   0.804981 0.721879 0.505494 -0.440541
C49   C     C_3   0.754596 0.712954 0.427989 -0.303160
C50   C     C_3   0.718213 0.797202 0.385425 -0.866186
H25   H     H_    0.672011 0.846840 0.421957 0.263384
H26   H     H_    0.785410 0.816703 0.366962 0.248500
H27   H     H_    0.670680 0.790963 0.334743 0.248306
H28   H     H_    0.810561 0.668045 0.392652 0.225469
H29   H     H_    0.688203 0.687641 0.435577 0.240809
H30   H     H_    0.745345 0.748000 0.546549 0.200965
H31   H     H_    0.849565 0.766928 0.497444 0.227560
N4    N     N_3   0.429258 0.887533 0.372582 -0.625464
H32   H     H_    0.361738 0.933772 0.383086 0.224799
H33   H     H_    0.486648 0.914445 0.357349 0.225827
C51   C     C_3   0.364955 0.741461 0.392029 -0.343732
C52   C     C_3   0.257258 0.794218 0.414026 -0.382361
C53   C     C_3   0.173071 0.770781 0.367416 -0.853823
H34   H     H_    0.182021 0.780613 0.306293 0.256840
H35   H     H_    0.176453 0.703877 0.377960 0.258549
H36   H     H_    0.096658 0.811141 0.383468 0.238831
H37   H     H_    0.247000 0.783568 0.474768 0.215089
H38   H     H_    0.247381 0.862368 0.405384 0.223797
H39   H     H_    0.378636 0.755580 0.332597 0.186879
H40   H     H_    0.362501 0.676593 0.393072 0.248131
C54   C     C_3   0.568615 0.850196 0.641828 -0.397431
C55   C     C_3   0.651613 0.896821 0.637283 -0.326808
C56   C     C_3   0.723697 0.879837 0.707281 -0.882230
H41   H     H_    0.679003 0.896742 0.759084 0.258411
H42   H     H_    0.768392 0.812251 0.710504 0.251714
H43   H     H_    0.778150 0.918429 0.704442 0.245160
H44   H     H_    0.697690 0.879139 0.586436 0.215247
H45   H     H_    0.613861 0.965699 0.633287 0.218140
H46   H     H_    0.498550 0.893492 0.665401 0.187433
H47   H     H_    0.594749 0.796416 0.682614 0.191023
C57   C     C_3   0.995776 0.754707 0.595067 -0.428875
C58   C     C_3   0.002887 0.832325 0.549715 -0.346429
C59   C     C_3   0.941114 0.914254 0.584751 -0.861950
H48   H     H_    0.858009 0.919047 0.580979 0.254679
H49   H     H_    0.965997 0.917197 0.644802 0.255695
H50   H     H_    0.953220 0.968634 0.553490 0.247069
H51   H     H_    0.084335 0.832874 0.548368 0.213958
H52   H     H_    0.974634 0.830338 0.490401 0.216619
H53   H     H_    0.916653 0.762787 0.613852 0.205864
H54   H     H_    0.042992 0.750266 0.648302 0.194651
N5    N     N_3   0.824731 0.277548 0.489810 -0.610626
H55   H     H_    0.780185 0.290757 0.439558 0.242569
H56   H     H_    0.780806 0.271898 0.535672 0.228545
C60   C     C_3   0.042704 0.227009 0.501868 -0.378633
C61   C     C_3   0.040883 0.177775 0.575032 -0.320329
C62   C     C_3   0.107138 0.086566 0.569713 -0.866871
H57   H     H_    0.080033 0.055175 0.521265 0.255551
H58   H     H_    0.188742 0.084253 0.562377 0.253720
H59   H     H_    0.102108 0.051668 0.622391 0.243104
H60   H     H_    0.070647 0.208013 0.623139 0.214851
H61   H     H_    0.961020 0.177970 0.586564 0.230721
H62   H     H_    0.012264 0.197778 0.453416 0.210510
H63   H     H_    0.123937 0.221902 0.490346 0.180936

loop_
_geom_bond_atom_site_label_1
_geom_bond_atom_site_label_2
_ccdc_geom_bond_type
C23   O5    A    
C40   C57   S    
C50   H25   S    
C10   C42   A    
C46   C47   S    
C23   O6    A    
C2    C4    A    
N4    H32   S    
C4    C8    A    
N5    H55   S    
C58   H51   S    
C29   C30   A    
C6    C48   S    
C47   H17   S    
C16   H4    S    
C20   H5    S    
C3    C7    A    
C49   H28   S    
C30   C31   A    
C44   H13   S    
C61   H61   S    
C15   C16   A    
Cu1   N1    S    
C54   C55   S    
C18   C19   T    
C19   C26   S    
C56   H41   S    
Cu2   O6    S    
C60   H63   S    
C8    H12   S    
C57   C58   S    
C48   H30   S    
C35   C36   A    
C2    C44   A    
C61   C62   S    
C47   H18   S    
C62   H59   S    
C1    O2    A    
C46   H19   S    
C36   N2    A    
C34   O7    A    
C45   H22   S    
C59   H50   S    
C42   N5    S    
C15   H3    S    
C52   H37   S    
C1    C22   S    
C13   C14   A    
C34   C41   S    
C37   N2    A    
C59   H49   S    
C38   C39   A    
C52   H38   S    
C12   O4    A    
C47   H16   S    
C27   C31   A    
C24   C25   A    
Cu2   O2    S    
C49   C50   S    
C16   C17   A    
C29   H9    S    
C25   C26   A    
C48   C49   S    
C12   O3    A    
N3    H23   S    
C9    C40   A    
C51   H40   S    
C14   C23   S    
C35   C39   A    
C43   C44   A    
C37   C38   A    
C48   H31   S    
C52   C53   S    
C28   N3    S    
Cu1   O5    S    
C53   H35   S    
C17   C18   S    
C46   H20   S    
C33   C39   S    
C8    C41   A    
C56   H43   S    
Cu2   O8    S    
C10   C12   S    
C25   H8    S    
C55   H44   S    
C9    H1    S    
N3    H24   S    
C50   H26   S    
C62   H57   S    
C22   C24   A    
C5    C40   A    
C42   C43   A    
C60   C61   S    
C1    O1    A    
C58   H52   S    
C7    H14   S    
Cu1   O3    S    
C59   H48   S    
C29   N1    A    
C11   C17   A    
Cu1   O7    S    
C54   H47   S    
C31   C32   S    
C45   C46   S    
C11   H15   S    
N5    H56   S    
C13   H2    S    
C58   C59   S    
N4    H33   S    
C30   H10   S    
C6    C7    A    
C35   N4    S    
C57   H53   S    
Cu1   O1    S    
C9    C41   A    
C51   H39   S    
Cu2   N2    S    
C32   C33   T    
C54   H46   S    
C43   C60   S    
C2    C3    A    
C24   H7    S    
Cu2   O4    S    
C45   H21   S    
C3    C10   A    
C49   H29   S    
C55   C56   S    
C11   C13   A    
C5    C6    A    
C20   C26   A    
C53   H34   S    
C53   H36   S    
C38   C54   S    
C56   H42   S    
C60   H62   S    
C55   H45   S    
Cu1   Cu2   S    
C4    C5    A    
C20   C21   A    
C51   C52   S    
C57   H54   S    
C50   H27   S    
C27   C28   A    
C62   H58   S    
C14   C15   A    
C36   C51   S    
C61   H60   S    
C21   C22   A    
C34   O8    A    
C21   H6    S    
C37   H11   S    
C27   C45   S    
C28   N1    A    
