data_mof_unit_27619.cif
_audit_creation_date              2013-03-05T15:49:17-0500
_audit_creation_method            fapswitch 2.2
_symmetry_space_group_name_H-M    P1
_symmetry_Int_Tables_number       1
_space_group_crystal_system       triclinic
_cell_length_a                    20.656949
_cell_length_b                    22.778403
_cell_length_c                    6.935284
_cell_angle_alpha                 90.004973
_cell_angle_beta                  85.591759
_cell_angle_gamma                 90.00329
_cell_volume                      3253.62145467

loop_
_atom_site_label
_atom_site_type_symbol
_atom_site_description
_atom_site_fract_x
_atom_site_fract_y
_atom_site_fract_z
_atom_type_partial_charge
O1    O     O_R   0.387100 0.552640 0.378490 -0.576538
O2    O     O_R   0.612900 0.052640 0.621510 -0.576536
O3    O     O_R   0.249610 0.559600 0.072250 -0.616229
O4    O     O_R   0.750390 0.059600 0.927750 -0.616229
O5    O     O_R   0.249120 0.447360 0.902040 -0.599240
O6    O     O_R   0.750880 0.947360 0.097960 -0.599277
C1    C     C_R   0.227310 0.573859 0.246152 0.927362
C2    C     C_R   0.772687 0.073862 0.753856 0.927328
O7    O     O_R   0.386610 0.559560 0.048860 -0.583693
O8    O     O_R   0.613390 0.059560 0.951140 -0.583731
O9    O     O_R   0.387100 0.447320 0.878470 -0.539867
O10   O     O_R   0.612900 0.947320 0.121530 -0.539315
C3    C     C_R   0.408259 0.574513 0.212250 1.046757
C4    C     C_R   0.591738 0.074503 0.787770 1.046863
O11   O     O_R   0.249120 0.552680 0.402050 -0.575453
O12   O     O_R   0.750880 0.052680 0.597950 -0.575438
O13   O     O_3   0.318110 0.463180 0.223790 -0.230238
O14   O     O_3   0.681890 0.963180 0.776210 -0.230008
V1    V     V_3+5 0.318110 0.506830 0.948930 1.287120
V2    V     V_3+5 0.681890 0.006830 0.051070 1.287138
O15   O     O_R   0.386610 0.440400 0.548840 -0.570362
O16   O     O_R   0.613390 0.940400 0.451160 -0.570367
C5    C     C_R   0.406768 0.423817 0.713113 1.189268
C6    C     C_R   0.593232 0.923811 0.286863 1.188637
O17   O     O_R   0.249610 0.440440 0.572240 -0.581790
O18   O     O_R   0.750390 0.940440 0.427760 -0.581710
C7    C     C_R   0.228312 0.425341 0.745354 1.000341
C8    C     C_R   0.771688 0.925342 0.254631 0.999196
V3    V     V_3+5 0.318110 0.493170 0.448930 1.315122
V4    V     V_3+5 0.681890 0.993170 0.551070 1.315169
O19   O     O_3   0.318110 0.536820 0.723940 -0.282369
O20   O     O_3   0.681890 0.036820 0.276060 -0.282325
C9    C     C_R   0.174818 0.382112 0.764510 -0.295976
C10   C     C_R   0.825179 0.882112 0.235443 -0.296736
C11   C     C_R   0.162617 0.341982 0.614235 0.301358
C12   C     C_R   0.837335 0.841956 0.385646 0.301722
C13   C     C_R   0.107755 0.305581 0.636759 -0.266998
C14   C     C_R   0.892192 0.805554 0.363179 -0.267084
C15   C     C_R   0.065679 0.307431 0.805642 0.163524
C16   C     C_R   0.934298 0.807413 0.194358 0.163498
C17   C     C_R   0.079441 0.345440 0.955154 -0.114303
C18   C     C_R   0.920568 0.845437 0.044869 -0.114645
C19   C     C_R   0.132976 0.382673 0.934293 -0.100087
C20   C     C_R   0.867043 0.882680 0.065709 -0.100229
C21   C     C_R   0.886236 0.195573 0.882034 -0.118491
C22   C     C_R   0.113725 0.695532 0.117996 -0.118555
C23   C     C_R   0.837622 0.153009 0.895123 -0.174586
C24   C     C_R   0.162356 0.652987 0.104909 -0.174573
C25   C     C_R   0.861993 0.128247 0.556500 0.584830
C26   C     C_R   0.137980 0.628220 0.443509 0.584861
C27   C     C_R   0.909497 0.172251 0.543732 -0.300580
C28   C     C_R   0.090456 0.672205 0.456277 -0.300723
C29   C     C_R   0.923177 0.205102 0.706288 0.159703
C30   C     C_R   0.076771 0.705051 0.293731 0.159627
C31   C     C_2   0.008972 0.267858 0.833617 -0.203013
C32   C     C_2   0.990999 0.767833 0.166397 -0.203061
C33   C     C_2   0.976569 0.248522 0.685088 -0.182574
C34   C     C_2   0.023365 0.748459 0.314942 -0.182433
C35   C     C_R   0.824792 0.118668 0.733729 -0.295047
C36   C     C_R   0.175193 0.618652 0.266292 -0.295114
H1    H     H_    0.809741 0.147288 0.032577 0.211515
H2    H     H_    0.190246 0.647274 0.967461 0.211566
H3    H     H_    0.991461 0.263119 0.539326 0.133122
H4    H     H_    0.008442 0.763025 0.460722 0.133086
H5    H     H_    0.048097 0.346923 0.087730 0.115216
H6    H     H_    0.951930 0.846925 0.912331 0.115224
H7    H     H_    0.893697 0.221349 0.009323 0.132110
H8    H     H_    0.106264 0.721302 0.990712 0.132114
H9    H     H_    0.141009 0.412768 0.051046 0.150452
H10   H     H_    0.859033 0.912785 0.948985 0.150507
H11   H     H_    0.994331 0.254426 0.980532 0.128166
H12   H     H_    0.005673 0.754433 0.019465 0.128111
H13   H     H_    0.099832 0.273792 0.525055 0.160048
H14   H     H_    0.900079 0.773751 0.474854 0.159903
H15   H     H_    0.936997 0.179574 0.406308 0.130675
H16   H     H_    0.062948 0.679519 0.593696 0.130689
C37   C     C_R   0.570974 0.354269 0.580199 0.467764
C38   C     C_R   0.429066 0.854254 0.420480 0.467854
C39   C     C_R   0.461210 0.380411 0.703084 -0.501289
C40   C     C_R   0.538752 0.880429 0.296855 -0.500502
C41   C     C_R   0.474587 0.095187 0.881840 0.387888
C42   C     C_R   0.525422 0.595207 0.118291 0.388073
C43   C     C_R   0.420981 0.132520 0.883484 -0.409673
C44   C     C_R   0.579012 0.632579 0.116356 -0.409304
C45   C     C_R   0.424807 0.190236 0.806541 0.575796
C46   C     C_R   0.575171 0.690366 0.192764 0.575097
C47   C     C_R   0.487483 0.214660 0.757180 0.064000
C48   C     C_R   0.512486 0.714714 0.242630 0.064622
C49   C     C_R   0.541193 0.174700 0.734434 -0.039582
C50   C     C_R   0.458810 0.674718 0.265666 -0.039438
C51   C     C_R   0.498442 0.276715 0.718145 -0.055619
C52   C     C_R   0.501500 0.776752 0.281792 -0.055348
C53   C     C_R   0.558737 0.294012 0.619924 -0.249840
C54   C     C_R   0.441278 0.794008 0.380510 -0.249533
C55   C     C_R   0.607415 0.251235 0.572949 0.418841
C56   C     C_R   0.392642 0.751206 0.427659 0.418972
C57   C     C_R   0.599916 0.194315 0.642947 -0.257779
C58   C     C_R   0.400121 0.694298 0.357486 -0.257853
C59   C     C_R   0.453345 0.322537 0.780709 0.342233
C60   C     C_R   0.546498 0.822592 0.218784 0.342023
C61   C     C_R   0.520935 0.396167 0.603518 0.210784
C62   C     C_R   0.479098 0.896161 0.396915 0.210873
C63   C     C_R   0.534965 0.115050 0.796778 -0.328784
C64   C     C_R   0.465038 0.615069 0.203289 -0.328783
H17   H     H_    0.375224 0.114283 0.939839 0.167162
H18   H     H_    0.624760 0.614318 0.060071 0.167109
H19   H     H_    0.639940 0.164219 0.612772 0.145890
H20   H     H_    0.360127 0.664179 0.387836 0.146009
N1    N     N_R   0.206296 0.335108 0.443157 0.234283
O21   O     O_R   0.183862 0.318129 0.282062 -0.420821
O22   O     O_R   0.268859 0.334487 0.455436 -0.357127
N2    N     N_R   0.793585 0.835038 0.556532 0.234400
O23   O     O_R   0.815963 0.818145 0.717792 -0.421133
O24   O     O_R   0.731041 0.834280 0.543891 -0.357298
N3    N     N_R   0.533367 0.455545 0.535394 0.264452
O25   O     O_R   0.576760 0.465568 0.393126 -0.297952
O26   O     O_R   0.505124 0.500389 0.622254 -0.371548
N4    N     N_R   0.466716 0.955531 0.465212 0.264333
O27   O     O_R   0.423386 0.965542 0.607657 -0.298192
O28   O     O_R   0.494898 0.000383 0.378240 -0.371560
N5    N     N_R   0.664204 0.263800 0.446845 0.253250
O29   O     O_R   0.657686 0.283856 0.273671 -0.347557
O30   O     O_R   0.720790 0.244802 0.489495 -0.418974
N6    N     N_R   0.335920 0.763729 0.554093 0.253231
O31   O     O_R   0.342544 0.783741 0.727276 -0.347364
O32   O     O_R   0.279306 0.744729 0.511698 -0.419006
O33   O     O_3   0.633012 0.373314 0.521904 -0.560771
C65   C     C_3   0.665533 0.386762 0.688283 0.308595
H21   H     H_    0.669239 0.347316 0.781881 0.109400
H22   H     H_    0.640046 0.422426 0.773720 0.154686
C66   C     C_3   0.733903 0.407623 0.626462 -0.747246
H23   H     H_    0.731855 0.447507 0.534999 0.257600
H24   H     H_    0.759988 0.418336 0.756138 0.199802
H25   H     H_    0.760938 0.372627 0.542851 0.268163
O34   O     O_3   0.367064 0.873276 0.479302 -0.560721
C67   C     C_3   0.334409 0.886806 0.313254 0.308605
H26   H     H_    0.330649 0.847411 0.219434 0.109364
H27   H     H_    0.359823 0.922526 0.227904 0.154559
C68   C     C_3   0.266065 0.907612 0.375652 -0.747747
H28   H     H_    0.268165 0.947446 0.467352 0.257577
H29   H     H_    0.239875 0.918389 0.246242 0.199712
H30   H     H_    0.239101 0.872562 0.459193 0.268256
N7    N     N_R   0.407450 0.313349 0.945059 0.262800
O35   O     O_R   0.425810 0.286851 0.097926 -0.368410
O36   O     O_R   0.348761 0.334207 0.948698 -0.375475
N8    N     N_R   0.591996 0.813474 0.053416 0.262588
O37   O     O_R   0.573292 0.786820 0.901250 -0.368969
O38   O     O_R   0.650579 0.834641 0.047960 -0.375623
N9    N     N_R   0.465011 0.036436 0.959206 0.267699
O39   O     O_R   0.414003 0.024614 0.074718 -0.371977
O40   O     O_R   0.502810 0.993114 0.902220 -0.356465
N10   N     N_R   0.535019 0.536414 0.041261 0.267656
O41   O     O_R   0.586027 0.524552 0.925795 -0.371984
O42   O     O_R   0.497240 0.493104 0.098516 -0.356725
O43   O     O_3   0.369926 0.221749 0.758005 -0.603099
C69   C     C_3   0.309888 0.194467 0.815853 0.289592
H31   H     H_    0.303785 0.190611 0.976290 0.131428
H32   H     H_    0.306172 0.150827 0.745178 0.091270
C70   C     C_3   0.254013 0.230886 0.752062 -0.706311
H33   H     H_    0.255588 0.231224 0.591874 0.265784
H34   H     H_    0.207163 0.211235 0.808873 0.180110
H35   H     H_    0.256799 0.276267 0.808243 0.290110
O44   O     O_3   0.630073 0.721991 0.240628 -0.603730
C71   C     C_3   0.690118 0.695229 0.179485 0.290710
H36   H     H_    0.695373 0.691584 0.018912 0.132209
H37   H     H_    0.694632 0.651548 0.249247 0.090585
C72   C     C_3   0.746101 0.731939 0.241167 -0.705564
H38   H     H_    0.745693 0.731676 0.401156 0.263701
H39   H     H_    0.792839 0.712932 0.180542 0.181184
H40   H     H_    0.742410 0.777509 0.187435 0.290615
O45   O     O_3   0.851081 0.096550 0.392171 -0.617973
C73   C     C_3   0.896741 0.050300 0.370477 0.263027
H41   H     H_    0.878469 0.011905 0.457578 0.091549
H42   H     H_    0.945736 0.062476 0.415526 0.073849
C74   C     C_3   0.905221 0.032503 0.158734 -0.930143
H43   H     H_    0.926617 0.069408 0.070746 0.255413
H44   H     H_    0.938205 0.994066 0.141432 0.212763
H45   H     H_    0.857615 0.020806 0.105699 0.260080
O46   O     O_3   0.148898 0.596531 0.607830 -0.617954
C75   C     C_3   0.103251 0.550266 0.629504 0.263042
H46   H     H_    0.121537 0.511874 0.542399 0.091478
H47   H     H_    0.054254 0.562423 0.584445 0.073893
C76   C     C_3   0.094771 0.532475 0.841243 -0.930303
H48   H     H_    0.073361 0.569377 0.929233 0.255471
H49   H     H_    0.061797 0.494028 0.858529 0.212759
H50   H     H_    0.142379 0.520795 0.894287 0.260025

loop_
_geom_bond_atom_site_label_1
_geom_bond_atom_site_label_2
_geom_bond_distance
_ccdc_geom_bond_type
V4    O20   2.150954 S    
O45   C73   1.414369 S    
C47   C51   1.453684 A    
C38   C62   1.407124 A    
O13   V3    1.704252 S    
C48   C50   1.434429 A    
C37   C61   1.407049 A    
O44   C71   1.417395 S    
O4    C2    1.298763 A    
C66   H25   1.110753 S    
V1    O19   1.703407 S    
C65   H21   1.114584 S    
C25   C27   1.400717 A    
N2    O24   1.301773 A    
O34   C67   1.412674 S    
C72   H39   1.110835 S    
C66   H24   1.110473 S    
C7    C9    1.478396 S    
O9    V1    2.000080 S    
C75   C76   1.520482 S    
C39   C59   1.428541 A    
C69   H31   1.113602 S    
C11   C13   1.403175 A    
C44   C46   1.418866 A    
O3    C1    1.298775 A    
N9    O40   1.300862 A    
C2    C35   1.482022 S    
V2    O20   1.703299 S    
C68   H30   1.110751 S    
C46   C48   1.426564 A    
C19   H9    1.083348 S    
O12   V4    2.011247 S    
N7    O35   1.301575 A    
C58   H20   1.082000 S    
O7    V1    2.018809 S    
C45   O43   1.404479 S    
C21   C23   1.393757 A    
C37   C53   1.418803 A    
O7    C3    1.295318 A    
N4    O27   1.301216 A    
N1    O22   1.301771 A    
C9    C11   1.423182 A    
O5    C7    1.299554 A    
C69   H32   1.113548 S    
C6    C40   1.495198 S    
C15   C31   1.478952 S    
C48   C52   1.453527 A    
C75   H47   1.116870 S    
C73   H42   1.116870 S    
C16   C32   1.479016 S    
C56   C58   1.389033 A    
C12   N2    1.442741 S    
C26   C28   1.400754 A    
C70   H34   1.110650 S    
O3    V1    1.998128 S    
O14   V4    1.704359 S    
C72   H40   1.107522 S    
C38   O34   1.383559 S    
C10   C12   1.423119 A    
C62   N4    1.449125 S    
C73   C74   1.520480 S    
C24   C36   1.407294 A    
C55   N5    1.437081 S    
C16   C18   1.396721 A    
C8    C10   1.478437 S    
C2    O12   1.295993 A    
C49   C63   1.428704 A    
C34   H4    1.085969 S    
C17   C19   1.392295 A    
O10   V2    2.000025 S    
C5    C39   1.495088 S    
C18   C20   1.392333 A    
C67   C68   1.520245 S    
O1    V3    1.999381 S    
N2    O23   1.300796 A    
C41   C43   1.395568 A    
C28   C30   1.399877 A    
O11   V3    2.011397 S    
C74   H45   1.108560 S    
N8    O38   1.300501 A    
C44   H18   1.077844 S    
C45   C47   1.426450 A    
O15   C5    1.298862 A    
O17   V3    1.997545 S    
C22   C24   1.393781 A    
C23   C35   1.407286 A    
C56   N6    1.437070 S    
C9    C19   1.406153 A    
C10   C20   1.406138 A    
C74   H44   1.110260 S    
O8    C4    1.295231 A    
C76   H50   1.108563 S    
O8    V2    2.018979 S    
C72   H38   1.108969 S    
C25   O45   1.382129 S    
C29   C33   1.480279 S    
C17   H5    1.083619 S    
C1    O11   1.296029 A    
C14   H14   1.081976 S    
N3    O26   1.300984 A    
O15   V3    2.019466 S    
C43   H17   1.077920 S    
C49   C57   1.398346 A    
C27   C29   1.399852 A    
C57   H19   1.082010 S    
C31   H11   1.084398 S    
C76   H48   1.110404 S    
C22   H8    1.081015 S    
C51   C53   1.428336 A    
C76   H49   1.110258 S    
C24   H2    1.083081 S    
C70   H33   1.108953 S    
N3    O25   1.301226 A    
C22   C30   1.404316 A    
C52   C54   1.428224 A    
C70   H35   1.107720 S    
C3    C64   1.490511 S    
C54   C56   1.419961 A    
C50   C64   1.428677 A    
N5    O29   1.301628 A    
N4    O28   1.300987 A    
C67   H27   1.113679 S    
C43   C45   1.418808 A    
N10   O42   1.300878 A    
O18   V4    1.997554 S    
C42   C44   1.395675 A    
C31   C33   1.344985 D    
C61   N3    1.449127 S    
O16   C6    1.298990 A    
O1    C3    1.300429 A    
O33   C65   1.412676 S    
C65   C66   1.520241 S    
C1    C36   1.482081 S    
C73   H41   1.112313 S    
C52   C60   1.443174 A    
N6    O32   1.301635 A    
N8    O37   1.301585 A    
C41   C63   1.412504 A    
C59   N7    1.440711 S    
N7    O36   1.300578 A    
C13   H13   1.081974 S    
C71   H36   1.113656 S    
O16   V4    2.019296 S    
C32   H12   1.084389 S    
C69   C70   1.514848 S    
C33   H3    1.085971 S    
C27   H15   1.084282 S    
C67   H26   1.114591 S    
C28   H16   1.084281 S    
C65   H22   1.113668 S    
C23   H1    1.083080 S    
C68   H28   1.110739 S    
C55   C57   1.388973 A    
C40   C62   1.413152 A    
C21   H7    1.081021 S    
O5    V1    2.010648 S    
O17   C7    1.293110 A    
O6    V2    2.010796 S    
O10   C6    1.301942 A    
O18   C8    1.293155 A    
C25   C35   1.415527 A    
O2    V4    1.999436 S    
C20   H10   1.083346 S    
C26   C36   1.415525 A    
C71   H37   1.113469 S    
C26   O46   1.382129 S    
V3    O19   2.150801 S    
C74   H43   1.110405 S    
N1    O21   1.300785 A    
C12   C14   1.403165 A    
C14   C16   1.404492 A    
C68   H29   1.110475 S    
C4    C63   1.490350 S    
C53   C55   1.419986 A    
C38   C54   1.418786 A    
C41   N9    1.449730 S    
O9    C5    1.301961 A    
O13   V1    2.150032 S    
C32   C34   1.345019 D    
C11   N1    1.442830 S    
O14   V2    2.149879 S    
C71   C72   1.515079 S    
O2    C4    1.300417 A    
C42   N10   1.449752 S    
N5    O30   1.301653 A    
C37   O33   1.383572 S    
C21   C29   1.404300 A    
O46   C75   1.414366 S    
O4    V2    1.998119 S    
O6    C8    1.299547 A    
C30   C34   1.480366 S    
N10   O41   1.301829 A    
C15   C17   1.396669 A    
C13   C15   1.404470 A    
C60   N8    1.440852 S    
O43   C69   1.417286 S    
C18   H6    1.083616 S    
C47   C49   1.434402 A    
C42   C64   1.412476 A    
C39   C61   1.413061 A    
C46   O44   1.404664 S    
C51   C59   1.443387 A    
N9    O39   1.301839 A    
C50   C58   1.398404 A    
C40   C60   1.428632 A    
C75   H46   1.112313 S    
C66   H23   1.110739 S    
N6    O31   1.301635 A    
