data_mof_unit_40495.cif
_audit_creation_date              2012-12-10T20:32:43-0500
_audit_creation_method            fapswitch 2.2
_symmetry_space_group_name_H-M    P1
_symmetry_Int_Tables_number       1
_space_group_crystal_system       triclinic
_cell_length_a                    11.531734
_cell_length_b                    10.699285
_cell_length_c                    9.891448
_cell_angle_alpha                 90.009891
_cell_angle_beta                  89.833699
_cell_angle_gamma                 90.140828
_cell_volume                      1220.4109544

loop_
_atom_site_label
_atom_site_type_symbol
_atom_type_description
_atom_site_fract_x
_atom_site_fract_y
_atom_site_fract_z
_atom_type_partial_charge
C1    C     C_R   0.500329 0.260038 0.499914 0.930278
C2    C     C_R   0.596635 0.466957 0.071459 -0.037628
C3    C     C_R   0.596102 0.465147 0.927748 -0.066824
C4    C     C_R   0.281995 0.499690 0.500068 0.991148
C5    C     C_R   0.407703 0.546538 0.929381 0.107620
C6    C     C_3   0.283673 0.505915 0.919725 0.079482
C7    C     C_3   0.285961 0.480613 0.071510 0.163740
C8    C     C_R   0.503996 0.739787 0.500092 0.883640
C9    C     C_R   0.718042 0.499785 0.499845 0.881443
C10   C     C_1   0.161552 0.498449 0.500036 -0.062472
C11   C     C_1   0.059372 0.497953 0.499890 0.054878
C12   C     C_R   0.511529 0.128169 0.499974 -0.024649
C13   C     C_1   0.940729 0.498215 0.499694 0.036358
C14   C     C_1   0.838521 0.498899 0.499603 -0.146480
C15   C     C_R   0.502726 0.063032 0.621303 -0.022437
C16   C     C_R   0.541510 0.064789 0.380725 -0.167359
C17   C     C_R   0.545074 0.935557 0.381161 -0.179241
C18   C     C_R   0.520414 0.871223 0.501385 -0.029394
C19   C     C_R   0.511902 0.936082 0.623038 0.022147
C20   C     C_3   0.427002 0.922306 0.736519 -0.431750
C21   C     C_3   0.412986 0.063433 0.731708 0.298894
C22   C     C_R   0.405230 0.536974 0.071169 0.074599
H1    H     H_    0.556188 0.113920 0.286435 0.176402
H2    H     H_    0.442726 0.111563 0.824853 0.121060
H3    H     H_    0.673905 0.438772 0.124919 0.147901
H4    H     H_    0.044732 0.513631 0.825746 0.357056
H5    H     H_    0.270794 0.422580 0.854740 0.196866
H6    H     H_    0.222491 0.534878 0.132414 0.152383
H7    H     H_    0.348915 0.868177 0.706685 0.283259
H8    H     H_    0.469293 0.889079 0.830705 0.178172
H9    H     H_    0.672677 0.434792 0.873790 0.154076
H10   H     H_    0.397819 0.158421 0.079862 0.378843
H11   H     H_    0.560316 0.886758 0.286820 0.171638
H12   H     H_    0.169766 0.085931 0.494634 0.397740
N1    N     N_R   0.499240 0.499140 0.142800 -0.085707
N2    N     N_R   0.499240 0.499180 0.857150 -0.115526
O1    O     O_R   0.500010 0.316790 0.614690 -0.613629
O2    O     O_2   0.181829 0.257922 0.030768 -0.237345
O3    O     O_3   0.405768 0.247395 0.053696 -0.585941
O4    O     O_2   0.182555 0.055928 0.775693 -0.195034
O5    O     O_2   0.260520 0.246717 0.673222 -0.327293
O6    O     O_3   0.244196 0.048095 0.522704 -0.530572
O7    O     O_2   0.206016 0.738730 0.978427 -0.248661
O8    O     O_2   0.210349 0.681485 0.739710 -0.297253
O9    O     O_3   0.050231 0.583454 0.891174 -0.500791
O10   O     O_R   0.500000 0.316760 0.385350 -0.584949
O11   O     O_R   0.334450 0.500030 0.614670 -0.579393
O12   O     O_R   0.334440 0.500000 0.385330 -0.602139
O13   O     O_R   0.500000 0.683240 0.614650 -0.607353
O14   O     O_R   0.499990 0.683210 0.385310 -0.629554
O15   O     O_R   0.665560 0.500000 0.614670 -0.624297
O16   O     O_R   0.665550 0.499970 0.385330 -0.629743
O17   O     O_2   0.265748 0.291862 0.254180 -0.269450
S1    S     S_3+6 0.282011 0.315122 0.105654 0.052858
S2    S     S_3+6 0.270256 0.107002 0.677398 0.064293
S3    S     S_3+6 0.188226 0.633413 0.879920 0.044621
Zn1   Zn    Zn3+2 0.500010 0.500020 0.653130 1.013691
Zn2   Zn    Zn3+2 0.499990 0.499980 0.346870 1.017775

loop_
_geom_bond_atom_site_label_1
_geom_bond_atom_site_label_2
_ccdc_geom_bond_type
C2    N1    A    
C15   C19   A    
C9    C14   S    
O12   Zn2   S    
C6    C7    S    
O15   Zn1   S    
O6    S2    S    
O11   Zn1   S    
C7    C22   S    
C6    H5    S    
O8    S3    D    
C19   C20   S    
O2    S1    D    
C12   C15   A    
C1    O1    A    
O4    S2    D    
C9    O15   A    
C2    C3    A    
C17   H11   S    
C20   H8    S    
C13   C14   T    
O10   Zn2   S    
C3    H9    S    
C22   N1    A    
C11   C13   S    
C9    O16   A    
C2    H3    S    
C1    C12   S    
O16   Zn2   S    
C3    N2    A    
N1    Zn2   S    
O5    S2    D    
C17   C18   A    
C16   H1    S    
C20   H7    S    
C5    C6    S    
O1    Zn1   S    
C1    O10   A    
H10   O3    S    
O3    S1    S    
C10   C11   T    
C5    C22   A    
C4    C10   S    
O14   Zn2   S    
C5    N2    A    
C8    O14   A    
O7    S3    D    
C15   C21   S    
O13   Zn1   S    
C20   C21   S    
N2    Zn1   S    
C4    O12   A    
C21   H2    S    
C21   S2    S    
C18   C19   A    
C7    S1    S    
O17   S1    D    
C8    O13   A    
C8    C18   S    
C7    H6    S    
C12   C16   A    
O9    S3    S    
C6    S3    S    
C16   C17   A    
H4    O9    S    
C4    O11   A    
H12   O6    S    
