data_mof_unit_17052.cif
_audit_creation_date              2013-03-05T16:08:14-0500
_audit_creation_method            fapswitch 2.2
_symmetry_space_group_name_H-M    P1
_symmetry_Int_Tables_number       1
_space_group_crystal_system       triclinic
_cell_length_a                    6.949604
_cell_length_b                    14.707028
_cell_length_c                    15.936731
_cell_angle_alpha                 89.992823
_cell_angle_beta                  90.295348
_cell_angle_gamma                 90.120377
_cell_volume                      1628.83648409

loop_
_atom_site_label
_atom_site_type_symbol
_atom_site_description
_atom_site_fract_x
_atom_site_fract_y
_atom_site_fract_z
_atom_type_partial_charge
O1    O     O_R   0.505720 0.583900 0.413310 -0.603443
O2    O     O_R   0.175940 0.594920 0.586080 -0.604085
O3    O     O_R   0.005640 0.416100 0.586690 -0.595087
C1    C     C_R   0.345512 0.616398 0.615261 0.926667
O4    O     O_R   0.176000 0.594930 0.413930 -0.564158
O5    O     O_R   0.005700 0.416110 0.413310 -0.589507
C2    C     C_R   0.344630 0.616485 0.384741 0.966248
O6    O     O_R   0.505660 0.583890 0.586690 -0.599853
O7    O     O_3   0.339200 0.441330 0.500000 -0.277645
V1    V     V_3+5 0.064350 0.510880 0.500000 1.176967
O8    O     O_R   0.675980 0.405080 0.413920 -0.595138
C3    C     C_R   0.844815 0.382996 0.385136 1.012480
O9    O     O_R   0.675920 0.405070 0.586070 -0.594493
C4    C     C_R   0.845032 0.384043 0.615324 0.930449
V2    V     V_3+5 0.564340 0.489120 0.500000 1.168567
O10   O     O_3   0.839360 0.558670 0.500000 -0.280534
H1    H     H_    0.099128 0.099117 0.505180 0.126358
C5    C     C_R   0.714125 0.423585 0.783766 -0.189886
C6    C     C_R   0.663741 0.447609 0.865290 -0.112458
C7    C     C_R   0.689585 0.386154 0.930594 -0.079842
C8    C     C_R   0.761584 0.299569 0.914440 -0.163805
C9    C     C_R   0.810567 0.272732 0.831878 0.109668
C10   C     C_R   0.792362 0.337236 0.765745 0.125267
C11   C     C_R   0.872266 0.182818 0.814357 -0.298631
C12   C     C_R   0.911297 0.157454 0.729497 0.070332
C13   C     C_R   0.924125 0.226611 0.666899 0.083371
C14   C     C_R   0.855907 0.315349 0.683848 -0.290803
C15   C     C_R   0.929257 0.065172 0.702644 0.274399
C16   C     C_R   0.005963 0.045839 0.623350 -0.124194
C17   C     C_R   0.043872 0.115114 0.566830 -0.183012
C18   C     C_R   0.995462 0.204003 0.586606 -0.165482
H2    H     H_    0.689771 0.472946 0.734863 0.114366
H3    H     H_    0.605063 0.514353 0.877843 0.126369
H4    H     H_    0.651676 0.405261 0.993990 0.150281
H5    H     H_    0.776707 0.253967 0.967320 0.101726
H6    H     H_    0.027192 0.976189 0.603289 0.116082
H7    H     H_    0.013240 0.254278 0.537767 0.119177
C19   C     C_R   0.727475 0.183467 0.241484 0.163347
C20   C     C_R   0.882213 0.182742 0.185395 -0.224515
C21   C     C_R   0.033419 0.244517 0.200752 -0.166557
H8    H     H_    0.155804 0.246617 0.159285 0.145084
C22   C     C_R   0.021931 0.308602 0.266295 -0.083511
H9    H     H_    0.136615 0.357820 0.273547 0.151931
C23   C     C_R   0.858478 0.313160 0.318248 -0.223283
C24   C     C_R   0.715659 0.247136 0.306116 0.139418
C25   C     C_3   0.504791 0.259135 0.293290 -0.462355
C26   C     C_3   0.517483 0.189433 0.223221 -0.451279
H10   H     H_    0.469017 0.328569 0.270609 0.209088
H11   H     H_    0.420110 0.235071 0.347985 0.185716
H12   H     H_    0.488253 0.218200 0.159922 0.199018
H13   H     H_    0.440834 0.124893 0.237543 0.180841
C27   C     C_R   0.503593 0.678641 0.746425 0.160060
C28   C     C_R   0.355035 0.681224 0.686386 -0.215327
C29   C     C_R   0.205101 0.743418 0.700169 -0.159982
H14   H     H_    0.085130 0.747075 0.656839 0.128757
C30   C     C_R   0.215032 0.806220 0.766564 -0.155421
H15   H     H_    0.103059 0.855768 0.771767 0.140346
C31   C     C_R   0.374099 0.809105 0.821623 -0.215732
C32   C     C_R   0.510798 0.739688 0.813370 0.169361
C33   C     C_3   0.724534 0.744240 0.812012 -0.472102
C34   C     C_3   0.717054 0.681851 0.736125 -0.470832
H16   H     H_    0.789745 0.711638 0.868288 0.196927
H17   H     H_    0.779166 0.812963 0.798322 0.207463
H18   H     H_    0.789485 0.616134 0.748005 0.189073
H19   H     H_    0.758577 0.716082 0.676738 0.191891
C35   C     C_R   0.496212 0.678028 0.252810 0.107580
C36   C     C_R   0.351739 0.681756 0.313853 -0.247880
C37   C     C_R   0.204966 0.746684 0.301767 -0.095522
H20   H     H_    0.086406 0.750670 0.345325 0.115224
C38   C     C_R   0.216190 0.811231 0.236405 -0.173121
H21   H     H_    0.105496 0.862651 0.231618 0.123508
C39   C     C_R   0.375014 0.813094 0.181499 -0.206420
C40   C     C_R   0.508535 0.742556 0.189215 0.146442
C41   C     C_3   0.722921 0.743542 0.190952 -0.586754
C42   C     C_3   0.710431 0.671679 0.259896 0.202960
H22   H     H_    0.780672 0.809635 0.213627 0.171052
H23   H     H_    0.785670 0.718904 0.131099 0.231187
H24   H     H_    0.767848 0.693968 0.321821 0.064028
O11   O     O_R   0.229140 0.916090 0.913340 -0.598874
O12   O     O_R   0.558860 0.905090 0.086080 -0.593436
O13   O     O_R   0.729100 0.083920 0.086690 -0.594957
C43   C     C_R   0.389781 0.883226 0.115010 0.940505
O14   O     O_R   0.558860 0.905090 0.913930 -0.592655
O15   O     O_R   0.729100 0.083920 0.913310 -0.588763
C44   C     C_R   0.389168 0.881421 0.886466 0.946658
O16   O     O_R   0.229140 0.916080 0.086720 -0.593962
O17   O     O_3   0.395570 0.058660 0.000020 -0.272920
V3    V     V_3+5 0.670450 0.989140 0.000000 1.146400
O18   O     O_R   0.058810 0.094980 0.913910 -0.590678
C45   C     C_R   0.888935 0.116230 0.884629 0.971453
O19   O     O_R   0.058810 0.094980 0.086060 -0.601355
C46   C     C_R   0.890219 0.117111 0.114793 0.925215
V4    V     V_3+5 0.170450 0.010950 0.999970 1.151208
O20   O     O_3   0.895460 0.941370 0.999990 -0.276163
N1    N     N_R   0.783305 0.583228 0.232620 0.253059
O21   O     O_R   0.704445 0.540147 0.169827 -0.418876
O22   O     O_R   0.938170 0.550431 0.267074 -0.414245
C47   C     C_3   0.832198 0.987895 0.747638 -1.042952
H25   H     H_    0.682852 0.007352 0.764264 0.263509
H26   H     H_    0.820005 0.927193 0.706503 0.231343
H27   H     H_    0.913192 0.968640 0.804751 0.254057

loop_
_geom_bond_atom_site_label_1
_geom_bond_atom_site_label_2
_geom_bond_distance
_ccdc_geom_bond_type
O17   V3    2.168607 S    
V4    O20   2.165908 S    
C1    C28   1.482370 S    
C40   C41   1.490051 S    
C6    C7    1.389512 A    
C1    O6    1.296960 A    
C42   N1    1.463836 S    
C28   C29   1.406078 A    
C27   C28   1.404573 A    
C12   C15   1.429020 A    
C25   H11   1.111631 S    
C13   C14   1.415952 A    
O15   C45   1.292881 A    
C33   H17   1.101110 S    
C15   C16   1.403424 A    
C27   C32   1.395111 A    
O11   V4    2.006843 S    
C27   C34   1.494012 S    
O5    C3    1.296721 A    
C17   C18   1.387290 A    
V2    O10   2.165881 S    
C30   H15   1.070748 S    
C33   H16   1.111878 S    
C5    C6    1.393112 A    
C19   C24   1.394973 A    
C29   H14   1.081255 S    
O13   C46   1.298160 A    
O8    V2    2.006726 S    
N1    O21   1.302413 A    
C37   H20   1.081807 S    
C41   H23   1.111919 S    
C38   H21   1.082273 S    
O1    V2    2.003449 S    
C10   C14   1.417304 A    
C4    C14   1.489348 S    
O7    V1    2.168630 S    
O19   C46   1.302127 A    
C7    H4    1.082720 S    
C21   C22   1.409672 A    
C35   C36   1.402784 A    
C32   C33   1.487017 S    
O9    C4    1.300025 A    
O18   V4    2.000728 S    
H1    C17   1.082801 S    
C22   C23   1.410806 A    
C26   H12   1.111766 S    
C29   C30   1.405951 A    
V3    O20   1.715649 S    
C41   C42   1.527122 S    
C5    C10   1.412609 A    
C11   C12   1.430386 A    
O12   C43   1.304078 A    
C6    H3    1.082800 S    
C20   C21   1.408166 A    
O4    C2    1.301648 A    
C26   H13   1.111707 S    
C31   C32   1.402660 A    
C43   O16   1.296179 A    
C35   C40   1.391203 A    
C36   C37   1.411162 A    
C18   H7    1.080855 S    
C33   C34   1.518769 S    
C34   H18   1.106514 S    
O2    C1    1.302930 A    
C16   C17   1.385591 A    
O16   V4    2.005128 S    
C34   H19   1.111104 S    
O19   V4    2.006744 S    
C16   H6    1.083714 S    
C19   C26   1.489400 S    
O3    C4    1.295889 A    
C41   H22   1.110613 S    
C21   H8    1.080161 S    
O14   C44   1.302483 A    
O6    V2    2.006568 S    
C47   H26   1.110506 S    
O9    V2    2.000859 S    
C9    C11   1.419211 A    
C5    H2    1.077993 S    
C22   H9    1.081292 S    
O2    V1    1.999102 S    
C31   C44   1.486167 S    
C20   C46   1.483889 S    
O11   C44   1.299073 A    
C23   C24   1.399781 A    
C15   C47   1.504128 S    
C25   C26   1.518974 S    
O1    C2    1.298927 A    
O15   V3    2.005197 S    
C39   C40   1.398284 A    
C11   C45   1.491828 S    
O5    V1    2.002438 S    
O8    C3    1.303778 A    
N1    O22   1.299414 A    
C8    H5    1.081793 S    
C47   H27   1.104893 S    
C12   C13   1.427567 A    
O4    V1    2.004513 S    
O12   V3    2.004459 S    
O3    V1    2.005281 S    
V1    O10   1.715643 S    
C19   C20   1.401962 A    
C35   C42   1.495546 S    
O17   V4    1.713290 S    
C30   C31   1.408393 A    
O14   V3    1.999083 S    
O7    V2    1.713901 S    
C42   H24   1.111794 S    
O13   V3    2.002540 S    
C2    C36   1.483342 S    
C25   H10   1.111435 S    
C24   C25   1.489449 S    
C13   C18   1.414582 A    
C7    C8    1.393667 A    
C37   C38   1.411584 A    
C47   H25   1.110594 S    
C9    C10   1.423244 A    
C3    C23   1.483891 S    
C38   C39   1.412280 A    
O18   C45   1.305755 A    
C8    C9    1.417125 A    
C39   C43   1.482423 S    
