data_mof_unit_63933.cif
_audit_creation_date              2013-03-05T16:18:16-0500
_audit_creation_method            fapswitch 2.2
_symmetry_space_group_name_H-M    P1
_symmetry_Int_Tables_number       1
_space_group_crystal_system       triclinic
_cell_length_a                    19.393213
_cell_length_b                    18.198133
_cell_length_c                    27.757738
_cell_angle_alpha                 90.035868
_cell_angle_beta                  92.783279
_cell_angle_gamma                 89.979842
_cell_volume                      9784.7097923

loop_
_atom_site_label
_atom_site_type_symbol
_atom_site_description
_atom_site_fract_x
_atom_site_fract_y
_atom_site_fract_z
_atom_type_partial_charge
O1    O     O_R   0.400150 0.561970 0.500010 -0.563788
O2    O     O_R   0.599850 0.438030 0.499990 -0.551347
O3    O     O_R   0.599850 0.561970 0.499990 -0.563229
O4    O     O_R   0.400150 0.438030 0.500010 -0.551093
C1    C     C_R   0.367611 0.500020 0.504365 0.919883
C2    C     C_R   0.632381 0.499981 0.495590 0.919786
O5    O     O_R   0.500010 0.561950 0.430260 -0.587248
O6    O     O_R   0.499990 0.438050 0.569740 -0.556976
O7    O     O_R   0.499990 0.561950 0.569740 -0.587643
O8    O     O_R   0.500010 0.438050 0.430260 -0.557336
C3    C     C_R   0.498826 0.499675 0.407473 0.973279
C4    C     C_R   0.501212 0.499720 0.592530 0.973235
Cu1   Cu    Cu3+1 0.500000 0.573360 0.500000 1.064082
Cu2   Cu    Cu3+1 0.500000 0.426640 0.500000 1.085017
C5    C     C_R   0.444235 0.471748 0.174230 0.746308
C6    C     C_R   0.557275 0.472427 0.825439 0.746022
O9    O     O_2   0.392181 0.439256 0.196725 -0.403883
O10   O     O_2   0.608526 0.439121 0.802503 -0.404858
N1    N     N_R   0.499492 0.498781 0.201178 -0.443685
N2    N     N_R   0.502178 0.500501 0.798855 -0.443477
C7    C     C_R   0.554929 0.529025 0.179808 0.608899
C8    C     C_R   0.447548 0.532140 0.820449 0.611118
C9    C     C_R   0.549698 0.457270 0.280760 -0.152053
C10   C     C_R   0.451399 0.458021 0.719590 -0.147821
C11   C     C_R   0.550022 0.460451 0.331775 0.337469
C12   C     C_R   0.450733 0.460690 0.668539 0.337356
C13   C     C_R   0.440203 0.527219 0.326673 -0.292843
C14   C     C_R   0.560377 0.527725 0.673070 -0.293126
C15   C     C_R   0.446253 0.534369 0.276316 0.422349
C16   C     C_R   0.554651 0.535351 0.723419 0.421202
C17   C     C_R   0.498523 0.496377 0.253238 0.175851
C18   C     C_R   0.502593 0.497594 0.746787 0.176914
C19   C     C_R   0.501112 0.502682 0.101182 -0.125497
C20   C     C_R   0.502448 0.505781 0.898917 -0.124479
C21   C     C_R   0.441402 0.478279 0.123588 -0.106361
C22   C     C_R   0.560690 0.478277 0.876111 -0.106732
C23   C     C_R   0.381954 0.458249 0.094861 0.330265
C24   C     C_R   0.619053 0.454031 0.904496 0.334941
C25   C     C_R   0.560395 0.524869 0.129161 -0.090746
C26   C     C_R   0.443977 0.531476 0.871355 -0.088710
C27   C     C_R   0.496732 0.497655 0.354414 -0.165189
C28   C     C_R   0.503722 0.497872 0.645601 -0.165607
C29   C     C_R   0.440013 0.516259 0.972758 0.090525
C30   C     C_R   0.564274 0.512028 0.027565 0.093089
C31   C     C_R   0.564331 0.495581 0.977448 0.026535
C32   C     C_R   0.439056 0.498378 0.022566 0.023817
C33   C     C_R   0.502248 0.505879 0.949584 -0.100841
C34   C     C_R   0.501547 0.504195 0.050558 -0.099436
C35   C     C_R   0.383251 0.548049 0.946654 0.426661
C36   C     C_R   0.623068 0.538057 0.054444 0.422133
C37   C     C_R   0.384872 0.555600 0.895736 -0.135470
C38   C     C_R   0.621409 0.544422 0.105452 -0.130768
O11   O     O_2   0.397180 0.563563 0.792332 -0.478100
O12   O     O_2   0.603716 0.563428 0.207767 -0.477896
C39   C     C_R   0.379468 0.472288 0.044489 0.363810
C40   C     C_R   0.622282 0.466269 0.955072 0.363293
C41   C     C_R   0.255074 0.568214 0.514736 -0.068652
C42   C     C_R   0.746785 0.433271 0.487996 -0.058847
C43   C     C_R   0.745015 0.567865 0.484742 -0.067110
C44   C     C_R   0.253026 0.433624 0.511880 -0.058055
C45   C     C_R   0.182771 0.569789 0.508966 0.360890
C46   C     C_R   0.819194 0.434521 0.493031 0.358190
C47   C     C_R   0.817516 0.568955 0.487572 0.370619
C48   C     C_R   0.180500 0.435154 0.508995 0.366001
C49   C     C_R   0.145355 0.503214 0.505600 -0.164463
C50   C     C_R   0.854632 0.502392 0.493313 -0.162697
C51   C     C_R   0.291350 0.500430 0.511131 -0.325013
C52   C     C_R   0.708618 0.500225 0.488664 -0.325736
N3    N     N_R   0.034997 0.469972 0.464700 -0.169221
N4    N     N_R   0.964910 0.538063 0.533304 -0.172196
N5    N     N_R   0.966356 0.469434 0.461971 -0.171564
N6    N     N_R   0.033562 0.538546 0.536054 -0.173549
C53   C     C_R   0.930300 0.503299 0.496294 0.360534
C54   C     C_R   0.069649 0.504569 0.501772 0.363350
C55   C     C_R   0.536547 0.277291 0.535650 0.092893
C56   C     C_R   0.462751 0.723172 0.464893 0.102978
C57   C     C_R   0.463429 0.277285 0.464348 0.092993
C58   C     C_R   0.537234 0.723221 0.535101 0.102611
C59   C     C_R   0.537285 0.198839 0.536184 -0.169786
C60   C     C_R   0.461459 0.801735 0.464598 -0.166445
C61   C     C_R   0.462685 0.198832 0.463784 -0.169465
C62   C     C_R   0.538505 0.801785 0.535397 -0.166440
C63   C     C_R   0.499987 0.158814 0.499975 -0.093196
C64   C     C_R   0.499980 0.841865 0.499996 -0.102596
N7    N     N_R   0.500000 0.316380 0.500000 -0.249792
N8    N     N_R   0.500000 0.683620 0.500000 -0.253840
N9    N     N_R   0.439744 0.037163 0.498364 -0.177343
N10   N     N_R   0.560216 0.963619 0.501564 -0.177385
N11   N     N_R   0.560220 0.037117 0.501578 -0.177290
N12   N     N_R   0.439746 0.963665 0.498398 -0.177459
C65   C     C_R   0.499980 0.925060 0.499988 0.510676
C66   C     C_R   0.499983 0.075693 0.499966 0.509971
C67   C     C_2   0.371712 0.538487 0.348512 0.926914
O13   O     O_2   0.326645 0.575711 0.328151 -0.524311
O14   O     O_R   0.356932 0.502483 0.391266 -0.742908
H1    H     H_    0.308431 0.512671 0.401649 0.355191
C68   C     C_2   0.628715 0.538744 0.650992 0.928118
O15   O     O_2   0.673859 0.576189 0.671078 -0.522239
O16   O     O_R   0.643274 0.502257 0.608341 -0.743118
H2    H     H_    0.691718 0.512277 0.597805 0.354982
O17   O     O_3   0.150321 0.637618 0.508105 -0.644026
H3    H     H_    0.104898 0.633821 0.490475 0.352423
O18   O     O_3   0.853741 0.367915 0.496205 -0.646227
H4    H     H_    0.899642 0.374690 0.512725 0.351839
O19   O     O_3   0.850035 0.636222 0.482701 -0.649610
H5    H     H_    0.898602 0.629292 0.474396 0.349163
O20   O     O_3   0.145831 0.368738 0.511411 -0.649346
H6    H     H_    0.098415 0.376601 0.522038 0.348306
C69   C     C_2   0.572070 0.315329 0.576748 0.955070
O21   O     O_2   0.626790 0.346782 0.571731 -0.531995
O22   O     O_R   0.544569 0.311034 0.622307 -0.733507
H7    H     H_    0.573630 0.338200 0.647916 0.347071
C70   C     C_2   0.427556 0.686363 0.423513 0.935302
O23   O     O_2   0.372958 0.654480 0.428141 -0.546949
O24   O     O_R   0.453661 0.695904 0.377860 -0.738483
H8    H     H_    0.420862 0.678342 0.350861 0.335101
C71   C     C_2   0.427842 0.315325 0.423300 0.954943
O25   O     O_2   0.373005 0.346587 0.428343 -0.531356
O26   O     O_R   0.455388 0.311185 0.377746 -0.733523
H9    H     H_    0.426266 0.338318 0.352168 0.347260
C72   C     C_2   0.572458 0.686462 0.576458 0.934710
O27   O     O_2   0.627128 0.654676 0.571819 -0.545837
O28   O     O_R   0.546328 0.696014 0.622112 -0.738151
H10   H     H_    0.579192 0.678607 0.649109 0.335265
C73   C     C_2   0.576176 0.158868 0.575691 0.891970
O29   O     O_2   0.547974 0.110242 0.597904 -0.515292
O30   O     O_R   0.644916 0.177281 0.587534 -0.719400
H11   H     H_    0.665666 0.146504 0.615007 0.366997
C74   C     C_2   0.420720 0.841752 0.425968 0.897817
O31   O     O_2   0.447915 0.889988 0.402801 -0.515388
O32   O     O_R   0.351435 0.823624 0.415989 -0.711794
H12   H     H_    0.329400 0.854284 0.388919 0.365340
C75   C     C_2   0.423786 0.158851 0.424265 0.891651
O33   O     O_2   0.451982 0.110176 0.402034 -0.515335
O34   O     O_R   0.355044 0.177298 0.412436 -0.718396
H13   H     H_    0.334289 0.146506 0.384955 0.367420
C76   C     C_2   0.579221 0.841857 0.574033 0.897654
O35   O     O_2   0.552007 0.890158 0.597188 -0.515215
O36   O     O_R   0.648506 0.823713 0.584030 -0.710970
H14   H     H_    0.670523 0.854418 0.611102 0.366069
O37   O     O_3   0.400839 0.576255 0.248169 -0.644915
H15   H     H_    0.392522 0.622340 0.265989 0.358330
O38   O     O_3   0.600317 0.577311 0.751326 -0.645033
H16   H     H_    0.608491 0.623294 0.733405 0.358766
O39   O     O_3   0.327064 0.425540 0.116436 -0.635092
H17   H     H_    0.304648 0.390282 0.093441 0.347915
O40   O     O_3   0.671966 0.418358 0.882444 -0.635750
H18   H     H_    0.692022 0.380803 0.904814 0.348188
O41   O     O_3   0.400459 0.425992 0.639734 -0.649621
H19   H     H_    0.383566 0.382334 0.656766 0.371089
O42   O     O_3   0.600275 0.426224 0.360846 -0.649947
H20   H     H_    0.617528 0.382513 0.344009 0.371067
C77   C     C_2   0.398235 0.416180 0.744908 0.909753
O43   O     O_2   0.337175 0.422112 0.732297 -0.509277
O44   O     O_R   0.418066 0.371350 0.784064 -0.744255
H21   H     H_    0.377296 0.346666 0.798862 0.358348
C78   C     C_2   0.603245 0.415356 0.255815 0.916475
O45   O     O_2   0.664230 0.421981 0.268450 -0.499925
O46   O     O_R   0.583849 0.369655 0.216978 -0.743677
H22   H     H_    0.624853 0.345061 0.202381 0.359839
C79   C     C_2   0.323213 0.585361 0.868949 0.932230
O47   O     O_2   0.270717 0.548299 0.864549 -0.518498
O48   O     O_R   0.324820 0.656459 0.850019 -0.689651
H23   H     H_    0.279512 0.670865 0.832828 0.364495
C80   C     C_2   0.684452 0.568724 0.133158 0.930447
O49   O     O_2   0.718749 0.524213 0.157038 -0.509436
O50   O     O_R   0.704852 0.642264 0.131295 -0.705859
H24   H     H_    0.748816 0.652164 0.151509 0.362649
O51   O     O_3   0.330838 0.578022 0.972684 -0.671900
H25   H     H_    0.301082 0.610738 0.952313 0.342498
O52   O     O_3   0.677953 0.564126 0.029219 -0.669107
H26   H     H_    0.719585 0.570324 0.050750 0.350346
O53   O     O_3   0.321998 0.453910 0.015665 -0.665945
H27   H     H_    0.280294 0.462849 0.034073 0.362521
O54   O     O_3   0.678300 0.442587 0.983540 -0.683559
H28   H     H_    0.720593 0.449550 0.965428 0.360025
C81   C     C_2   0.290697 0.638482 0.527345 1.016283
O55   O     O_2   0.331167 0.641395 0.562502 -0.563203
O56   O     O_R   0.276357 0.701700 0.500042 -0.645314
H29   H     H_    0.303974 0.745822 0.512219 0.348309
C82   C     C_2   0.713349 0.360605 0.479328 1.022277
O57   O     O_2   0.672412 0.352202 0.444858 -0.551345
O58   O     O_R   0.731075 0.300973 0.509187 -0.646845
H30   H     H_    0.705146 0.254532 0.499357 0.350652
C83   C     C_2   0.709336 0.638291 0.472716 1.013897
O59   O     O_2   0.668320 0.641695 0.437883 -0.564016
O60   O     O_R   0.724671 0.701239 0.500090 -0.641328
H31   H     H_    0.697097 0.745635 0.488339 0.348429
C84   C     C_2   0.286346 0.360914 0.520525 1.018355
O61   O     O_2   0.327544 0.352446 0.554839 -0.552284
O62   O     O_R   0.267853 0.301223 0.490891 -0.642267
H32   H     H_    0.293631 0.254655 0.500644 0.350502

loop_
_geom_bond_atom_site_label_1
_geom_bond_atom_site_label_2
_geom_bond_distance
_ccdc_geom_bond_type
C14   C68   1.500448 S    
C42   C46   1.404601 A    
C16   C18   1.405950 A    
O52   H26   0.987342 S    
C80   O49   1.222847 D    
C13   C15   1.414459 A    
O51   H25   0.987767 S    
O19   H5    0.988503 S    
O14   H1    1.014054 S    
C1    C51   1.499859 S    
O3    C2    1.300883 A    
N1    C17   1.446781 S    
O39   H17   0.990374 S    
C83   O59   1.223425 D    
O28   H10   1.010889 S    
C82   O57   1.222803 D    
C10   C77   1.486019 S    
C5    N1    1.368200 A    
C63   C66   1.512643 S    
C76   O36   1.398220 S    
C19   C25   1.414637 A    
C42   C82   1.487321 S    
C20   C26   1.416205 A    
N1    C7    1.368711 A    
C10   C12   1.417346 A    
C46   O18   1.385511 S    
C62   C76   1.490849 S    
C57   C71   1.475820 S    
C71   O26   1.398368 S    
C7    O12   1.348320 S    
C43   C52   1.426007 A    
C83   O60   1.398305 S    
C37   C79   1.479791 S    
O24   H8    1.010923 S    
C68   O15   1.222390 D    
C23   C39   1.420039 A    
N3    N5    1.329667 A    
C14   C28   1.415021 A    
C84   O62   1.398461 S    
C58   C72   1.468492 S    
O7    Cu1   1.947064 S    
C67   O14   1.397847 S    
C39   O53   1.381111 S    
C4    C28   1.471981 S    
C41   C81   1.487130 S    
C69   O22   1.398371 S    
C79   O48   1.397700 S    
C55   N7    1.385642 A    
C78   O45   1.223127 D    
O40   H18   0.990371 S    
C44   C51   1.425830 A    
C44   C84   1.486855 S    
C81   O56   1.398427 S    
C32   C39   1.414281 A    
C13   C27   1.415041 A    
C36   C38   1.422446 A    
O20   H6    0.989576 S    
C3    C27   1.471838 S    
C36   O52   1.386150 S    
C64   C65   1.514003 S    
C47   O19   1.386903 S    
O3    Cu1   1.947415 S    
C6    N2    1.367757 A    
C58   N8    1.386096 A    
C2    C52   1.500166 S    
C25   C38   1.426893 A    
C59   C73   1.490257 S    
C47   C50   1.413966 A    
C57   N7    1.385583 A    
C80   O50   1.397386 S    
Cu1   Cu2   2.670028 S    
O2    C2    1.300809 A    
C41   C51   1.425712 A    
C5    C21   1.409212 A    
C68   O16   1.397713 S    
C79   O47   1.222518 D    
C8    O11   1.347719 S    
C31   C33   1.411567 A    
O36   H14   1.013760 S    
C32   C34   1.411439 A    
C55   C69   1.475860 S    
C46   C50   1.413501 A    
C40   O54   1.380966 S    
O62   H32   1.014026 S    
O17   H3    0.989119 S    
O34   H13   1.013766 S    
C31   C40   1.414325 A    
N6    C54   1.356917 A    
O8    Cu2   1.947067 S    
C82   O58   1.398564 S    
C11   C27   1.408330 A    
O50   H24   1.013777 S    
N5    C53   1.356514 A    
C8    C26   1.418154 A    
C29   C35   1.412115 A    
C35   C37   1.422002 A    
O53   H27   0.990751 S    
C50   C53   1.465844 S    
C16   O38   1.378616 S    
C70   O24   1.398210 S    
C9    C17   1.414788 A    
Cu1   N8    2.006526 S    
C45   O17   1.385019 S    
O58   H30   1.014032 S    
C10   C18   1.414652 A    
C38   C80   1.479999 S    
C58   C62   1.429936 A    
O5    C3    1.297169 A    
O46   H22   1.013743 S    
C7    C25   1.416946 A    
N10   C65   1.361795 A    
C57   C61   1.427837 A    
O6    C4    1.287599 A    
C15   O37   1.378604 S    
N4    C53   1.355963 A    
C56   C70   1.468717 S    
N3    C54   1.356201 A    
C67   O13   1.222410 D    
N11   C66   1.361573 A    
C61   C75   1.490234 S    
C72   O27   1.219832 D    
C42   C52   1.425996 A    
N2    C8    1.368947 A    
C62   C64   1.408913 A    
O8    C3    1.287522 A    
C75   O33   1.223158 D    
O1    C1    1.300718 A    
C13   C67   1.500559 S    
O1    Cu1   1.947560 S    
O30   H11   1.013767 S    
C56   N8    1.386245 A    
O18   H4    0.989051 S    
N9    C66   1.361573 A    
C30   C31   1.422850 A    
C12   C28   1.408495 A    
C48   O20   1.386509 S    
C75   O34   1.398230 S    
C70   O23   1.219833 D    
N2    C18   1.446641 S    
C30   C36   1.413660 A    
C84   O61   1.222893 D    
C5    O9    1.349338 S    
O6    Cu2   1.946806 S    
C60   C74   1.490849 S    
O22   H7    1.013990 S    
C21   C23   1.417223 A    
C43   C47   1.404566 A    
C12   O41   1.382995 S    
C56   C60   1.429927 A    
Cu2   N7    2.006526 S    
O4    C1    1.300838 A    
C61   C63   1.411681 A    
O26   H9    1.013989 S    
C41   C45   1.403846 A    
C26   C37   1.427991 A    
C76   O35   1.223185 D    
C71   O25   1.219898 D    
O16   H2    1.014044 S    
C11   O42   1.383005 S    
C44   C48   1.405164 A    
C6    O10   1.349480 S    
C22   C24   1.417759 A    
O38   H16   0.990506 S    
C74   O31   1.223187 D    
O60   H31   1.013993 S    
C15   C17   1.406376 A    
O54   H28   0.990822 S    
O41   H19   0.988818 S    
C48   C49   1.414488 A    
C60   C64   1.408898 A    
C35   O51   1.386802 S    
N12   C65   1.361801 A    
C73   O29   1.223161 D    
C55   C59   1.427818 A    
C9    C78   1.486005 S    
C14   C16   1.414091 A    
C19   C21   1.412636 A    
C43   C83   1.486685 S    
C20   C22   1.412681 A    
C9    C11   1.416927 A    
O4    Cu2   1.947415 S    
O32   H12   1.013757 S    
O2    Cu2   1.947560 S    
C29   C32   1.421551 A    
C77   O44   1.398257 S    
C24   O40   1.381727 S    
C72   O28   1.398184 S    
O48   H23   1.013778 S    
O7    C4    1.297170 A    
C49   C54   1.467076 S    
O56   H29   1.013996 S    
C59   C63   1.411656 A    
C45   C49   1.413135 A    
O5    Cu1   1.946809 S    
C24   C40   1.419663 A    
N10   N11   1.337526 A    
C78   O46   1.398231 S    
C81   O55   1.223407 D    
N9    N12   1.337531 A    
C69   O21   1.219851 D    
O44   H21   1.013748 S    
C73   O30   1.398230 S    
C19   C34   1.405913 A    
N4    N6    1.329893 A    
C20   C33   1.406595 A    
C23   O39   1.381622 S    
C77   O43   1.223156 D    
O37   H15   0.990532 S    
C29   C33   1.407561 A    
O42   H20   0.988764 S    
C6    C22   1.408845 A    
C30   C34   1.408232 A    
C74   O32   1.398223 S    
