data_mof_unit_30032.cif
_audit_creation_date              2012-12-11T17:23:15-0500
_audit_creation_method            fapswitch 2.2
_symmetry_space_group_name_H-M    P1
_symmetry_Int_Tables_number       1
_space_group_crystal_system       triclinic
_cell_length_a                    22.400738
_cell_length_b                    7.096865
_cell_length_c                    19.397538
_cell_angle_alpha                 90.002353
_cell_angle_beta                  99.598472
_cell_angle_gamma                 89.999459
_cell_volume                      3040.55322165

loop_
_atom_site_label
_atom_site_type_symbol
_atom_type_description
_atom_site_fract_x
_atom_site_fract_y
_atom_site_fract_z
_atom_type_partial_charge
O1    O     O_R   0.443980 0.494320 0.557430 -0.531405
O2    O     O_R   0.556020 0.994320 0.442570 -0.532672
O3    O     O_R   0.441210 0.822520 0.414610 -0.535118
O4    O     O_R   0.558790 0.322520 0.585390 -0.532655
C1    C     C_R   0.426736 0.655632 0.388685 0.699528
C2    C     C_R   0.573256 0.155638 0.611319 0.714640
O5    O     O_R   0.436920 0.823940 0.555180 -0.531625
O6    O     O_R   0.563080 0.323940 0.444820 -0.531435
O7    O     O_R   0.551700 0.995760 0.584140 -0.538269
O8    O     O_R   0.448300 0.495760 0.415860 -0.541874
C3    C     C_R   0.421596 0.655388 0.574837 0.716892
C4    C     C_R   0.578412 0.155386 0.425172 0.714609
O9    O     O_3   0.537660 0.661290 0.509340 -0.367308
O10   O     O_3   0.462340 0.161290 0.490660 -0.371222
V1    V     V_3+5 0.493010 0.935560 0.498270 1.502700
V2    V     V_3+5 0.506990 0.435560 0.501730 1.506194
C5    C     C_R   0.783773 0.940583 0.247631 -0.187517
C6    C     C_R   0.244635 0.440645 0.787825 -0.188497
H1    H     H_    0.809429 0.811738 0.245815 0.154565
H2    H     H_    0.240664 0.311795 0.816696 0.151443
C7    C     C_R   0.793686 0.093564 0.205045 0.066243
C8    C     C_R   0.206586 0.593877 0.795309 0.063793
C9    C     C_R   0.760035 0.259281 0.208178 -0.142222
C10   C     C_R   0.212354 0.759451 0.757375 -0.138184
H3    H     H_    0.767004 0.379126 0.175848 0.131174
H4    H     H_    0.183444 0.879375 0.762333 0.136635
C11   C     C_R   0.717022 0.271811 0.253080 -0.169184
C12   C     C_R   0.255453 0.771678 0.712572 -0.148337
H5    H     H_    0.691424 0.400899 0.254306 0.174352
H6    H     H_    0.258889 0.900752 0.683696 0.188565
C13   C     C_R   0.707030 0.119254 0.295888 0.040042
C14   C     C_R   0.293719 0.618898 0.705040 0.037596
C15   C     C_R   0.740864 0.952608 0.292870 0.401876
C16   C     C_R   0.288026 0.452374 0.743175 0.396815
C17   C     C_1   0.838535 0.081017 0.158684 -0.021214
C18   C     C_1   0.161616 0.581141 0.841512 -0.020452
C19   C     C_1   0.661896 0.134793 0.341931 0.082770
C20   C     C_1   0.338451 0.634667 0.658504 0.090772
C21   C     C_1   0.624058 0.145683 0.380082 -0.108465
C22   C     C_1   0.376079 0.645675 0.620090 -0.104473
C23   C     C_1   0.876244 0.071484 0.120323 -0.181322
C24   C     C_1   0.123830 0.571512 0.879772 -0.181264
C25   C     C_R   0.635099 0.213807 0.802530 -0.154167
C26   C     C_R   0.364893 0.713844 0.197475 -0.156369
H7    H     H_    0.547958 0.241334 0.738216 0.132995
H8    H     H_    0.452026 0.741390 0.261797 0.112547
H9    H     H_    0.717394 0.205903 0.917392 0.123808
H10   H     H_    0.282603 0.705921 0.082607 0.128650
H11   H     H_    0.617507 0.249702 0.849628 0.123901
H12   H     H_    0.382485 0.749770 0.150382 0.120958
C27   C     C_R   0.615723 0.151587 0.678285 -0.072541
C28   C     C_R   0.384267 0.651579 0.321719 -0.064799
C29   C     C_R   0.911107 0.048162 0.760546 -0.238743
C30   C     C_R   0.088889 0.548223 0.239452 -0.235269
C31   C     C_R   0.876469 0.073359 0.694917 -0.102279
C32   C     C_R   0.123525 0.573476 0.305079 -0.104878
C33   C     C_R   0.814748 0.114988 0.687179 0.378177
C34   C     C_R   0.185246 0.615106 0.312811 0.376484
C35   C     C_R   0.784859 0.116601 0.746785 -0.013631
C36   C     C_R   0.215135 0.616644 0.253207 -0.009701
C37   C     C_R   0.822349 0.107147 0.814536 0.028327
C38   C     C_R   0.177647 0.607163 0.185458 0.026780
C39   C     C_R   0.720323 0.136190 0.742877 0.094340
C40   C     C_R   0.279670 0.636209 0.257118 0.095439
C41   C     C_R   0.697014 0.176953 0.805097 0.131448
C42   C     C_R   0.302979 0.676973 0.194902 0.131992
C43   C     C_R   0.735257 0.178006 0.869785 -0.191189
C44   C     C_R   0.264739 0.678019 0.130212 -0.189940
C45   C     C_R   0.796418 0.137577 0.874721 -0.162352
C46   C     C_R   0.203578 0.637577 0.125274 -0.162180
C47   C     C_R   0.677442 0.109658 0.680652 -0.146707
C48   C     C_R   0.322546 0.609657 0.319346 -0.149472
C49   C     C_R   0.595230 0.206817 0.739326 -0.157631
C50   C     C_R   0.404758 0.706846 0.260682 -0.167817
C51   C     C_R   0.885553 0.071804 0.820752 -0.080231
C52   C     C_R   0.114443 0.571825 0.179245 -0.081210
H13   H     H_    0.690212 0.051676 0.633994 0.176518
H14   H     H_    0.309768 0.551674 0.365999 0.173121
H15   H     H_    0.959133 0.020297 0.764476 0.133091
H16   H     H_    0.040863 0.520365 0.235523 0.135556
H17   H     H_    0.898769 0.069462 0.649493 0.175926
H18   H     H_    0.101225 0.569636 0.350503 0.174191
H19   H     H_    0.823630 0.134541 0.926381 0.104479
H20   H     H_    0.176367 0.634529 0.073613 0.106199
O11   O     O_R   0.051730 0.724670 0.084120 -0.533108
O12   O     O_R   0.948270 0.224670 0.915880 -0.533448
O13   O     O_R   0.063080 0.393540 0.944820 -0.535880
O14   O     O_R   0.936920 0.893540 0.055180 -0.536072
C53   C     C_R   0.078214 0.562102 0.924919 0.714106
C54   C     C_R   0.921797 0.062103 0.075095 0.714438
O15   O     O_R   0.058800 0.395030 0.085390 -0.535913
O16   O     O_R   0.941200 0.895030 0.914610 -0.536205
O17   O     O_R   0.943980 0.223310 0.057440 -0.534340
O18   O     O_R   0.056020 0.723310 0.942560 -0.534493
C55   C     C_R   0.073004 0.563538 0.111268 0.697352
C56   C     C_R   0.926994 0.063534 0.888731 0.696399
O19   O     O_3   0.962360 0.556290 0.990650 -0.370315
O20   O     O_3   0.037640 0.056290 0.009350 -0.369851
V3    V     V_3+5 0.006980 0.281990 0.001730 1.440439
V4    V     V_3+5 0.993020 0.781990 0.998270 1.439710
Cl1   Cl    Cl    0.730562 0.756404 0.345172 -0.629462
Cl2   Cl    Cl    0.334680 0.255993 0.736215 -0.683136
Cl3   Cl    Cl    0.783160 0.201896 0.603762 -0.619708
Cl4   Cl    Cl    0.216835 0.702189 0.396201 -0.660824

loop_
_geom_bond_atom_site_label_1
_geom_bond_atom_site_label_2
_ccdc_geom_bond_type
C25   C49   A    
C42   C44   A    
C39   C41   A    
C11   H5    S    
C18   C24   T    
O1    C3    A    
H8    C50   S    
O2    C4    A    
C2    O7    A    
C37   C51   A    
O5    C3    A    
C16   Cl2   S    
C5    C15   A    
O12   V3    S    
C36   C38   A    
C29   H15   S    
C10   H4    S    
C28   C50   A    
C52   C55   S    
C33   C35   A    
C37   C45   A    
O16   C56   A    
C38   C46   A    
C6    H2    S    
H7    C49   S    
C53   O18   A    
C48   H14   S    
C26   C42   A    
C41   C43   A    
C13   C15   A    
C1    C28   S    
C14   C20   S    
C2    C27   S    
C31   H17   S    
C46   H20   S    
O17   V3    S    
O13   V3    S    
C25   C41   A    
O5    V1    S    
C23   C54   S    
O6    V2    S    
C38   C52   A    
C29   C51   A    
C27   C47   A    
H9    C43   S    
O19   V3    S    
C51   C56   S    
C30   H16   S    
C29   C31   A    
C7    C9    A    
C33   Cl3   S    
C30   C32   A    
C35   C37   A    
C11   C13   A    
C10   C12   A    
C12   C14   A    
O4    C2    A    
C25   H11   S    
C5    C7    A    
C13   C19   S    
C43   C45   A    
C14   C16   A    
O4    V2    S    
C45   H19   S    
O18   V4    S    
O6    C4    A    
C28   C48   A    
O1    V2    S    
H10   C44   S    
C26   C50   A    
O2    V1    S    
C6    C16   A    
O14   V4    S    
O12   C56   A    
C30   C52   A    
O14   C54   A    
C9    C11   A    
C31   C33   A    
C15   Cl1   S    
C34   Cl4   S    
C47   H13   S    
O19   V4    S    
O3    V1    S    
O16   V4    S    
C54   O17   A    
C26   H12   S    
C6    C8    A    
C35   C39   A    
C27   C49   A    
C39   C47   A    
O3    C1    A    
C32   H18   S    
C7    C17   S    
C8    C18   S    
O20   V4    S    
C36   C40   A    
C24   C53   S    
C4    C21   S    
O13   C53   A    
O7    V1    S    
C1    O8    A    
C19   C21   T    
O11   V4    S    
O8    V2    S    
C20   C22   T    
O11   C55   A    
C12   H6    S    
C5    H1    S    
C32   C34   A    
C8    C10   A    
C40   C48   A    
C3    C22   S    
C17   C23   T    
O15   C55   A    
C9    H3    S    
C44   C46   A    
O20   V3    S    
O9    V2    S    
O10   V1    S    
O15   V3    S    
C34   C36   A    
C40   C42   A    
