data_mof_unit_23814.cif
_audit_creation_date              2012-12-11T14:44:34-0500
_audit_creation_method            fapswitch 2.2
_symmetry_space_group_name_H-M    P1
_symmetry_Int_Tables_number       1
_space_group_crystal_system       triclinic
_cell_length_a                    19.915682
_cell_length_b                    7.210196
_cell_length_c                    19.800816
_cell_angle_alpha                 91.383763
_cell_angle_beta                  98.427485
_cell_angle_gamma                 91.666455
_cell_volume                      2810.26529213

loop_
_atom_site_label
_atom_site_type_symbol
_atom_type_description
_atom_site_fract_x
_atom_site_fract_y
_atom_site_fract_z
_atom_type_partial_charge
O1    O     O_R   0.673210 0.377390 0.686390 -0.532464
O2    O     O_R   0.326790 0.622610 0.313610 -0.532463
O3    O     O_R   0.826790 0.877390 0.813610 -0.536100
O4    O     O_R   0.173210 0.122610 0.186390 -0.536098
O5    O     O_R   0.810750 0.706450 0.681250 -0.540755
O6    O     O_R   0.189250 0.293550 0.318750 -0.540756
O7    O     O_R   0.689250 0.206450 0.818750 -0.527556
O8    O     O_R   0.310750 0.793550 0.181250 -0.527559
C1    C     C_R   0.829624 0.537856 0.663968 0.718190
C2    C     C_R   0.170376 0.462143 0.336032 0.718194
C3    C     C_R   0.670341 0.037750 0.836074 0.727756
C4    C     C_R   0.329658 0.962250 0.163926 0.727762
O9    O     O_R   0.672750 0.707060 0.678240 -0.544679
O10   O     O_R   0.327250 0.292940 0.321760 -0.544680
O11   O     O_R   0.827250 0.207060 0.821760 -0.546977
O12   O     O_R   0.172750 0.792940 0.178240 -0.546978
O13   O     O_R   0.687800 0.877990 0.810580 -0.534979
O14   O     O_R   0.312200 0.122010 0.189420 -0.534977
O15   O     O_R   0.812200 0.377990 0.689420 -0.531031
O16   O     O_R   0.187800 0.622010 0.310580 -0.531030
C5    C     C_R   0.648367 0.534018 0.661332 0.706309
C6    C     C_R   0.351633 0.465982 0.338668 0.706309
C7    C     C_R   0.851454 0.042730 0.839572 0.706506
C8    C     C_R   0.148545 0.957270 0.160428 0.706510
O17   O     O_3   0.755100 0.544060 0.793420 -0.370660
O18   O     O_3   0.244900 0.455940 0.206580 -0.370661
O19   O     O_3   0.744900 0.044060 0.706580 -0.370761
O20   O     O_3   0.255100 0.955940 0.293420 -0.370760
V1    V     V_3+5 0.749050 0.818670 0.741950 1.448506
V2    V     V_3+5 0.250950 0.181330 0.258050 1.448506
V3    V     V_3+5 0.750950 0.318670 0.758050 1.479824
V4    V     V_3+5 0.249050 0.681330 0.241950 1.479823
C9    C     C_R   0.088953 0.949398 0.104528 -0.059862
C10   C     C_R   0.911047 0.050602 0.895472 -0.059862
C11   C     C_R   0.412295 0.495144 0.392137 -0.054930
C12   C     C_R   0.587705 0.504856 0.607863 -0.054931
C13   C     C_R   0.002100 0.235579 0.965213 -0.191062
C14   C     C_R   0.997899 0.764420 0.034787 -0.191061
C15   C     C_R   0.494214 0.297463 0.554710 -0.183612
C16   C     C_R   0.505786 0.702537 0.445290 -0.183612
C17   C     C_R   0.949049 0.218794 0.910409 -0.164910
C18   C     C_R   0.050951 0.781206 0.089591 -0.164911
C19   C     C_R   0.547159 0.340867 0.607726 -0.145965
C20   C     C_R   0.452841 0.659133 0.392274 -0.145964
C21   C     C_R   0.928399 0.897883 0.936813 -0.207634
C22   C     C_R   0.071600 0.102117 0.063187 -0.207634
C23   C     C_R   0.572865 0.627281 0.553930 -0.219546
C24   C     C_R   0.427135 0.372719 0.446070 -0.219547
C25   C     C_R   0.981469 0.914796 0.992745 0.154074
C26   C     C_R   0.018531 0.085204 0.007255 0.154073
C27   C     C_R   0.519741 0.583370 0.499915 0.155000
C28   C     C_R   0.480258 0.416630 0.500085 0.155000
H1    H     H_    0.100194 0.232460 0.073464 0.121829
H2    H     H_    0.899805 0.767540 0.926536 0.121829
H3    H     H_    0.396162 0.246983 0.447180 0.128662
H4    H     H_    0.603838 0.753017 0.552820 0.128662
H5    H     H_    0.062340 0.660731 0.120327 0.128473
H6    H     H_    0.937660 0.339269 0.879673 0.128473
H7    H     H_    0.443128 0.756234 0.351353 0.124364
H8    H     H_    0.556872 0.243766 0.648646 0.124364
H9    H     H_    0.030115 0.366912 0.974876 0.120257
H10   H     H_    0.969885 0.633088 0.025124 0.120257
H11   H     H_    0.464579 0.169553 0.556206 0.125728
H12   H     H_    0.535421 0.830447 0.443794 0.125728
C29   C     C_R   0.575462 0.164701 0.889857 -0.178493
C30   C     C_R   0.424537 0.835299 0.110142 -0.178492
C31   C     C_R   0.925837 0.669193 0.610950 -0.194376
C32   C     C_R   0.074164 0.330806 0.389051 -0.194375
C33   C     C_R   0.623121 0.025880 0.887899 -0.140408
C34   C     C_R   0.376878 0.974120 0.112100 -0.140408
C35   C     C_R   0.876644 0.526308 0.611881 -0.147231
C36   C     C_R   0.123356 0.473691 0.388120 -0.147231
C37   C     C_R   0.622811 0.874616 0.932871 -0.062630
C38   C     C_R   0.377187 0.125383 0.067128 -0.062635
C39   C     C_R   0.875274 0.371131 0.565653 -0.056597
C40   C     C_R   0.124727 0.628869 0.434348 -0.056600
C41   C     C_R   0.572901 0.862855 0.977430 0.020160
C42   C     C_R   0.427097 0.137144 0.022569 0.020160
C43   C     C_R   0.925335 0.359088 0.521327 0.020521
C44   C     C_R   0.074666 0.640911 0.478674 0.020522
C45   C     C_R   0.524927 0.004296 0.977772 0.052520
C46   C     C_R   0.475071 0.995703 0.022227 0.052520
C47   C     C_R   0.974981 0.504453 0.522136 0.050570
C48   C     C_R   0.025020 0.495546 0.477866 0.050570
C49   C     C_R   0.526836 0.155175 0.934081 0.093470
C50   C     C_R   0.473163 0.844824 0.065918 0.093472
C51   C     C_R   0.974556 0.659544 0.566781 0.099298
C52   C     C_R   0.025445 0.340455 0.433221 0.099299
C53   C     C_R   0.570138 0.715204 0.022641 -0.166379
C54   C     C_R   0.429860 0.284793 0.977357 -0.166380
C55   C     C_R   0.926652 0.207142 0.475216 -0.165237
C56   C     C_R   0.073349 0.792856 0.524786 -0.165237
C57   C     C_R   0.520718 0.705908 0.065661 -0.174726
C58   C     C_R   0.479281 0.294090 0.934337 -0.174729
C59   C     C_R   0.976256 0.197568 0.432416 -0.171511
C60   C     C_R   0.023746 0.802431 0.567585 -0.171513
H13   H     H_    0.575113 0.279330 0.855345 0.151139
H14   H     H_    0.424887 0.720670 0.144654 0.151135
H15   H     H_    0.927312 0.787148 0.646243 0.151256
H16   H     H_    0.072689 0.212851 0.353758 0.151255
H17   H     H_    0.606031 0.605144 0.025664 0.163219
H18   H     H_    0.393966 0.394852 0.974333 0.163224
H19   H     H_    0.889402 0.093990 0.471275 0.160251
H20   H     H_    0.110600 0.906007 0.528728 0.160254
H21   H     H_    0.519981 0.589525 0.099228 0.136436
H22   H     H_    0.480017 0.410472 0.900769 0.136437
H23   H     H_    0.975791 0.077918 0.398112 0.135331
H24   H     H_    0.024211 0.922080 0.601890 0.135331
C61   C     C_2   0.676375 0.734892 0.935192 0.763675
O21   O     O_2   0.660854 0.571072 0.922591 -0.569179
O22   O     O_R   0.744698 0.792523 0.949951 -0.664499
H25   H     H_    0.776511 0.685500 0.949195 0.287720
C62   C     C_2   0.323623 0.265105 0.064807 0.763679
O23   O     O_2   0.339142 0.428927 0.077401 -0.569182
O24   O     O_R   0.255300 0.207470 0.050055 -0.664499
H26   H     H_    0.223486 0.314493 0.050806 0.287720
C63   C     C_2   0.820102 0.226531 0.561876 0.757957
O25   O     O_2   0.760817 0.270116 0.548781 -0.562055
O26   O     O_R   0.835949 0.041864 0.574612 -0.671392
H27   H     H_    0.794049 0.956686 0.570392 0.299194
C64   C     C_2   0.179899 0.773470 0.438124 0.757957
O27   O     O_2   0.239184 0.729883 0.451215 -0.562055
O28   O     O_R   0.164052 0.958138 0.425392 -0.671394
H28   H     H_    0.205951 0.043316 0.429611 0.299194

loop_
_geom_bond_atom_site_label_1
_geom_bond_atom_site_label_2
_ccdc_geom_bond_type
O17   V3    S    
C24   H3    S    
C47   C51   A    
O1    C5    A    
O19   V1    S    
O13   V1    S    
O3    C7    A    
O22   H25   S    
C39   C63   S    
O1    V3    S    
C44   C48   A    
O15   V3    S    
C45   C46   A    
O28   H28   S    
C14   C25   A    
C42   C54   A    
O7    C3    A    
C6    C11   S    
C41   C53   A    
C40   C64   S    
O9    V1    S    
C17   H6    S    
C14   C18   A    
C63   O26   S    
O4    C8    A    
C20   H7    S    
O24   H26   S    
C56   C60   A    
C12   C23   A    
O2    V4    S    
O3    V1    S    
C34   C38   A    
C54   H18   S    
C57   H21   S    
C1    O15   A    
C58   H22   S    
C2    O16   A    
C43   C47   A    
O2    C6    A    
C33   C37   A    
O14   V2    S    
C21   C25   A    
C16   C20   A    
C43   C55   A    
C31   H15   S    
O11   C7    A    
C15   C28   A    
C60   H24   S    
C52   C59   A    
O12   C8    A    
C13   C17   A    
C9    C22   A    
C10   C17   A    
O10   V2    S    
C11   C24   A    
C18   H5    S    
C54   C58   A    
O5    V1    S    
O7    V3    S    
C27   C28   A    
O8    V4    S    
C48   C52   A    
C5    C12   S    
O18   V4    S    
C23   C27   A    
C46   C50   A    
C38   C62   S    
C32   C36   A    
C44   C56   A    
C32   H16   S    
O5    C1    A    
C50   C57   A    
C49   C58   A    
C42   C46   A    
C13   H9    S    
C47   C48   A    
C41   C45   A    
O8    C4    A    
C7    C10   S    
C51   C60   A    
O9    C5    A    
C36   C40   A    
C10   C21   A    
C29   C49   A    
C11   C20   A    
C64   O27   D    
C59   H23   S    
C19   H8    S    
O6    V2    S    
C21   H2    S    
C32   C52   A    
C40   C44   A    
C9    C18   A    
C62   O23   D    
O16   V4    S    
C4    C34   S    
C3    O13   A    
C53   H17   S    
C1    C35   S    
C55   H19   S    
C30   C50   A    
C15   C19   A    
O26   H27   S    
C3    C33   S    
O11   V3    S    
O12   V4    S    
C16   C27   A    
C15   H11   S    
C22   C26   A    
C31   C51   A    
C8    C9    S    
C16   H12   S    
O10   C6    A    
C61   O22   S    
C29   H13   S    
C63   O25   D    
C35   C39   A    
C13   C26   A    
C30   H14   S    
C30   C34   A    
C29   C33   A    
C22   H1    S    
O20   V2    S    
C31   C35   A    
C37   C61   S    
C53   C57   A    
O4    V2    S    
C64   O28   S    
O6    C2    A    
C56   H20   S    
C55   C59   A    
C24   C28   A    
C25   C26   A    
C38   C42   A    
C4    O14   A    
C37   C41   A    
C12   C19   A    
C62   O24   S    
C61   O21   D    
C39   C43   A    
C45   C49   A    
C23   H4    S    
C14   H10   S    
C2    C36   S    
