data_mof_unit_18186.cif
_audit_creation_date              2012-12-11T15:29:39-0500
_audit_creation_method            fapswitch 2.2
_symmetry_space_group_name_H-M    P1
_symmetry_Int_Tables_number       1
_space_group_crystal_system       triclinic
_cell_length_a                    21.472865
_cell_length_b                    7.243348
_cell_length_c                    14.933681
_cell_angle_alpha                 90.06841
_cell_angle_beta                  72.683851
_cell_angle_gamma                 89.865319
_cell_volume                      2217.43345468

loop_
_atom_site_label
_atom_site_type_symbol
_atom_type_description
_atom_site_fract_x
_atom_site_fract_y
_atom_site_fract_z
_atom_type_partial_charge
O1    O     O_R   0.464160 0.506670 0.130070 -0.536867
O2    O     O_R   0.535840 0.006670 0.869930 -0.536519
O3    O     O_R   0.589710 0.179080 0.006710 -0.545624
O4    O     O_R   0.410290 0.679080 0.993290 -0.546774
C1    C     C_R   0.616389 0.344348 0.001260 0.679451
C2    C     C_R   0.383239 0.844192 0.001130 0.679672
O5    O     O_R   0.467940 0.177220 0.138010 -0.538297
O6    O     O_R   0.532060 0.677220 0.861990 -0.537811
O7    O     O_R   0.413200 0.002810 0.002170 -0.539353
O8    O     O_R   0.586800 0.502810 0.997830 -0.540611
C3    C     C_R   0.455515 0.345111 0.174536 0.684461
C4    C     C_R   0.544273 0.844828 0.825615 0.686716
O9    O     O_3   0.482180 0.337850 0.955280 -0.376294
O10   O     O_3   0.517820 0.837850 0.044720 -0.377833
V1    V     V_3+5 0.503310 0.064600 0.008300 1.405616
V2    V     V_3+5 0.496690 0.564600 0.991700 1.406835
C5    C     C_R   0.574065 0.845162 0.724051 -0.035536
C6    C     C_R   0.425865 0.346398 0.276465 -0.036503
C7    C     C_R   0.937029 0.876540 0.279336 -0.079711
C8    C     C_R   0.062389 0.377807 0.720878 -0.079802
C9    C     C_R   0.573446 0.723123 0.573782 -0.154257
C10   C     C_R   0.427057 0.227759 0.427216 -0.155894
C11   C     C_R   0.540730 0.764051 0.666885 -0.163722
C12   C     C_R   0.459337 0.265236 0.333547 -0.161929
C13   C     C_R   0.640104 0.890527 0.687111 -0.212758
C14   C     C_R   0.359988 0.394555 0.314182 -0.212987
C15   C     C_R   0.674772 0.848394 0.592819 0.083268
C16   C     C_R   0.325757 0.355782 0.409080 0.083211
C17   C     C_R   0.640325 0.759494 0.537170 0.119763
C18   C     C_R   0.360365 0.267343 0.464694 0.125436
C19   C     C_R   0.742665 0.886766 0.552709 0.058868
C20   C     C_R   0.258034 0.396506 0.449738 0.057496
C21   C     C_R   0.776064 0.818849 0.461072 0.054303
C22   C     C_R   0.224838 0.330142 0.541590 0.065600
C23   C     C_R   0.739495 0.732620 0.408895 -0.090529
C24   C     C_R   0.261523 0.246199 0.594521 -0.104575
C25   C     C_R   0.672935 0.705049 0.445774 -0.177702
C26   C     C_R   0.328103 0.216761 0.556925 -0.182855
C27   C     C_R   0.777430 0.998591 0.598868 -0.183535
C28   C     C_R   0.223152 0.508640 0.403739 -0.181738
C29   C     C_R   0.841491 0.050229 0.554628 -0.172467
C30   C     C_R   0.158883 0.560012 0.447851 -0.170248
C31   C     C_R   0.874021 0.986187 0.464724 0.129073
C32   C     C_R   0.126197 0.494608 0.537244 0.130391
C33   C     C_R   0.843673 0.857215 0.419893 0.050549
C34   C     C_R   0.157049 0.366869 0.582014 0.058849
C35   C     C_R   0.935938 0.054931 0.417655 -0.141694
C36   C     C_R   0.063443 0.559615 0.583760 -0.135778
C37   C     C_R   0.965102 0.009260 0.324001 -0.167831
C38   C     C_R   0.033700 0.510195 0.676709 -0.166196
C39   C     C_R   0.881309 0.781780 0.332526 0.104213
C40   C     C_R   0.119420 0.288420 0.668084 0.084534
H1    H     H_    0.646859 0.639310 0.402415 0.146556
H2    H     H_    0.354464 0.152210 0.600269 0.136777
H3    H     H_    0.009204 0.080704 0.285439 0.125560
H4    H     H_    0.988782 0.578737 0.715229 0.118838
H5    H     H_    0.865170 0.145346 0.590141 0.121725
H6    H     H_    0.134987 0.654745 0.412387 0.121372
H7    H     H_    0.546950 0.656448 0.531281 0.121853
H8    H     H_    0.453749 0.161371 0.469572 0.121977
H9    H     H_    0.489964 0.725261 0.695612 0.116547
H10   H     H_    0.509938 0.224296 0.304451 0.117220
H11   H     H_    0.664184 0.944230 0.735517 0.092828
H12   H     H_    0.335600 0.447962 0.266059 0.094119
H13   H     H_    0.761255 0.693354 0.337021 0.205702
H14   H     H_    0.239730 0.210106 0.667330 0.176585
H15   H     H_    0.755101 0.059089 0.666876 0.118446
H16   H     H_    0.245522 0.569138 0.335891 0.116934
H17   H     H_    0.959217 0.155957 0.450622 0.127425
H18   H     H_    0.039727 0.660011 0.550998 0.127028
C41   C     C_3   0.207816 0.657797 0.028925 0.288861
C42   C     C_3   0.770846 0.229640 0.077184 0.313338
H19   H     H_    0.180478 0.633019 0.103894 0.075457
H20   H     H_    0.787863 0.087536 0.054544 0.120439
C43   C     C_3   0.281551 0.653740 0.019187 -0.320440
C44   C     C_3   0.697422 0.240641 0.083957 -0.354808
H21   H     H_    0.307754 0.563435 0.959374 0.200705
H22   H     H_    0.669052 0.306778 0.151053 0.180668
H23   H     H_    0.288550 0.592040 0.083801 0.105727
H24   H     H_    0.678305 0.097887 0.084284 0.144518
H25   H     H_    0.164725 0.954913 0.147497 0.129924
H26   H     H_    0.830726 0.152675 0.889434 0.156753
H27   H     H_    0.270643 0.923276 0.151462 0.139798
H28   H     H_    0.721936 0.124942 0.900644 0.147596
C45   C     C_3   0.198938 0.988456 0.077369 -0.444190
C46   C     C_3   0.806609 0.290059 0.905416 -0.481248
C47   C     C_3   0.235466 0.915393 0.904367 0.079747
C48   C     C_3   0.780020 0.562318 0.013086 0.070183
C49   C     C_3   0.187645 0.854536 0.001432 -0.003410
C50   C     C_3   0.812070 0.364775 0.000693 -0.001376
H29   H     H_    0.220951 0.055492 0.887307 0.157594
H30   H     H_    0.807733 0.649958 0.953341 0.097046
C51   C     C_3   0.312061 0.850459 0.002966 0.028137
C52   C     C_3   0.687393 0.352486 0.000687 0.027767
C53   C     C_3   0.270343 0.977587 0.081913 -0.344198
C54   C     C_3   0.733705 0.272776 0.907730 -0.337322
C55   C     C_3   0.306886 0.924714 0.908420 -0.351864
C56   C     C_3   0.708600 0.554260 0.010579 -0.335486
H31   H     H_    0.340305 0.844669 0.850009 0.153500
H32   H     H_    0.675203 0.616739 0.075233 0.171507
H33   H     H_    0.323936 0.070459 0.898997 0.155579
H34   H     H_    0.703906 0.638246 0.950486 0.130850
H35   H     H_    0.188235 0.132638 0.061895 0.231571
H36   H     H_    0.832554 0.384060 0.847480 0.150372
H37   H     H_    0.291391 0.118992 0.075052 0.171749
H38   H     H_    0.726083 0.347321 0.846719 0.144289
O11   O     O_R   0.913210 0.208550 0.002110 -0.537036
O12   O     O_R   0.086790 0.708550 0.997890 -0.496833
O13   O     O_R   0.032060 0.539960 0.861980 -0.527871
O14   O     O_R   0.967940 0.039960 0.138020 -0.527759
C57   C     C_R   0.041498 0.373125 0.824619 0.741430
C58   C     C_R   0.958134 0.873089 0.175465 0.737196
O15   O     O_R   0.910290 0.538020 0.993280 -0.541199
O16   O     O_R   0.089710 0.038020 0.006720 -0.536752
O17   O     O_R   0.964160 0.712340 0.130090 -0.520794
O18   O     O_R   0.035840 0.212340 0.869910 -0.525851
C59   C     C_R   0.883759 0.370393 0.998806 0.718477
C60   C     C_R   0.116185 0.868255 0.001880 0.697182
O19   O     O_3   0.017820 0.379210 0.044690 -0.353679
O20   O     O_3   0.982180 0.879210 0.955310 -0.384732
V3    V     V_3+5 0.996690 0.652500 0.991710 1.577663
V4    V     V_3+5 0.003310 0.152500 0.008290 1.572551
Cl1   Cl    Cl    0.188930 0.461046 0.968138 -0.675786
Cl2   Cl    Cl    0.781835 0.253073 0.190603 -0.596118
I1    I     I_    0.233974 0.746145 0.785776 -0.346952
I2    I     I_    0.784486 0.714843 0.134884 -0.379263
I3    I     I_    0.877944 0.492645 0.307493 -0.312235
I4    I     I_    0.122884 0.999235 0.687698 -0.392542

loop_
_geom_bond_atom_site_label_1
_geom_bond_atom_site_label_2
_ccdc_geom_bond_type
C3    C6    S    
O17   V3    S    
C47   H29   S    
C15   C17   A    
C21   C33   A    
O1    C3    A    
O12   V3    S    
C42   C44   S    
O2    C4    A    
C30   H6    S    
C2    O7    A    
C1    C52   S    
C40   I4    S    
H26   C46   S    
C35   C37   A    
C52   C56   S    
C7    C58   S    
O5    C3    A    
C5    C11   A    
O18   V4    S    
C6    C12   A    
C41   Cl1   S    
C23   C25   A    
C44   H22   S    
C9    H7    S    
O13   C57   A    
C10   H8    S    
C24   H14   S    
C33   C39   A    
C34   C40   A    
C18   C26   A    
C13   H11   S    
C14   H12   S    
C35   H17   S    
C48   I2    S    
C53   H37   S    
C44   C52   S    
C48   H30   S    
C16   C18   A    
C41   C49   S    
C4    C5    S    
C8    C38   A    
C19   C21   A    
C57   O18   A    
C22   C34   A    
C45   H35   S    
H25   C45   S    
C25   H1    S    
C36   C38   A    
C46   H36   S    
O6    V2    S    
C42   Cl2   S    
C29   C31   A    
C30   C32   A    
C55   H31   S    
C32   C34   A    
O14   C58   A    
C15   C19   A    
C50   C59   S    
O12   C60   A    
C16   C20   A    
C42   H20   S    
C46   C50   S    
C41   H19   S    
C45   C49   S    
C56   H34   S    
C9    C17   A    
C38   H4    S    
C20   C22   A    
O4    V2    S    
C8    C57   S    
C42   C50   S    
C7    C37   A    
C51   C55   S    
C26   H2    S    
O6    C4    A    
C2    C51   S    
H27   C53   S    
C6    C14   A    
O1    V2    S    
C52   C54   S    
O2    V1    S    
C43   H21   S    
O16   C60   A    
C46   C54   S    
O15   C59   A    
O4    C2    A    
C48   C50   S    
C56   H32   S    
C9    C11   A    
C10   C12   A    
H28   C54   S    
C47   I1    S    
O3    V1    S    
O20   V3    S    
C43   C51   S    
O19   V4    S    
C54   H38   S    
C12   H10   S    
C10   C18   A    
C27   H15   S    
C44   H24   S    
C36   H18   S    
C28   C30   A    
O3    C1    A    
C13   C15   A    
C14   C16   A    
C39   I3    S    
C24   C26   A    
O7    V1    S    
C5    C13   A    
C1    O8    A    
C8    C40   A    
C37   H3    S    
O14   V4    S    
C41   C43   S    
C45   C53   S    
O13   V3    S    
C31   C35   A    
O5    V1    S    
C21   C23   A    
C19   C27   A    
C22   C24   A    
C20   C28   A    
C48   C56   S    
C29   H5    S    
O16   V4    S    
C7    C39   A    
C11   H9    S    
O15   V3    S    
C49   C60   S    
C27   C29   A    
C51   C53   S    
C28   H16   S    
O9    V2    S    
C17   C25   A    
C47   C49   S    
C23   H13   S    
O10   V1    S    
O8    V2    S    
O11   V4    S    
C43   H23   S    
C31   C33   A    
O11   C59   A    
C58   O17   A    
C55   H33   S    
C32   C36   A    
C47   C55   S    
