data_mof_unit_34331.cif
_audit_creation_date              2012-12-10T16:48:06-0500
_audit_creation_method            fapswitch 2.2
_symmetry_space_group_name_H-M    P1
_symmetry_Int_Tables_number       1
_space_group_crystal_system       triclinic
_cell_length_a                    15.78617
_cell_length_b                    8.685763
_cell_length_c                    7.556882
_cell_angle_alpha                 102.607107
_cell_angle_beta                  97.974277
_cell_angle_gamma                 93.666837
_cell_volume                      996.629885184

loop_
_atom_site_label
_atom_site_type_symbol
_atom_type_description
_atom_site_fract_x
_atom_site_fract_y
_atom_site_fract_z
_atom_type_partial_charge
C1    C     C_R   0.497258 0.199984 0.453455 0.882631
C2    C     C_R   0.502734 0.800014 0.546543 0.878862
C3    C     C_R   0.339571 0.496141 0.495282 0.806880
C4    C     C_R   0.660432 0.503892 0.504701 0.811161
C5    C     C_2   0.495829 0.031989 0.427522 -0.325231
C6    C     C_2   0.504152 0.968007 0.572473 -0.322990
C7    C     C_3   0.967591 0.368229 0.534494 0.344017
C8    C     C_3   0.032143 0.633609 0.460255 0.359692
C9    C     C_3   0.002947 0.374786 0.354896 -0.334335
C10   C     C_3   0.996886 0.627306 0.639639 -0.359390
C11   C     C_1   0.248686 0.488466 0.481257 -0.081711
C12   C     C_1   0.751325 0.512112 0.518431 -0.055007
C13   C     C_3   0.044995 0.478536 0.650218 0.414303
C14   C     C_3   0.954569 0.523592 0.344860 0.415061
C15   C     C_3   0.080394 0.487288 0.473002 -0.185477
C16   C     C_3   0.919479 0.514685 0.522390 -0.199827
C17   C     C_1   0.172137 0.483910 0.469635 0.217068
C18   C     C_1   0.827843 0.517297 0.528549 0.186006
Cu1   Cu    Cu3+1 0.509330 0.517380 0.684380 1.024504
Cu2   Cu    Cu3+1 0.490670 0.482620 0.315620 1.016164
H1    H     H_    0.006004 0.272361 0.239715 0.235837
H2    H     H_    0.996125 0.733204 0.751702 0.224190
H3    H     H_    0.487860 0.960595 0.287798 0.176668
H4    H     H_    0.512119 0.039400 0.712196 0.178101
N1    N     N_2   0.476600 0.456420 0.038510 -0.004579
N2    N     N_2   0.523400 0.543580 0.961490 -0.000931
O1    O     O_R   0.506070 0.286130 0.619780 -0.558802
O2    O     O_R   0.493930 0.713870 0.380220 -0.563129
O3    O     O_R   0.490300 0.256770 0.308360 -0.598806
O4    O     O_R   0.509700 0.743230 0.691640 -0.600396
O5    O     O_R   0.386960 0.514660 0.655680 -0.548542
O6    O     O_R   0.613040 0.485340 0.344320 -0.543912
O7    O     O_R   0.371190 0.485310 0.344260 -0.593882
O8    O     O_R   0.628810 0.514690 0.655740 -0.578105
S1    S     S_3+6 0.918610 0.196607 0.588646 0.089610
O9    O     O_2   0.860620 0.246843 0.727865 -0.233656
O10   O     O_2   0.866384 0.093722 0.417424 -0.235519
O11   O     O_3   0.994213 0.094722 0.676182 -0.415885
H5    H     H_    0.961818 0.007264 0.710748 0.374809
S2    S     S_3+6 0.080343 0.805467 0.405553 0.094173
O12   O     O_2   0.132677 0.908907 0.576266 -0.228594
O13   O     O_2   0.138016 0.755769 0.265562 -0.242523
O14   O     O_3   0.003920 0.906220 0.318771 -0.420917
H6    H     H_    0.035716 0.993791 0.283170 0.379103
S3    S     S_3+6 0.883373 0.561467 0.156489 0.091579
O15   O     O_2   0.824360 0.414361 0.066667 -0.239436
O16   O     O_2   0.830778 0.692881 0.228061 -0.281352
O17   O     O_3   0.938060 0.616885 0.002742 -0.442956
H7    H     H_    0.895740 0.666043 0.928494 0.358501
S4    S     S_3+6 0.113112 0.441857 0.843631 0.089998
O18   O     O_2   0.061349 0.414305 0.987765 -0.202930
O19   O     O_2   0.158549 0.297417 0.781680 -0.263454
O20   O     O_3   0.186341 0.598894 0.930315 -0.487943
H8    H     H_    0.229598 0.562312 0.016012 0.370096
N3    N     N_3   0.418191 0.341495 0.919147 -0.395281
H9    H     H_    0.432775 0.232412 0.945945 0.215750
H10   H     H_    0.357698 0.361116 0.955769 0.234889
N4    N     N_3   0.581832 0.658465 0.080842 -0.390363
H11   H     H_    0.567266 0.767565 0.054066 0.210981
H12   H     H_    0.642310 0.638788 0.044160 0.255226

loop_
_geom_bond_atom_site_label_1
_geom_bond_atom_site_label_2
_ccdc_geom_bond_type
S4    O19   D    
C9    C14   S    
C15   C17   S    
C4    C12   S    
Cu1   O1    S    
Cu1   Cu2   S    
C5    H3    S    
C2    O4    A    
O14   H6    S    
C6    H4    S    
S2    O14   S    
S1    O11   S    
N3    H9    S    
N3    H10   S    
S4    O18   D    
C9    C15   S    
Cu1   O5    S    
Cu1   O4    S    
C10   C16   S    
O20   H8    S    
C10   H2    S    
C3    O5    A    
N2    N4    S    
C9    H1    S    
C1    O3    A    
C2    C6    S    
S1    O9    D    
C8    C14   S    
C1    C5    S    
Cu2   O7    S    
S2    O13   D    
S2    O12   D    
S1    O10   D    
C14   S3    S    
C4    O8    A    
Cu2   O3    S    
C13   C15   S    
C5    C6    D    
C14   C16   S    
S3    O17   S    
S4    O20   S    
C3    C11   S    
Cu2   N1    S    
C3    O7    A    
N4    H12   S    
C4    O6    A    
C7    C9    S    
C7    C13   S    
C13   S4    S    
O11   H5    S    
C16   C18   S    
Cu2   O6    S    
S3    O16   D    
C12   C18   T    
C8    S2    S    
C1    O1    A    
Cu1   N2    S    
O17   H7    S    
C2    O2    A    
C8    C15   S    
Cu2   O2    S    
N1    N2    D    
S3    O15   D    
N4    H11   S    
C7    S1    S    
Cu1   O8    S    
C8    C10   S    
C7    C16   S    
N1    N3    S    
C10   C13   S    
C11   C17   T    
