data_mof_unit_40636.cif
_audit_creation_date              2012-12-10T17:32:18-0500
_audit_creation_method            fapswitch 2.2
_symmetry_space_group_name_H-M    P1
_symmetry_Int_Tables_number       1
_space_group_crystal_system       triclinic
_cell_length_a                    12.399278
_cell_length_b                    13.304623
_cell_length_c                    15.025157
_cell_angle_alpha                 76.269507
_cell_angle_beta                  101.209533
_cell_angle_gamma                 116.948042
_cell_volume                      2135.56695849

loop_
_atom_site_label
_atom_site_type_symbol
_atom_type_description
_atom_site_fract_x
_atom_site_fract_y
_atom_site_fract_z
_atom_type_partial_charge
C1    C     C_R   0.855333 0.287185 0.506233 0.844919
C2    C     C_R   0.111087 0.568575 0.096601 -0.117438
C3    C     C_R   0.792932 0.355310 0.043512 -0.289620
C4    C     C_R   0.790901 0.352161 0.950166 0.511645
C5    C     C_R   0.896271 0.425368 0.905323 0.056415
C6    C     C_R   0.003253 0.496448 0.954190 -0.039668
C7    C     C_R   0.110294 0.565325 0.909749 -0.066356
C8    C     C_R   0.216812 0.632257 0.959275 -0.214160
C9    C     C_R   0.218054 0.633437 0.051812 0.622844
C10   C     C_R   0.896857 0.428742 0.811730 -0.218473
C11   C     C_R   0.001534 0.499555 0.767525 -0.201826
C12   C     C_R   0.000152 0.499926 0.670760 0.905756
C13   C     C_R   0.108908 0.566000 0.816397 0.599997
C14   C     C_R   0.273659 0.033102 0.404169 0.614812
C15   C     C_R   0.230976 0.834706 0.465303 -0.266293
C16   C     C_R   0.813887 0.083676 0.564400 0.632504
C17   C     C_R   0.731551 0.971362 0.589270 -0.235607
C18   C     C_R   0.608943 0.937260 0.560183 -0.182095
C19   C     C_R   0.566387 0.012261 0.497181 0.133694
C20   C     C_R   0.650388 0.126798 0.469933 -0.009631
C21   C     C_R   0.441052 0.978981 0.466215 -0.082296
C22   C     C_R   0.399163 0.062607 0.420364 -0.055213
C23   C     C_R   0.145576 0.713285 0.483989 0.863610
C24   C     C_R   0.483467 0.172445 0.387913 -0.180195
C25   C     C_R   0.607199 0.201380 0.407268 -0.135103
C26   C     C_R   0.356490 0.864365 0.477131 0.555701
C27   C     C_R   0.190159 0.920267 0.430389 -0.344730
C28   C     C_R   0.773685 0.164358 0.509294 -0.260654
C29   C     C_R   0.377384 0.393310 0.677056 0.533601
C30   C     C_R   0.757444 0.638601 0.369475 -0.042442
C31   C     C_R   0.666247 0.676279 0.342863 -0.349261
C32   C     C_R   0.568144 0.632979 0.394781 0.759548
C33   C     C_R   0.557855 0.547296 0.473345 -0.163762
C34   C     C_R   0.000240 0.500614 0.329127 0.857940
C35   C     C_R   0.657235 0.515464 0.501594 0.035437
C36   C     C_R   0.455614 0.494729 0.527857 -0.239910
C37   C     C_R   0.472679 0.444597 0.620454 -0.335346
C38   C     C_R   0.580580 0.434808 0.652208 0.575007
C39   C     C_R   0.652591 0.441312 0.588377 0.408091
C40   C     C_R   0.335736 0.484098 0.494301 0.644313
C41   C     C_R   0.264419 0.389439 0.641401 0.660927
C42   C     C_R   0.108966 0.571007 0.189430 0.363770
C43   C     C_R   0.000852 0.503208 0.231850 -0.280205
C44   C     C_R   0.892573 0.439643 0.181358 0.404937
C45   C     C_R   0.895589 0.431536 0.090584 -0.005891
C46   C     C_R   0.003379 0.498833 0.047246 -0.104368
Cu1   Cu    Cu3+1 0.098270 0.475420 0.521130 1.135116
Cu2   Cu    Cu3+1 0.901730 0.524580 0.478870 0.986934
H1    H     H_    0.454134 0.235630 0.345821 0.182282
H2    H     H_    0.549018 0.853204 0.591910 0.233785
H3    H     H_    0.762023 0.911636 0.636111 0.190196
H4    H     H_    0.667742 0.284007 0.374107 0.207263
H5    H     H_    0.834007 0.674833 0.329237 0.156268
H6    H     H_    0.673692 0.742283 0.283021 0.196448
H7    H     H_    0.715159 0.296910 0.080533 0.184646
H8    H     H_    0.816611 0.375084 0.773020 0.256730
H9    H     H_    0.299998 0.684125 0.926475 0.224594
H10   H     H_    0.093843 0.898995 0.418693 0.214098
N1    N     N_R   0.246280 0.438190 0.553160 -0.342732
N2    N     N_R   0.754320 0.561190 0.447410 -0.173065
O1    O     O_R   0.972510 0.318130 0.526570 -0.501660
O2    O     O_R   0.806530 0.359650 0.490890 -0.548821
O3    O     O_R   0.082980 0.479210 0.647590 -0.493369
O4    O     O_R   0.917000 0.520730 0.611900 -0.547161
O5    O     O_R   0.193470 0.640350 0.509110 -0.485391
O6    O     O_R   0.027490 0.681870 0.473430 -0.612992
O7    O     O_R   0.083000 0.479270 0.388100 -0.532523
O8    O     O_R   0.917020 0.520790 0.352410 -0.606301
O9    O     O_3   0.212905 0.637354 0.239795 -0.464469
C47   C     C_3   0.210745 0.743108 0.237520 -0.059217
H11   H     H_    0.132827 0.731901 0.271247 0.061257
H12   H     H_    0.208181 0.790085 0.165776 0.143660
H13   H     H_    0.295297 0.796864 0.276267 0.216865
F1    F     F_    0.231955 0.113246 0.363611 -0.677915
F2    F     F_    0.396261 0.782139 0.486840 -0.615874
F3    F     F_    0.931221 0.114649 0.601203 -0.609781
F4    F     F_    0.171785 0.335155 0.695534 -0.566438
F5    F     F_    0.605635 0.398258 0.742711 -0.626793
F6    F     F_    0.390998 0.342172 0.765515 -0.590664
O10   O     O_3   0.785278 0.380902 0.223005 -0.589072
C48   C     C_3   0.715547 0.444738 0.194394 -0.283318
H14   H     H_    0.634950 0.403655 0.233773 0.175933
H15   H     H_    0.681577 0.446087 0.120229 0.163542
H16   H     H_    0.767563 0.534066 0.207925 0.169816
O11   O     O_3   0.304861 0.509764 0.401427 -0.462038
C49   C     C_3   0.276303 0.413726 0.361293 -0.141498
H17   H     H_    0.198339 0.337027 0.391674 0.163261
H18   H     H_    0.356314 0.394541 0.367822 0.121076
H19   H     H_    0.249114 0.432946 0.286720 0.205024
F7    F     F_    0.492657 0.685548 0.373261 -0.558446
O12   O     O_3   0.711682 0.371082 0.611115 -0.544202
C50   C     C_3   0.628001 0.254687 0.632174 -0.264897
H20   H     H_    0.551226 0.229975 0.577096 0.151661
H21   H     H_    0.592881 0.234351 0.699753 0.225886
H22   H     H_    0.676160 0.200326 0.638952 0.174612
O13   O     O_3   0.693209 0.273353 0.902296 -0.578171
C51   C     C_3   0.579459 0.245909 0.930456 -0.103076
H23   H     H_    0.507488 0.207902 0.875774 0.240749
H24   H     H_    0.572032 0.322988 0.939962 0.186963
H25   H     H_    0.561315 0.179955 0.993753 0.127376
F8    F     F_    0.210724 0.632993 0.772333 -0.662260
F9    F     F_    0.324684 0.698391 0.096648 -0.618819

loop_
_geom_bond_atom_site_label_1
_geom_bond_atom_site_label_2
_ccdc_geom_bond_type
C16   C28   A    
C7    C13   A    
C21   C26   A    
C19   C20   A    
C1    O2    A    
C17   H3    S    
C51   H23   S    
C7    C8    A    
C45   C46   A    
C2    C46   A    
C5    C6    A    
C14   F1    S    
C23   O6    A    
C36   C37   A    
C19   C21   A    
Cu1   O3    S    
C30   C31   A    
C12   O4    A    
C49   H18   S    
Cu2   O4    S    
C20   C25   A    
C33   C36   A    
C18   C19   A    
C39   O12   S    
C51   H24   S    
C4    O13   S    
Cu2   O2    S    
C32   F7    S    
C31   C32   A    
C16   C17   A    
C30   N2    A    
C1    C28   S    
C47   H11   S    
C14   C27   A    
C10   H8    S    
C15   C23   S    
C40   N1    A    
C21   C22   A    
C3    H7    S    
Cu1   O7    S    
C48   H15   S    
Cu2   N2    S    
C30   H5    S    
C36   C40   A    
C24   C25   A    
C41   N1    A    
C34   O8    A    
O12   C50   S    
C12   O3    A    
C49   H17   S    
C9    F9    S    
C15   C26   A    
C38   F5    S    
O11   C49   S    
C3    C45   A    
C42   O9    S    
C48   H14   S    
C35   N2    A    
C40   O11   S    
C35   C39   A    
C43   C44   A    
C37   C38   A    
C8    H9    S    
C15   C27   A    
Cu1   Cu2   S    
C29   F6    S    
C44   O10   S    
O13   C51   S    
C47   H13   S    
C50   H21   S    
C17   C18   A    
C8    C9    A    
Cu2   O8    S    
C22   C24   A    
C42   C43   A    
C13   F8    S    
C3    C4    A    
C48   H16   S    
C44   C45   A    
C18   H2    S    
C24   H1    S    
C27   H10   S    
C51   H25   S    
C6    C46   A    
C29   C41   A    
C16   F3    S    
C34   C43   S    
O10   C48   S    
C49   H19   S    
C1    O1    A    
C34   O7    A    
Cu1   O1    S    
C11   C12   S    
C6    C7    A    
C20   C28   A    
C32   C33   A    
C14   C22   A    
C25   H4    S    
C5    C10   A    
C41   F4    S    
C11   C13   A    
C23   O5    A    
C38   C39   A    
C2    C42   A    
C50   H20   S    
C33   C35   A    
C50   H22   S    
C31   H6    S    
O9    C47   S    
C10   C11   A    
Cu1   N1    S    
C4    C5    A    
C26   F2    S    
C29   C37   A    
C47   H12   S    
Cu2   O6    S    
C2    C9    A    
Cu1   O5    S    
