data_mof_unit_34185.cif
_audit_creation_date              2012-12-11T16:22:51-0500
_audit_creation_method            fapswitch 2.2
_symmetry_space_group_name_H-M    P1
_symmetry_Int_Tables_number       1
_space_group_crystal_system       triclinic
_cell_length_a                    17.022993
_cell_length_b                    16.783049
_cell_length_c                    19.384774
_cell_angle_alpha                 117.709488
_cell_angle_beta                  62.3553
_cell_angle_gamma                 100.498622
_cell_volume                      4339.35214791

loop_
_atom_site_label
_atom_site_type_symbol
_atom_type_description
_atom_site_fract_x
_atom_site_fract_y
_atom_site_fract_z
_atom_type_partial_charge
C1    C     C_R   0.029226 0.759835 0.020504 0.526963
C2    C     C_R   0.242295 0.566059 0.830980 -0.176865
C3    C     C_3   0.732481 0.249793 0.896269 -0.319482
C4    C     C_3   0.750611 0.149214 0.860642 -1.017554
C5    C     C_R   0.183340 0.490333 0.087493 0.604484
C6    C     C_R   0.750072 0.479457 0.173217 -0.169145
C7    C     C_R   0.042815 0.325713 0.750950 -0.141267
C8    C     C_R   0.252060 0.548230 0.073766 -0.030959
C9    C     C_R   0.030410 0.239563 0.746312 0.083440
C10   C     C_R   0.242648 0.540094 0.751961 0.132422
C11   C     C_R   0.984014 0.234820 0.047838 0.051591
C12   C     C_R   0.119478 0.834826 0.426606 -0.265972
C13   C     C_R   0.090257 0.775477 0.365183 -0.179842
C14   C     C_R   0.743501 0.543753 0.253720 0.151552
C15   C     C_R   0.087625 0.800217 0.306457 0.115612
C16   C     C_R   0.117108 0.884733 0.308804 -0.339192
C17   C     C_R   0.140515 0.947231 0.374278 0.598135
C18   C     C_R   0.812835 0.522317 0.922113 0.552536
C19   C     C_R   0.139633 0.922756 0.435200 0.002918
C20   C     C_R   0.186846 0.067103 0.529269 0.626564
C21   C     C_R   0.153905 0.148621 0.603682 -0.349540
C22   C     C_R   0.069519 0.154165 0.670878 0.087836
C23   C     C_R   0.020610 0.076849 0.666153 -0.172024
C24   C     C_R   0.050582 0.997360 0.591505 -0.251392
C25   C     C_R   0.730752 0.491372 0.960505 -0.275858
C26   C     C_R   0.130483 0.993427 0.520275 -0.072519
C27   C     C_R   0.500599 0.591283 0.404828 0.367167
C28   C     C_R   0.577776 0.579555 0.328869 0.353036
C29   C     C_R   0.661072 0.592160 0.331245 -0.154647
C30   C     C_R   0.008491 0.661019 0.241858 -0.174167
C31   C     C_R   0.663225 0.646659 0.411319 -0.406367
C32   C     C_R   0.585117 0.673172 0.488152 0.652347
C33   C     C_R   0.504763 0.634766 0.485134 -0.224765
C34   C     C_R   0.461465 0.571716 0.591046 0.546785
C35   C     C_R   0.397548 0.549656 0.656177 -0.353608
C36   C     C_R   0.052567 0.739509 0.244045 0.053546
C37   C     C_R   0.307892 0.566860 0.685593 0.029129
C38   C     C_R   0.281582 0.611329 0.653423 -0.394957
C39   C     C_R   0.345278 0.640017 0.592170 0.561052
C40   C     C_R   0.435994 0.618166 0.558851 -0.134213
C41   C     C_R   0.645578 0.526358 0.982369 -0.068320
C42   C     C_R   0.743787 0.446270 0.999352 0.459973
C43   C     C_R   0.319035 0.575299 0.108239 -0.268412
C44   C     C_R   0.416743 0.486334 0.105729 0.444159
C45   C     C_R   0.332085 0.523651 0.143033 0.418374
C46   C     C_R   0.388676 0.628217 0.078464 0.576896
C47   C     C_R   0.245848 0.573775 0.017785 -0.236142
C48   C     C_R   0.475667 0.600119 0.051494 -0.143766
C49   C     C_R   0.487430 0.519706 0.052932 -0.174604
C50   C     C_R   0.570823 0.478849 0.009004 -0.118230
C51   C     C_R   0.635215 0.614779 0.995148 0.624619
C52   C     C_R   0.550724 0.648791 0.025133 -0.314860
C53   C     C_R   0.799513 0.177428 0.175101 0.114390
C54   C     C_R   0.074627 0.739157 0.165814 -0.078206
C55   C     C_R   0.939899 0.863608 0.015049 0.150238
C56   C     C_R   0.867026 0.951317 0.988513 -0.226678
C57   C     C_R   0.908522 0.871119 0.962693 -0.184105
C58   C     C_R   0.973625 0.248203 0.828545 -0.145478
C59   C     C_R   0.931470 0.938673 0.092637 -0.253019
C60   C     C_R   0.889616 0.019159 0.119198 0.156625
C61   C     C_R   0.855933 0.025222 0.067307 0.191014
C62   C     C_R   0.810509 0.104630 0.096077 -0.274243
C63   C     C_R   0.833871 0.171782 0.225698 -0.170689
C64   C     C_R   0.878691 0.093020 0.198083 -0.219107
C65   C     C_R   0.829129 0.550999 0.247624 -0.122003
C66   C     C_R   0.949135 0.691213 0.946633 -0.235952
C67   C     C_R   0.972976 0.775585 0.993698 -0.110758
C68   C     C_3   0.172278 0.799703 0.984988 0.160651
C69   C     C_R   0.162010 0.502307 0.756090 -0.150365
C70   C     C_3   0.231236 0.877959 0.008943 -0.255763
C71   C     C_3   0.323447 0.863162 0.933719 -1.041248
C72   C     C_3   0.224287 0.352227 0.054022 -0.252658
C73   C     C_3   0.082740 0.085856 0.422846 0.162613
C74   C     C_3   0.106447 0.184280 0.444299 -0.203734
C75   C     C_3   0.023537 0.246489 0.498178 -1.069805
C76   C     C_3   0.328402 0.002726 0.443493 0.197022
C77   C     C_3   0.374916 0.046060 0.503098 -0.332981
C78   C     C_3   0.447416 0.982692 0.477950 -1.004087
C79   C     C_3   0.416052 0.469601 0.372035 0.261540
C80   C     C_R   0.023431 0.315177 0.078723 -0.134499
C81   C     C_3   0.329905 0.440134 0.362383 -0.215571
C82   C     C_3   0.320329 0.338659 0.331870 -1.042229
C83   C     C_3   0.574758 0.626511 0.236935 0.256114
C84   C     C_3   0.483973 0.677015 0.287815 -0.255136
C85   C     C_3   0.487295 0.755953 0.268223 -1.087431
C86   C     C_3   0.538156 0.801236 0.616146 -0.217684
C87   C     C_3   0.573001 0.465796 0.486120 0.190170
C88   C     C_3   0.674059 0.452149 0.440556 -0.220650
C89   C     C_3   0.705574 0.378342 0.348044 -1.053842
C90   C     C_3   0.815091 0.480463 0.789779 0.227808
C91   C     C_R   0.947451 0.246973 0.002557 -0.125531
C92   C     C_3   0.872552 0.486929 0.704419 -0.265012
C93   C     C_3   0.842623 0.423251 0.634613 -1.031586
C94   C     C_3   0.292872 0.770922 0.616332 0.184636
C95   C     C_3   0.260312 0.812224 0.578040 -0.234259
C96   C     C_3   0.234185 0.912042 0.636760 -1.049847
C97   C     C_3   0.708327 0.730307 0.058553 -0.268668
C98   C     C_3   0.406935 0.344548 0.096558 -0.183906
C99   C     C_3   0.212649 0.581273 0.276109 -0.095794
C100  C     C_3   0.408691 0.723478 0.013945 -0.265222
C101  C     C_3   0.724266 0.301812 0.988879 0.178459
H1    H     H_    0.951591 0.194638 0.848184 0.099680
H2    H     H_    0.696077 0.453016 0.156899 0.217988
H3    H     H_    0.170906 0.601772 0.256550 0.137492
H4    H     H_    0.442292 0.661286 0.953759 0.122878
H5    H     H_    0.455821 0.778546 0.020215 0.166276
H6    H     H_    0.357635 0.747790 0.007084 0.156902
H7    H     H_    0.679782 0.265404 0.027360 0.137489
H8    H     H_    0.789167 0.303148 0.989810 0.090189
H9    H     H_    0.669838 0.259254 0.895751 0.204379
H10   H     H_    0.787355 0.276506 0.853495 0.185951
H11   H     H_    0.809710 0.137470 0.865191 0.254229
H12   H     H_    0.762732 0.114666 0.791675 0.271512
H13   H     H_    0.193546 0.207591 0.608260 0.146340
H14   H     H_    0.692480 0.119669 0.897691 0.267946
H15   H     H_    0.955662 0.079228 0.717453 0.130929
H16   H     H_    0.006405 0.941746 0.586613 0.157945
H17   H     H_    0.725504 0.665326 0.415743 0.178398
H18   H     H_    0.417965 0.515695 0.681443 0.159912
H19   H     H_    0.211750 0.624605 0.676428 0.155364
H20   H     H_    0.576589 0.411508 0.000220 0.210519
H21   H     H_    0.545499 0.715654 0.032983 0.170943
H22   H     H_    0.783439 0.110504 0.057842 0.117584
H23   H     H_    0.135655 0.487130 0.710345 0.101937
H24   H     H_    0.993606 0.631715 0.285575 0.099456
H25   H     H_    0.825448 0.228270 0.286712 0.132090
H26   H     H_    0.842180 0.954976 0.947688 0.134156
H27   H     H_    0.904121 0.089599 0.238606 0.128555
H28   H     H_    0.914628 0.814453 0.902379 0.138050
H29   H     H_    0.953504 0.933481 0.134651 0.164794
H30   H     H_    0.123339 0.780520 0.139170 0.139522
H31   H     H_    0.849253 0.594428 0.297989 0.101811
H32   H     H_    0.909046 0.678304 0.913328 0.214776
H33   H     H_    0.283107 0.622703 0.995998 0.156762
H34   H     H_    0.045784 0.333872 0.127743 0.163939
H35   H     H_    0.175996 0.786277 0.921384 0.110113
H36   H     H_    0.197985 0.739231 0.978838 0.091112
H37   H     H_    0.200303 0.941561 0.026312 0.211930
H38   H     H_    0.237422 0.884882 0.066097 0.196235
H39   H     H_    0.354414 0.797719 0.911652 0.261705
H40   H     H_    0.366423 0.918105 0.954719 0.274702
H41   H     H_    0.318910 0.863572 0.878525 0.267369
H42   H     H_    0.296136 0.365488 0.026910 0.115658
H43   H     H_    0.203465 0.320567 0.000645 0.128797
H44   H     H_    0.215025 0.302838 0.079920 0.165848
H45   H     H_    0.901484 0.202407 0.979801 0.085343
H46   H     H_    0.036664 0.081149 0.484497 0.099968
H47   H     H_    0.048513 0.063634 0.380289 0.093353
H48   H     H_    0.146549 0.205128 0.481256 0.214009
H49   H     H_    0.147007 0.191407 0.383222 0.200274
H50   H     H_    0.982211 0.227396 0.462658 0.274949
H51   H     H_    0.043218 0.317071 0.511517 0.280701
H52   H     H_    0.983802 0.242731 0.560968 0.273611
H53   H     H_    0.379230 0.982526 0.375484 0.151051
H54   H     H_    0.297555 0.939452 0.447275 0.080675
H55   H     H_    0.405085 0.109200 0.498967 0.214537
H56   H     H_    0.289353 0.608434 0.853717 0.098912
H57   H     H_    0.325541 0.063326 0.571137 0.196343
H58   H     H_    0.419144 0.918544 0.480533 0.274353
H59   H     H_    0.478108 0.014909 0.523691 0.268033
H60   H     H_    0.499771 0.967966 0.411499 0.269535
H61   H     H_    0.415628 0.451216 0.420499 0.049766
H62   H     H_    0.472873 0.433175 0.308192 0.128120
H63   H     H_    0.272500 0.475611 0.425751 0.201638
H64   H     H_    0.329120 0.458961 0.314759 0.247178
H65   H     H_    0.376313 0.301821 0.267862 0.273010
H66   H     H_    0.257239 0.319682 0.325437 0.275990
H67   H     H_    0.083402 0.343759 0.698380 0.106973
H68   H     H_    0.319111 0.318566 0.379462 0.271384
H69   H     H_    0.594552 0.600928 0.166841 0.137428
H70   H     H_    0.626912 0.673423 0.250485 0.059397
H71   H     H_    0.433729 0.629777 0.271148 0.233819
H72   H     H_    0.462703 0.704267 0.358411 0.207205
H73   H     H_    0.537029 0.804082 0.284719 0.271190
H74   H     H_    0.421158 0.791705 0.307266 0.282150
H75   H     H_    0.504948 0.731621 0.198874 0.286874
H76   H     H_    0.468888 0.787427 0.653280 0.126845
H77   H     H_    0.540136 0.834545 0.577239 0.106647
H78   H     H_    0.117282 0.815407 0.473540 0.147088
H79   H     H_    0.562689 0.849718 0.663980 0.168472
H80   H     H_    0.550212 0.463371 0.439832 0.065318
H81   H     H_    0.543037 0.409933 0.504755 0.087589
H82   H     H_    0.705272 0.515633 0.438554 0.221629
H83   H     H_    0.696385 0.434307 0.477373 0.186722
H84   H     H_    0.678478 0.313013 0.348248 0.269518
H85   H     H_    0.779189 0.372576 0.316189 0.272462
H86   H     H_    0.683712 0.394936 0.310236 0.274406
H87   H     H_    0.744739 0.496518 0.810697 0.119034
H88   H     H_    0.821960 0.409897 0.778349 0.065203
H89   H     H_    0.066631 0.711791 0.366492 0.107957
H90   H     H_    0.868376 0.557156 0.714496 0.211169
H91   H     H_    0.942870 0.469438 0.682211 0.193803
H92   H     H_    0.845740 0.352606 0.623768 0.274245
H93   H     H_    0.886909 0.427969 0.572965 0.277397
H94   H     H_    0.773565 0.441823 0.654080 0.270616
H95   H     H_    0.350668 0.808432 0.626314 0.079791
H96   H     H_    0.238055 0.777526 0.679802 0.087569
H97   H     H_    0.313612 0.804228 0.513696 0.197923
H98   H     H_    0.201869 0.775971 0.568762 0.195670
H99   H     H_    0.179665 0.921414 0.700943 0.274200
H100  H     H_    0.116303 0.905242 0.263804 0.139517
H101  H     H_    0.210856 0.939545 0.606947 0.273995
H102  H     H_    0.292122 0.949996 0.645566 0.273575
H103  H     H_    0.714897 0.694798 0.092026 0.120511
H104  H     H_    0.648646 0.776945 0.101566 0.143804
H105  H     H_    0.766813 0.772185 0.045597 0.187685
H106  H     H_    0.430818 0.318846 0.025453 0.082382
H107  H     H_    0.333766 0.341357 0.129241 0.178531
H108  H     H_    0.436360 0.298957 0.106183 0.160504
H109  H     H_    0.167551 0.565772 0.331438 0.139144
H110  H     H_    0.254144 0.637528 0.298731 0.109050
N1    N     N_R   0.034930 0.670790 0.995440 -0.101844
N2    N     N_R   0.867000 0.509260 0.948460 -0.120889
N3    N     N_R   0.003780 0.616410 0.165900 -0.046188
N4    N     N_R   0.825670 0.461520 0.995440 -0.136192
N5    N     N_R   0.045120 0.664150 0.118920 -0.049657
N6    N     N_R   0.884940 0.497570 0.165910 -0.042138
N7    N     N_R   0.985840 0.628110 0.948460 -0.057670
N8    N     N_R   0.174330 0.538480 0.004560 -0.076007
N9    N     N_R   0.954880 0.335850 0.881080 -0.054348
N10   N     N_R   0.115060 0.502430 0.834090 -0.034929
N11   N     N_R   0.014160 0.371890 0.051540 -0.040438
N12   N     N_R   0.965070 0.329210 0.004560 -0.043254
N13   N     N_R   0.164150 0.545120 0.881070 -0.043380
N14   N     N_R   0.133000 0.490740 0.051540 -0.102329
N15   N     N_R   0.996220 0.383590 0.834100 -0.042819
N16   N     N_R   0.835850 0.454880 0.118930 -0.054589
Ni1   Ni    Ni4+2 0.103690 0.603690 0.000000 0.195623
Ni2   Ni    Ni4+2 0.896310 0.396310 0.000000 0.190385
Ni3   Ni    Ni4+2 0.991110 0.505800 0.892250 0.219766
Ni4   Ni    Ni4+2 0.008890 0.494200 0.107750 0.225767
O1    O     O_3   0.084367 0.822331 0.050680 -0.694498
O2    O     O_3   0.318300 0.679755 0.557704 -0.616203
O3    O     O_3   0.706856 0.668687 0.978982 -0.601812
O4    O     O_3   0.433839 0.432467 0.134355 -0.569512
O5    O     O_3   0.264742 0.503120 0.207536 -0.567149
O6    O     O_3   0.367150 0.711618 0.090802 -0.594219
O7    O     O_3   0.684722 0.388653 0.029617 -0.663502
O8    O     O_3   0.172634 0.431505 0.121902 -0.602619
O9    O     O_3   0.161703 0.032968 0.379897 -0.634813
O10   O     O_3   0.267872 0.065520 0.461826 -0.640427
O11   O     O_3   0.420630 0.563766 0.400473 -0.600172
O12   O     O_3   0.570104 0.551159 0.252968 -0.634177
O13   O     O_3   0.592581 0.721690 0.565273 -0.574409
O14   O     O_3   0.549431 0.549237 0.560669 -0.622269
O15   O     O_3   0.843551 0.543092 0.852689 -0.652989

loop_
_geom_bond_atom_site_label_1
_geom_bond_atom_site_label_2
_ccdc_geom_bond_type
C44   C49   A    
C72   H42   S    
C7    H67   S    
C59   H29   S    
C55   C59   A    
C73   C74   S    
C41   C50   A    
C4    H14   S    
C35   H18   S    
C95   C96   S    
C8    C43   S    
C87   C88   S    
C87   H81   S    
C81   C82   S    
C42   O7    S    
C92   H91   S    
C99   H110  S    
C77   C78   S    
C27   C33   A    
C54   N5    A    
C54   H30   S    
C50   H20   S    
C24   H16   S    
N5    Ni1   S    
C80   H34   S    
C20   C26   A    
N9    Ni2   S    
C73   H46   S    
C51   O3    S    
C94   H95   S    
C57   H28   S    
C28   C29   A    
C35   C37   A    
C24   C26   A    
C34   C35   A    
N10   N13   A    
C95   H97   S    
C77   H55   S    
C38   C39   A    
N3    N5    A    
C9    C22   S    
C88   H83   S    
C6    C14   A    
C14   C29   S    
C3    H9    S    
C101  H8    S    
C72   H44   S    
C83   H69   S    
C83   O12   S    
C86   H77   S    
C85   H75   S    
C56   C57   A    
C3    C4    S    
C72   H43   S    
C9    C58   A    
C89   H85   S    
C46   O6    S    
C19   C26   S    
C18   O15   S    
N7    Ni3   S    
C42   N4    A    
C1    C67   A    
C23   H15   S    
C58   N9    A    
C84   C85   S    
C98   O4    S    
C93   H93   S    
C75   H50   S    
C16   C17   A    
C64   H27   S    
C83   H70   S    
N10   Ni3   S    
C23   C24   A    
C45   O5    S    
C74   H48   S    
C70   C71   S    
C58   H1    S    
C28   O12   S    
C97   H105  S    
C92   H90   S    
C77   H57   S    
C71   H40   S    
C38   H19   S    
C88   C89   S    
C3    C101  S    
C101  H7    S    
C66   C67   A    
C4    H11   S    
C30   H24   S    
C70   H38   S    
C21   C22   A    
C32   O13   S    
C1    N1    A    
C89   H86   S    
C98   H107  S    
C68   H36   S    
C93   H94   S    
C18   C25   A    
C52   H21   S    
N3    Ni4   S    
N13   Ni1   S    
C2    N13   A    
C62   H22   S    
C87   O14   S    
C82   H66   S    
N2    N4    A    
C20   O10   S    
C98   H108  S    
C46   C48   A    
C33   C40   S    
C74   C75   S    
C73   H47   S    
C51   C52   A    
C4    H12   S    
C68   H35   S    
C76   C77   S    
C73   O9    S    
C44   O4    S    
C25   C41   S    
C39   C40   A    
C39   O2    S    
C3    H10   S    
C88   H82   S    
C69   H23   S    
N15   Ni3   S    
C47   N8    A    
C56   H26   S    
C86   H76   S    
C13   H89   S    
C60   C61   A    
C10   C69   A    
C31   H17   S    
C37   C38   A    
C90   H88   S    
C30   N3    A    
C66   H32   S    
C53   C62   A    
C75   H52   S    
C90   C92   S    
C83   C84   S    
C48   C52   A    
C75   H51   S    
C29   C31   A    
C6    N16   A    
C20   C21   A    
C34   O14   S    
C86   H79   S    
C85   H73   S    
C100  H4    S    
C72   O8    S    
N9    N15   A    
C100  O6    S    
C56   C61   A    
N14   Ni4   S    
C6    H2    S    
N8    N14   A    
C43   C45   A    
C68   O1    S    
N6    N16   A    
C71   H41   S    
C78   H59   S    
C48   C49   A    
N16   Ni2   S    
C79   O11   S    
N11   Ni4   S    
C70   H37   S    
C94   C95   S    
C13   C15   A    
C47   H33   S    
N8    Ni1   S    
C81   H63   S    
C34   C40   A    
C98   H106  S    
C18   N2    A    
C79   H61   S    
C91   N12   A    
C16   H100  S    
C2    C10   A    
C27   O11   S    
C15   C36   S    
C65   H31   S    
C44   C45   A    
C96   H102  S    
C79   C81   S    
C82   H65   S    
C7    C9    A    
C100  H6    S    
C5    O8    S    
C101  O7    S    
N4    Ni2   S    
C89   H84   S    
C31   C32   A    
C93   H92   S    
C79   H62   S    
C21   H13   S    
C84   H71   S    
C25   C42   A    
C87   H80   S    
C5    C8    A    
C55   C67   S    
C94   O2    S    
C96   H101  S    
C71   H39   S    
C7    N15   A    
C10   C37   S    
C76   H54   S    
C100  H5    S    
C30   C36   A    
C60   C64   A    
C94   H96   S    
C32   C33   A    
C55   C57   A    
C76   O10   S    
C8    C47   A    
C15   C16   A    
C66   N7    A    
C96   H99   S    
C84   H72   S    
N6    Ni4   S    
C65   N6    A    
C99   O5    S    
C53   C63   A    
C1    O1    S    
C90   H87   S    
C2    H56   S    
C97   O3    S    
C90   O15   S    
C12   C19   A    
C76   H53   S    
C92   C93   S    
C17   C19   A    
C14   C65   A    
C5    N14   A    
C99   H3    S    
C69   N10   A    
C61   C62   A    
C43   C46   A    
C82   H68   S    
C63   H25   S    
C36   C54   A    
C11   C80   A    
C80   N11   A    
C63   C64   A    
N1    Ni1   S    
C17   O9    S    
C11   C91   A    
C78   H58   S    
C59   C60   A    
C12   H78   S    
C12   C13   A    
C78   H60   S    
C86   O13   S    
C49   C50   A    
C27   C28   A    
C68   C70   S    
C81   H64   S    
C22   C23   A    
C74   H49   S    
C97   H103  S    
C97   H104  S    
C95   H98   S    
N11   N12   A    
C41   C51   A    
C91   H45   S    
N2    Ni3   S    
N12   Ni2   S    
C85   H74   S    
N1    N7    A    
C99   H109  S    
