data_mof_unit_65916.cif
_audit_creation_date              2012-12-10T21:39:48-0500
_audit_creation_method            fapswitch 2.2
_symmetry_space_group_name_H-M    P1
_symmetry_Int_Tables_number       1
_space_group_crystal_system       triclinic
_cell_length_a                    16.201274
_cell_length_b                    16.666673
_cell_length_c                    23.366378
_cell_angle_alpha                 90.958387
_cell_angle_beta                  89.989423
_cell_angle_gamma                 84.897344
_cell_volume                      6283.52800883

loop_
_atom_site_label
_atom_site_type_symbol
_atom_type_description
_atom_site_fract_x
_atom_site_fract_y
_atom_site_fract_z
_atom_type_partial_charge
C1    C     C_R   0.487075 0.653575 0.497138 0.944173
C2    C     C_R   0.533881 0.424934 0.299215 -0.214798
C3    C     C_R   0.462411 0.576867 0.761064 0.470952
C4    C     C_R   0.537593 0.423212 0.238918 0.470950
C5    C     C_R   0.485330 0.506467 0.791195 0.214500
C6    C     C_R   0.514700 0.493636 0.208807 0.214485
C7    C     C_R   0.476234 0.740767 0.486674 -0.238826
C8    C     C_R   0.523766 0.259230 0.513314 -0.238838
C9    C     C_R   0.537454 0.776572 0.454742 0.328175
C10   C     C_R   0.462546 0.223418 0.545242 0.328304
C11   C     C_R   0.534166 0.860368 0.451019 0.334598
C12   C     C_R   0.512925 0.346424 0.502860 0.944251
C13   C     C_R   0.465834 0.139621 0.548955 0.334565
C14   C     C_R   0.469894 0.907992 0.478328 0.151136
C15   C     C_R   0.530107 0.092003 0.521641 0.151139
C16   C     C_R   0.498446 0.499349 0.610295 0.946836
C17   C     C_R   0.501554 0.500654 0.389705 0.946721
C18   C     C_R   0.405597 0.873312 0.504794 -0.156513
C19   C     C_R   0.594402 0.126689 0.495178 -0.156518
C20   C     C_R   0.406860 0.789985 0.508610 -0.165078
C21   C     C_R   0.593138 0.210017 0.491372 -0.165116
C22   C     C_R   0.765684 0.465063 0.467911 0.463399
C23   C     C_R   0.510978 0.434622 0.762810 -0.253905
C24   C     C_R   0.234316 0.534940 0.532087 0.463396
C25   C     C_R   0.853004 0.461044 0.470850 -0.188209
C26   C     C_R   0.146996 0.538959 0.529149 -0.188210
C27   C     C_R   0.890426 0.507490 0.513323 0.212816
C28   C     C_R   0.109574 0.492509 0.486678 0.212813
C29   C     C_R   0.838537 0.552754 0.552410 -0.245980
C30   C     C_R   0.161463 0.447242 0.447592 -0.245970
C31   C     C_R   0.752088 0.553098 0.548709 -0.014773
C32   C     C_R   0.247912 0.446898 0.451293 -0.014744
C33   C     C_R   0.438428 0.477915 0.122041 0.546364
C34   C     C_R   0.489066 0.565469 0.237211 -0.253830
C35   C     C_R   0.561591 0.522235 0.877960 0.546349
C36   C     C_R   0.579573 0.508405 0.117812 0.588874
C37   C     C_R   0.420450 0.491735 0.882190 0.588880
C38   C     C_R   0.576570 0.510581 0.058220 -0.067892
C39   C     C_R   0.423451 0.489571 0.941782 -0.067890
C40   C     C_R   0.501540 0.498848 0.030115 0.005971
C41   C     C_R   0.498479 0.501310 0.969888 0.005972
C42   C     C_R   0.429810 0.484824 0.062201 -0.104832
C43   C     C_R   0.570210 0.515332 0.937801 -0.104847
C44   C     C_R   0.647489 0.523117 0.026674 -0.095400
C45   C     C_R   0.517257 0.431160 0.703583 -0.016584
C46   C     C_R   0.352532 0.477036 0.973328 -0.095414
C47   C     C_R   0.646284 0.523547 0.966913 -0.043962
C48   C     C_R   0.353737 0.476608 0.033088 -0.043966
C49   C     C_2   0.333998 0.757757 0.534806 0.563306
C50   C     C_2   0.665995 0.242252 0.465174 0.563274
C51   C     C_2   0.097292 0.594835 0.568525 0.568378
C52   C     C_2   0.902707 0.405171 0.431471 0.568372
C53   C     C_2   0.727079 0.526688 0.937319 0.539221
C54   C     C_2   0.272945 0.473454 0.062682 0.539244
C55   C     C_2   0.548421 0.352324 0.677311 0.480639
C56   C     C_R   0.482769 0.568893 0.296438 -0.016526
C57   C     C_2   0.451615 0.647715 0.322732 0.480549
C58   C     C_2   0.443850 0.649129 0.666960 0.626753
C59   C     C_2   0.556128 0.350894 0.333003 0.626747
C60   C     C_R   0.494436 0.501808 0.672352 -0.161573
C61   C     C_R   0.505562 0.498222 0.327648 -0.161573
C62   C     C_R   0.466112 0.575109 0.700767 -0.214811
Cl1   Cl    Cl    0.279748 0.586545 0.588486 -0.524745
Cl2   Cl    Cl    0.720252 0.413462 0.411510 -0.524744
Cl3   Cl    Cl    0.434854 0.666608 0.800718 -0.435370
Cl4   Cl    Cl    0.565134 0.333489 0.199239 -0.435387
Cl5   Cl    Cl    0.383277 0.281968 0.583387 -0.467229
Cl6   Cl    Cl    0.616724 0.718014 0.416603 -0.467373
Cl7   Cl    Cl    0.389126 0.093233 0.586949 -0.445815
Cl8   Cl    Cl    0.610873 0.906748 0.413018 -0.445825
H1    H     H_    0.705482 0.529620 0.048695 0.228960
H2    H     H_    0.644906 0.087921 0.476364 0.234902
H3    H     H_    0.306680 0.707449 0.514934 0.124143
H4    H     H_    0.693322 0.292548 0.485055 0.124125
H5    H     H_    0.053182 0.572441 0.597849 0.078782
H6    H     H_    0.946816 0.427569 0.402147 0.078791
H7    H     H_    0.740565 0.493092 0.897823 0.117145
H8    H     H_    0.259447 0.507061 0.102172 0.117138
H9    H     H_    0.550222 0.298184 0.702658 0.091062
H10   H     H_    0.449931 0.701887 0.297426 0.091129
H11   H     H_    0.469114 0.654663 0.624374 -0.021708
H12   H     H_    0.294540 0.470527 0.951307 0.228952
H13   H     H_    0.530869 0.345346 0.375590 -0.021677
H14   H     H_    0.865289 0.587247 0.586252 0.180811
H15   H     H_    0.134711 0.412745 0.413752 0.180813
H16   H     H_    0.713071 0.587569 0.579545 0.161548
H17   H     H_    0.286929 0.412425 0.420458 0.161546
H18   H     H_    0.528877 0.381648 0.787801 0.154603
H19   H     H_    0.471186 0.618463 0.212235 0.154618
H20   H     H_    0.355094 0.912084 0.523604 0.234911
N1    N     N_R   0.511364 0.492083 0.147925 -0.331098
N2    N     N_R   0.488659 0.508053 0.852077 -0.331090
N3    N     N_2   0.472104 0.991479 0.483252 -0.086432
N4    N     N_2   0.527900 0.008516 0.516713 -0.086426
N5    N     N_R   0.716910 0.509720 0.507000 -0.126577
N6    N     N_R   0.283090 0.490280 0.493000 -0.126576
N7    N     N_2   0.978193 0.505439 0.522035 -0.176622
N8    N     N_2   0.021807 0.494559 0.477966 -0.176619
O1    O     O_R   0.422540 0.612660 0.497490 -0.613295
O2    O     O_2   0.624057 0.544665 0.845466 -0.551637
O3    O     O_2   0.650075 0.522031 0.145734 -0.498423
O4    O     O_2   0.349951 0.478096 0.854268 -0.498419
O5    O     O_2   0.301080 0.790023 0.577323 -0.445325
O6    O     O_2   0.698896 0.210004 0.422646 -0.445330
O7    O     O_2   0.106225 0.666812 0.568792 -0.479130
O8    O     O_2   0.893776 0.333194 0.431201 -0.479146
O9    O     O_2   0.780941 0.565034 0.957975 -0.511368
O10   O     O_2   0.219101 0.435079 0.042032 -0.511351
O11   O     O_2   0.574845 0.346475 0.628445 -0.575075
O12   O     O_R   0.577460 0.387340 0.502510 -0.613313
O13   O     O_2   0.425056 0.653517 0.371566 -0.575049
O14   O     O_2   0.395371 0.703802 0.685224 -0.411317
O15   O     O_2   0.604590 0.296217 0.314723 -0.411332
O16   O     O_R   0.561840 0.618900 0.501990 -0.580364
O17   O     O_R   0.438160 0.381100 0.498010 -0.580376
O18   O     O_R   0.430330 0.496900 0.581600 -0.549352
O19   O     O_R   0.569670 0.503100 0.418400 -0.549367
O20   O     O_R   0.569640 0.503140 0.586090 -0.612829
O21   O     O_R   0.430360 0.496860 0.413910 -0.612761
O22   O     O_2   0.375958 0.455492 0.154535 -0.551633
Zn1   Zn    Zn3+2 0.406980 0.495830 0.497000 1.054020
Zn2   Zn    Zn3+2 0.593020 0.504170 0.503000 1.053982

loop_
_geom_bond_atom_site_label_1
_geom_bond_atom_site_label_2
_ccdc_geom_bond_type
C58   C62   S    
C4    Cl4   S    
C45   C60   A    
C50   O6    D    
N3    N4    D    
O17   Zn1   S    
C27   C29   A    
C22   N5    A    
C14   C18   A    
C2    C4    A    
C49   H3    S    
C1    O1    A    
C15   N4    S    
C12   O12   A    
N7    N8    D    
C11   Cl8   S    
C39   C41   A    
C10   Cl5   S    
C34   C56   A    
C13   Cl7   S    
N6    Zn1   S    
C23   C45   A    
C33   C42   A    
C19   C21   A    
C51   H5    S    
C15   C19   A    
C24   N6    A    
C16   C60   S    
C37   O4    S    
C11   C14   A    
C6    N1    S    
C56   C57   S    
C44   H1    S    
C60   C62   A    
O20   Zn2   S    
C17   C61   S    
C46   H12   S    
O1    Zn1   S    
C22   C25   A    
C35   C43   A    
C14   N3    S    
C2    C61   A    
C51   O7    D    
C47   C53   S    
C12   O17   A    
C35   N2    A    
C40   C42   A    
C52   O8    D    
C31   H16   S    
C55   O11   D    
C41   C43   A    
C57   H10   S    
C19   H2    S    
C3    Cl3   S    
C16   O18   A    
C21   C50   S    
C9    Cl6   S    
O21   Zn1   S    
C46   C48   A    
O18   Zn1   S    
C18   H20   S    
C29   H14   S    
C4    C6    A    
C58   H11   S    
C2    C59   S    
C3    C5    A    
C32   H17   S    
C6    C34   A    
C36   O3    S    
C48   C54   S    
C53   H7    S    
O19   Zn2   S    
C38   C44   A    
C20   C49   S    
C59   H13   S    
C16   O20   A    
C55   H9    S    
C53   O9    D    
C5    C23   A    
C8    C12   S    
C8    C21   A    
C42   C48   A    
C30   H15   S    
C9    C11   A    
C39   C46   A    
C36   N1    A    
C8    C10   A    
C40   C41   A    
C32   N6    A    
C24   Cl1   S    
C23   H18   S    
C13   C15   A    
C58   O14   D    
C1    O16   A    
C35   O2    S    
N5    Zn2   S    
C3    C62   A    
C28   N8    S    
C7    C9    A    
C27   N7    S    
C37   N2    A    
C1    C7    S    
C24   C26   A    
C59   O15   D    
C52   H6    S    
C10   C13   A    
C49   O5    D    
C44   C47   A    
C17   O19   A    
C25   C27   A    
C26   C28   A    
C54   O10   D    
C50   H4    S    
C34   H19   S    
C28   C30   A    
C29   C31   A    
C26   C51   S    
O12   Zn2   S    
C30   C32   A    
C57   O13   D    
C38   C40   A    
C31   N5    A    
C36   C38   A    
C18   C20   A    
C25   C52   S    
C5    N2    S    
C17   O21   A    
C22   Cl2   S    
O16   Zn2   S    
C45   C55   S    
C33   O22   S    
C37   C39   A    
C7    C20   A    
C56   C61   A    
C43   C47   A    
C54   H8    S    
C33   N1    A    
