data_mof_unit_40004.cif
_audit_creation_date              2012-12-10T20:31:57-0500
_audit_creation_method            fapswitch 2.2
_symmetry_space_group_name_H-M    P1
_symmetry_Int_Tables_number       1
_space_group_crystal_system       triclinic
_cell_length_a                    9.873177
_cell_length_b                    10.686454
_cell_length_c                    15.441723
_cell_angle_alpha                 90.071531
_cell_angle_beta                  67.664068
_cell_angle_gamma                 90.031082
_cell_volume                      1507.0037908

loop_
_atom_site_label
_atom_site_type_symbol
_atom_type_description
_atom_site_fract_x
_atom_site_fract_y
_atom_site_fract_z
_atom_type_partial_charge
C1    C     C_R   0.500794 0.739908 0.498690 0.877402
C2    C     C_R   0.707148 0.384431 0.043945 0.154524
C3    C     C_R   0.572916 0.447153 0.092206 0.050606
C4    C     C_R   0.408199 0.497460 0.676219 0.863218
C5    C     C_R   0.808182 0.368022 0.086780 -0.224247
C6    C     C_R   0.774959 0.410830 0.177763 -0.260982
C7    C     C_R   0.555742 0.511365 0.175573 0.035371
C8    C     C_R   0.376060 0.936432 0.504964 0.086397
C9    C     C_R   0.505479 0.871615 0.488975 -0.106384
C10   C     C_R   0.639757 0.935224 0.457921 -0.216659
C11   C     C_R   0.640082 0.064720 0.456798 -0.223482
C12   C     C_R   0.400297 0.440596 0.916882 0.095756
C13   C     C_R   0.506144 0.128625 0.486182 -0.091312
C14   C     C_R   0.376610 0.063930 0.502047 0.084287
C15   C     C_3   0.230921 0.075069 0.581139 -0.461824
C16   C     C_R   0.501248 0.260147 0.497676 0.879272
C17   C     C_3   0.230647 0.932970 0.585961 -0.108885
C18   C     C_R   0.899683 0.588394 0.549449 0.220058
C19   C     C_R   0.961023 0.420243 0.444445 -0.144765
C20   C     C_R   0.104933 0.420163 0.444490 -0.139146
C21   C     C_R   0.042235 0.588407 0.549378 0.209123
C22   C     C_3   0.987107 0.608485 0.652483 -0.534311
C23   C     C_R   0.254860 0.476780 0.972731 0.175702
C24   C     C_3   0.833456 0.608556 0.652723 -0.486549
C25   C     C_R   0.591567 0.500124 0.323756 0.889988
C26   C     C_R   0.349506 0.484682 0.777943 -0.060693
C27   C     C_R   0.647328 0.480691 0.222748 -0.049555
C28   C     C_R   0.156469 0.509350 0.930575 -0.209233
C29   C     C_R   0.204068 0.514392 0.833313 -0.206000
C30   C     C_R   0.443874 0.443101 0.819758 -0.265674
C31   C     C_R   0.501383 0.413728 0.959371 0.074713
C32   C     C_R   0.462814 0.445642 0.054476 0.065872
C33   C     C_R   0.313979 0.467835 0.110111 -0.245491
C34   C     C_R   0.211097 0.482736 0.069668 -0.248152
C35   C     C_R   0.639320 0.357289 0.910566 -0.233551
C36   C     C_R   0.738302 0.339007 0.953759 -0.224514
H1    H     H_    0.098676 0.503996 0.113976 0.153996
H2    H     H_    0.008977 0.527218 0.690117 0.214503
H3    H     H_    0.019945 0.700744 0.671228 0.204622
H4    H     H_    0.767791 0.527472 0.690956 0.215097
H5    H     H_    0.777956 0.700830 0.671373 0.201542
H6    H     H_    0.846924 0.387143 0.213554 0.160213
H7    H     H_    0.840954 0.291727 0.915645 0.150071
H8    H     H_    0.044928 0.536230 0.972703 0.153953
H9    H     H_    0.129001 0.545198 0.801754 0.152770
H10   H     H_    0.554258 0.419663 0.774995 0.147173
H11   H     H_    0.274819 0.470096 0.185439 0.152644
H12   H     H_    0.909283 0.317125 0.051672 0.152795
H13   H     H_    0.670565 0.320466 0.840577 0.144509
H14   H     H_    0.331404 0.923645 0.681885 0.200224
H15   H     H_    0.250864 0.790057 0.668824 0.191036
H16   H     H_    0.454747 0.665795 0.147207 0.197585
H17   H     H_    0.363682 0.600497 0.254801 0.201461
H18   H     H_    0.742789 0.885814 0.439202 0.167418
H19   H     H_    0.743216 0.114064 0.437897 0.162263
H20   H     H_    0.237618 0.123260 0.643325 0.203847
H21   H     H_    0.145922 0.112752 0.557374 0.185447
H22   H     H_    0.142255 0.888108 0.568789 0.164744
H23   H     H_    0.932477 0.354146 0.401014 0.139014
H24   H     H_    0.184889 0.353940 0.401104 0.149610
N1    N     N_R   0.856900 0.500860 0.500610 -0.103382
N2    N     N_R   0.142540 0.500820 0.500610 -0.102971
N3    N     N_3   0.238723 0.887240 0.673423 -0.446547
N4    N     N_3   0.466492 0.622246 0.204542 -0.465968
O1    O     O_R   0.385310 0.683210 0.499990 -0.617280
O2    O     O_R   0.614650 0.683240 0.500000 -0.617801
O3    O     O_R   0.319830 0.499970 0.632240 -0.618096
O4    O     O_R   0.549170 0.500000 0.632250 -0.613720
O5    O     O_R   0.385350 0.316760 0.500000 -0.614573
O6    O     O_R   0.614690 0.316790 0.500010 -0.622763
O7    O     O_R   0.450830 0.500000 0.367750 -0.611959
O8    O     O_R   0.680170 0.500030 0.367760 -0.622025
Zn1   Zn    Zn3+2 0.346870 0.499980 0.499990 0.935320
Zn2   Zn    Zn3+2 0.653130 0.500020 0.500010 0.934346

loop_
_geom_bond_atom_site_label_1
_geom_bond_atom_site_label_2
_ccdc_geom_bond_type
H14   N3    S    
C18   C21   A    
C35   C36   A    
C7    C27   A    
C12   C23   A    
C18   C24   S    
C28   C29   A    
C3    C7    A    
C5    C6    A    
H17   N4    S    
O4    Zn2   S    
C22   H2    S    
O1    Zn1   S    
C31   C32   A    
C8    C9    A    
O6    Zn2   S    
C1    O1    A    
N2    Zn1   S    
O5    Zn1   S    
C25   O7    A    
C20   H24   S    
C9    C10   A    
C17   H22   S    
C13   C14   A    
C24   H5    S    
C15   H21   S    
C33   C34   A    
C5    H12   S    
C1    C9    S    
H15   N3    S    
O8    Zn2   S    
H16   N4    S    
O7    Zn1   S    
C19   H23   S    
C28   H8    S    
C32   C33   A    
C29   H9    S    
C35   H13   S    
C6    C27   A    
C23   C34   A    
C1    O2    A    
C16   O6    A    
C25   O8    A    
C23   C28   A    
C21   N2    A    
O3    Zn1   S    
C26   C30   A    
C12   C31   A    
C33   H11   S    
C31   C35   A    
C2    C5    A    
C11   H19   S    
C4    O4    A    
C2    C36   A    
C15   C17   S    
C8    C14   A    
C12   C30   A    
C30   H10   S    
C16   O5    A    
C4    O3    A    
C4    C26   S    
C18   N1    A    
C34   H1    S    
N1    Zn2   S    
C25   C27   S    
C8    C17   S    
C15   H20   S    
C19   C20   A    
C2    C3    A    
C17   N3    S    
C11   C13   A    
C19   N1    A    
C22   H3    S    
C24   H4    S    
C22   C24   S    
C20   N2    A    
C3    C32   A    
C10   H18   S    
C7    N4    S    
C10   C11   A    
C26   C29   A    
C6    H6    S    
C13   C16   S    
C14   C15   S    
C36   H7    S    
C21   C22   S    
O2    Zn2   S    
