data_mof_unit_46028.cif
_audit_creation_date              2012-12-10T17:56:11-0500
_audit_creation_method            fapswitch 2.2
_symmetry_space_group_name_H-M    P1
_symmetry_Int_Tables_number       1
_space_group_crystal_system       triclinic
_cell_length_a                    21.647805
_cell_length_b                    21.652703
_cell_length_c                    21.6502
_cell_angle_alpha                 90.240051
_cell_angle_beta                  89.788745
_cell_angle_gamma                 90.048371
_cell_volume                      10148.0123216

loop_
_atom_site_label
_atom_site_type_symbol
_atom_type_description
_atom_site_fract_x
_atom_site_fract_y
_atom_site_fract_z
_atom_type_partial_charge
C1    C     C_R   0.500011 0.119817 0.000237 1.107732
C2    C     C_R   0.879922 0.499891 0.999877 1.085607
C3    C     C_3   0.595120 0.169858 0.887987 -0.207753
C4    C     C_3   0.386741 0.902548 0.175257 -0.196768
C5    C     C_3   0.402274 0.172624 0.111795 -0.189849
C6    C     C_3   0.377969 0.087150 0.823463 -0.186943
C7    C     C_3   0.469901 0.806105 0.848339 -0.149712
C8    C     C_3   0.111069 0.829933 0.404412 -0.193760
C9    C     C_3   0.825578 0.899278 0.389911 -0.177153
C10   C     C_3   0.894244 0.172195 0.397225 -0.190233
C11   C     C_3   0.175203 0.099435 0.389251 -0.186429
C12   C     C_3   0.888027 0.828190 0.597175 -0.186030
C13   C     C_R   0.000209 0.500196 0.120122 1.082996
C14   C     C_3   0.174103 0.900927 0.610361 -0.175468
C15   C     C_3   0.105499 0.173917 0.604421 -0.191043
C16   C     C_3   0.825849 0.101118 0.609194 -0.189673
C17   C     C_3   0.822784 0.625874 0.917810 -0.205971
C18   C     C_3   0.857591 0.573758 0.201708 -0.206888
C19   C     C_3   0.173141 0.605850 0.104388 -0.207242
C20   C     C_3   0.094736 0.615984 0.823873 -0.190102
C21   C     C_3   0.798819 0.432490 0.145043 -0.209205
C22   C     C_3   0.905818 0.383609 0.823940 -0.204460
C23   C     C_3   0.174577 0.392713 0.896050 -0.199035
C24   C     C_R   0.119879 0.500011 0.999797 1.105057
C25   C     C_3   0.077513 0.370437 0.177930 -0.196632
C26   C     C_3   0.072062 0.621468 0.669056 -0.254972
C27   C     C_3   0.086057 0.329491 0.613475 -0.256405
C28   C     C_3   0.060361 0.371556 0.332912 -0.278592
C29   C     C_3   0.105531 0.674243 0.399309 -0.233397
C30   C     C_3   0.925730 0.379308 0.668677 -0.262557
C31   C     C_3   0.907971 0.672592 0.609428 -0.251150
C32   C     C_3   0.947821 0.634578 0.323798 -0.268092
C33   C     C_3   0.908118 0.327363 0.390266 -0.274772
C34   C     C_3   0.602177 0.325585 0.896905 -0.238768
C35   C     C_R   0.000147 0.620517 0.500202 0.925357
C36   C     C_3   0.329968 0.383181 0.919531 -0.246703
C37   C     C_3   0.375395 0.682062 0.923768 -0.236019
C38   C     C_3   0.667519 0.625221 0.931746 -0.289334
C39   C     C_3   0.389054 0.328343 0.089608 -0.243375
C40   C     C_3   0.677517 0.367222 0.056494 -0.263497
C41   C     C_3   0.617015 0.669944 0.083331 -0.286350
C42   C     C_3   0.328891 0.612084 0.089121 -0.249296
C43   C     C_3   0.330586 0.080345 0.382964 -0.260922
C44   C     C_3   0.377159 0.070498 0.668576 -0.268203
C45   C     C_3   0.670245 0.085978 0.614432 -0.261020
C46   C     C_R   0.999889 0.500023 0.620362 0.916557
C47   C     C_3   0.619008 0.077042 0.330496 -0.262234
C48   C     C_3   0.329281 0.916730 0.615285 -0.268333
C49   C     C_3   0.381563 0.921591 0.330632 -0.265028
C50   C     C_3   0.670353 0.918324 0.383379 -0.259375
C51   C     C_3   0.624739 0.932476 0.666130 -0.259727
C52   C     C_R   0.999904 0.379537 0.500349 0.906090
C53   C     C_R   0.000121 0.499621 0.379786 0.950857
C54   C     C_R   0.620253 0.500357 0.999834 0.943659
C55   C     C_R   0.499782 0.379487 0.999761 0.924775
C56   C     C_R   0.379562 0.500007 0.000182 0.925260
C57   C     C_R   0.499910 0.999997 0.119932 1.107501
C58   C     C_R   0.500056 0.620368 0.000200 0.927389
C59   C     C_R   0.500053 0.999887 0.379615 0.912285
C60   C     C_R   0.379592 0.999945 0.499847 0.909211
C61   C     C_R   0.499979 0.000160 0.620308 0.918456
C62   C     C_R   0.620416 0.000078 0.499760 0.907586
C63   C     C_R   0.528557 0.048707 0.216912 0.369051
C64   C     C_R   0.529182 0.783541 0.048769 0.375827
C65   C     C_R   0.535914 0.956611 0.782510 0.353745
C66   C     C_R   0.519595 0.215988 0.946810 0.372335
C67   C     C_R   0.471381 0.951004 0.216675 0.377631
C68   C     C_R   0.499943 0.880037 0.000125 1.102595
C69   C     C_R   0.478155 0.216705 0.052190 0.367134
C70   C     C_R   0.467545 0.046764 0.783248 0.378294
C71   C     C_R   0.471383 0.782705 0.951587 0.332539
C72   C     C_R   0.053015 0.783720 0.480218 0.366935
C73   C     C_R   0.783344 0.950147 0.473084 0.367503
C74   C     C_R   0.948584 0.216324 0.476843 0.369001
C75   C     C_R   0.216865 0.049382 0.472464 0.372970
C76   C     C_R   0.947472 0.783586 0.521220 0.366850
C77   C     C_R   0.216551 0.950375 0.526798 0.367397
C78   C     C_R   0.050900 0.216714 0.524718 0.370366
C79   C     C_R   0.500211 0.000414 0.879987 1.098016
C80   C     C_R   0.783305 0.050061 0.526560 0.371915
C81   C     C_R   0.783114 0.535218 0.955649 0.384163
C82   C     C_R   0.957614 0.537873 0.217914 0.345064
C83   C     C_R   0.216292 0.524841 0.050974 0.376581
C84   C     C_R   0.047933 0.529967 0.783019 0.374796
C85   C     C_R   0.782368 0.464032 0.043776 0.344892
C86   C     C_R   0.951994 0.469792 0.783191 0.379677
C87   C     C_R   0.216892 0.473863 0.949753 0.373256
C88   C     C_R   0.042861 0.462909 0.216948 0.385479
C89   C     C_R   0.046756 0.532233 0.718869 0.401142
C90   C     C_R   0.119906 0.000042 0.499910 1.110184
C91   C     C_R   0.050065 0.280842 0.527054 0.406561
C92   C     C_R   0.042345 0.461403 0.281125 0.387800
C93   C     C_R   0.053369 0.719621 0.479758 0.399420
C94   C     C_R   0.952669 0.468150 0.718986 0.402330
C95   C     C_R   0.948440 0.719535 0.524255 0.406125
C96   C     C_R   0.958998 0.538552 0.282542 0.366086
C97   C     C_R   0.948854 0.280443 0.475331 0.406145
C98   C     C_R   0.520591 0.280114 0.946624 0.400087
C99   C     C_R   0.281009 0.471088 0.951027 0.403446
C100  C     C_R   0.469393 0.718367 0.953078 0.375207
C101  C     C_R   0.999723 0.880189 0.499889 1.110746
C102  C     C_R   0.718930 0.536409 0.955777 0.390915
C103  C     C_R   0.474850 0.280751 0.051014 0.405244
C104  C     C_R   0.717756 0.463095 0.042289 0.368441
C105  C     C_R   0.530634 0.719345 0.048592 0.396469
C106  C     C_R   0.280463 0.526385 0.050742 0.400913
C107  C     C_R   0.281031 0.048634 0.470569 0.404333
C108  C     C_R   0.466430 0.046259 0.719030 0.398436
C109  C     C_R   0.719138 0.049764 0.527859 0.402578
C110  C     C_R   0.530626 0.047801 0.281046 0.402579
C111  C     C_R   0.280694 0.950800 0.528289 0.403389
C112  C     C_R   0.880102 0.999891 0.500087 1.110735
C113  C     C_R   0.469730 0.951623 0.280869 0.403066
C114  C     C_R   0.719214 0.950968 0.470965 0.404198
C115  C     C_R   0.535840 0.956183 0.718368 0.396574
C116  C     C_R   0.500186 0.999706 0.313051 -0.444595
C117  C     C_R   0.500618 0.686895 0.000486 -0.425105
C118  C     C_R   0.500492 0.000680 0.686720 -0.437218
C119  C     C_R   0.498402 0.312714 0.999075 -0.451797
C120  C     C_R   0.000686 0.687290 0.501433 -0.453421
C121  C     C_R   0.687032 0.000290 0.499531 -0.448763
C122  C     C_R   0.999595 0.312850 0.500907 -0.450682
C123  C     C_R   0.000109 0.119858 0.500116 1.114357
C124  C     C_R   0.312994 0.999782 0.499559 -0.447380
C125  C     C_R   0.686596 0.500677 0.999628 -0.417192
C126  C     C_R   0.000159 0.499194 0.313513 -0.414659
C127  C     C_R   0.312906 0.499196 0.000681 -0.444835
C128  C     C_R   0.999699 0.500188 0.686883 -0.440612
C129  C     C_R   0.000100 0.499702 0.814237 -0.429084
C130  C     C_R   0.999945 0.185479 0.500408 -0.438583
C131  C     C_R   0.000342 0.500575 0.186246 -0.404199
C132  C     C_R   0.999815 0.814650 0.499763 -0.437178
C133  C     C_R   0.499885 0.185358 0.999987 -0.431804
C134  C     C_R   0.000080 0.499889 0.880044 1.104519
C135  C     C_R   0.185544 0.499937 0.999991 -0.426643
C136  C     C_R   0.499939 0.814222 0.000246 -0.401670
C137  C     C_R   0.813875 0.499642 0.999792 -0.401715
C138  C     C_R   0.185618 0.999945 0.499729 -0.443333
C139  C     C_R   0.501006 0.001136 0.814087 -0.429677
C140  C     C_R   0.814404 0.999890 0.500196 -0.442917
C141  C     C_R   0.499782 0.999981 0.185687 -0.437314
C142  C     C_3   0.613390 0.097129 0.175564 -0.179878
C143  C     C_3   0.613686 0.825720 0.096747 -0.204520
C144  C     C_3   0.628544 0.923195 0.821286 -0.236785
H1    H     H_    0.632347 0.049225 0.174346 0.105195
H2    H     H_    0.620487 0.170483 0.932770 0.111831
H3    H     H_    0.292792 0.357368 0.944075 0.093483
H4    H     H_    0.371837 0.384636 0.948777 0.151099
H5    H     H_    0.341839 0.356645 0.877204 0.201806
H6    H     H_    0.353999 0.728464 0.929457 0.171781
H7    H     H_    0.369245 0.654458 0.966408 0.115409
H8    H     H_    0.350414 0.657812 0.886163 0.194888
H9    H     H_    0.699682 0.647453 0.965236 0.093122
H10   H     H_    0.621371 0.619931 0.953066 0.161453
H11   H     H_    0.662371 0.657174 0.892196 0.191025
H12   H     H_    0.361876 0.290487 0.067707 0.093944
H13   H     H_    0.617166 0.202752 0.855544 0.168003
H14   H     H_    0.387198 0.369904 0.059951 0.152710
H15   H     H_    0.366044 0.340209 0.133942 0.200617
H16   H     H_    0.722734 0.345526 0.044948 0.167732
H17   H     H_    0.647842 0.369454 0.014948 0.123403
H18   H     H_    0.653877 0.337041 0.090457 0.193398
H19   H     H_    0.642123 0.702553 0.052407 0.093061
H20   H     H_    0.616017 0.623378 0.062089 0.166645
H21   H     H_    0.644052 0.666327 0.126578 0.187451
H22   H     H_    0.295212 0.638061 0.060339 0.089365
H23   H     H_    0.374884 0.612709 0.066570 0.172788
H24   H     H_    0.600380 0.122921 0.867898 0.173331
H25   H     H_    0.333364 0.637251 0.133606 0.193227
H26   H     H_    0.296067 0.051229 0.358189 0.088017
H27   H     H_    0.375465 0.055943 0.384324 0.162587
H28   H     H_    0.337477 0.122853 0.355366 0.194836
H29   H     H_    0.355130 0.037506 0.701370 0.088901
H30   H     H_    0.381634 0.048561 0.622570 0.163646
H31   H     H_    0.345351 0.110273 0.663540 0.193951
H32   H     H_    0.703921 0.056548 0.639677 0.086107
H33   H     H_    0.624335 0.063415 0.614535 0.168500
H34   H     H_    0.665583 0.129824 0.640697 0.192329
H35   H     H_    0.367756 0.950443 0.174548 0.107422
H36   H     H_    0.643075 0.047381 0.295768 0.089987
H37   H     H_    0.616499 0.052541 0.375194 0.161837
H38   H     H_    0.647936 0.118738 0.337690 0.194407
H39   H     H_    0.295865 0.947301 0.640022 0.090568
H40   H     H_    0.375469 0.938699 0.614816 0.167200
H41   H     H_    0.333285 0.873598 0.642425 0.190047
H42   H     H_    0.357393 0.951360 0.296495 0.089096
H43   H     H_    0.383756 0.945758 0.375711 0.163395
H44   H     H_    0.352901 0.879642 0.337269 0.193550
H45   H     H_    0.704931 0.947419 0.358647 0.089022
H46   H     H_    0.362964 0.875078 0.211348 0.172311
H47   H     H_    0.625304 0.942465 0.384620 0.163653
H48   H     H_    0.663979 0.875529 0.355795 0.194854
H49   H     H_    0.646437 0.966850 0.697809 0.090962
H50   H     H_    0.619385 0.953066 0.619861 0.164355
H51   H     H_    0.657246 0.893170 0.661316 0.188949
H52   H     H_    0.375746 0.880997 0.130029 0.174900
H53   H     H_    0.377466 0.169701 0.066793 0.109096
H54   H     H_    0.380405 0.208233 0.141633 0.175594
H55   H     H_    0.396312 0.127484 0.135153 0.171211
H56   H     H_    0.363058 0.037795 0.822813 0.110005
H57   H     H_    0.637062 0.124576 0.211796 0.171514
H58   H     H_    0.352893 0.113357 0.787527 0.169889
H59   H     H_    0.364063 0.106649 0.868893 0.169241
H60   H     H_    0.451481 0.764046 0.825477 0.199818
H61   H     H_    0.521214 0.803356 0.851685 0.175153
H62   H     H_    0.458502 0.845613 0.818023 0.186015
H63   H     H_    0.066253 0.828120 0.379132 0.106648
H64   H     H_    0.144403 0.797998 0.382010 0.163795
H65   H     H_    0.129714 0.877403 0.399412 0.176490
H66   H     H_    0.826725 0.946615 0.369746 0.103451
H67   H     H_    0.789750 0.871098 0.366527 0.170891
H68   H     H_    0.624533 0.118697 0.130478 0.171016
H69   H     H_    0.870906 0.877510 0.379829 0.172213
H70   H     H_    0.940554 0.172153 0.374399 0.106734
H71   H     H_    0.863894 0.206466 0.374550 0.168523
H72   H     H_    0.873502 0.125947 0.389454 0.173014
H73   H     H_    0.174059 0.051888 0.369192 0.104223
H74   H     H_    0.211270 0.127274 0.365795 0.172363
H75   H     H_    0.130004 0.121220 0.379138 0.171193
H76   H     H_    0.933035 0.830614 0.622026 0.106612
H77   H     H_    0.857883 0.792990 0.619004 0.173263
H78   H     H_    0.865050 0.873619 0.603173 0.172161
H79   H     H_    0.632893 0.825403 0.048831 0.107680
H80   H     H_    0.174063 0.948513 0.630374 0.102494
H81   H     H_    0.209253 0.872286 0.633896 0.169030
H82   H     H_    0.128278 0.880254 0.620492 0.172243
H83   H     H_    0.059057 0.172126 0.626883 0.107057
H84   H     H_    0.134309 0.209736 0.627100 0.173232
H85   H     H_    0.128052 0.128687 0.612520 0.171525
H86   H     H_    0.825964 0.053903 0.629680 0.103943
H87   H     H_    0.790752 0.130158 0.632824 0.168590
H88   H     H_    0.871697 0.121989 0.618637 0.172352
H89   H     H_    0.821616 0.639681 0.967531 0.111671
H90   H     H_    0.637513 0.790531 0.125066 0.171292
H91   H     H_    0.786865 0.651315 0.891902 0.172300
H92   H     H_    0.868254 0.640468 0.899075 0.168759
H93   H     H_    0.845201 0.613832 0.231358 0.202210
H94   H     H_    0.845259 0.530096 0.225829 0.143076
H95   H     H_    0.829013 0.576672 0.159398 0.145724
H96   H     H_    0.172817 0.627650 0.057772 0.114406
H97   H     H_    0.208219 0.628694 0.133895 0.172639
H98   H     H_    0.127309 0.614653 0.125761 0.178238
H99   H     H_    0.046452 0.633956 0.825326 0.110070
H100  H     H_    0.121456 0.639873 0.787267 0.175474
H101  H     H_    0.624416 0.871546 0.117185 0.171660
H102  H     H_    0.116427 0.627938 0.868712 0.169142
H103  H     H_    0.768777 0.393353 0.158940 0.203400
H104  H     H_    0.775184 0.476972 0.155705 0.142081
H105  H     H_    0.841118 0.430131 0.173697 0.146124
H106  H     H_    0.954207 0.365887 0.824564 0.110769
H107  H     H_    0.878978 0.359470 0.787585 0.174311
H108  H     H_    0.884523 0.371641 0.869023 0.175359
H109  H     H_    0.172245 0.371248 0.942769 0.112838
H110  H     H_    0.210857 0.369793 0.867865 0.176888
H111  H     H_    0.129663 0.383719 0.873172 0.169116
H112  H     H_    0.640051 0.973411 0.819141 0.123669
H113  H     H_    0.027325 0.358602 0.178640 0.110348
H114  H     H_    0.102128 0.344580 0.214432 0.173542
H115  H     H_    0.096232 0.354440 0.132860 0.167335
H116  H     H_    0.043480 0.645282 0.704820 0.091802
H117  H     H_    0.045334 0.617388 0.625749 0.154198
H118  H     H_    0.112483 0.651419 0.659247 0.198955
H119  H     H_    0.058921 0.294249 0.639398 0.088872
H120  H     H_    0.060827 0.373961 0.613992 0.162306
H121  H     H_    0.129929 0.336816 0.638778 0.195863
H122  H     H_    0.026576 0.350765 0.300107 0.090912
H123  H     H_    0.655376 0.897497 0.785853 0.171911
H124  H     H_    0.037971 0.379102 0.378241 0.157915
H125  H     H_    0.097805 0.337367 0.339796 0.197411
H126  H     H_    0.076273 0.705557 0.370974 0.083404
H127  H     H_    0.089569 0.625951 0.393295 0.180094
H128  H     H_    0.153193 0.676774 0.380510 0.188639
H129  H     H_    0.955688 0.355705 0.703041 0.090135
H130  H     H_    0.950567 0.382777 0.624075 0.160252
H131  H     H_    0.884795 0.349455 0.660977 0.196183
H132  H     H_    0.931878 0.709367 0.636459 0.092005
H133  H     H_    0.935047 0.629269 0.611885 0.159214
H134  H     H_    0.643782 0.906315 0.867076 0.168378
H135  H     H_    0.862877 0.663809 0.632246 0.197416
H136  H     H_    0.960758 0.656030 0.278927 0.166922
H137  H     H_    0.988809 0.630553 0.354015 0.124462
H138  H     H_    0.914630 0.665945 0.347239 0.193008
H139  H     H_    0.937809 0.294108 0.364249 0.091828
H140  H     H_    0.928707 0.374137 0.387895 0.169022
H141  H     H_    0.863023 0.329399 0.366213 0.185700
H142  H     H_    0.630035 0.293456 0.925734 0.085524
H143  H     H_    0.607468 0.373383 0.914605 0.179877
H144  H     H_    0.622097 0.324558 0.849640 0.189877
O1    O     O_R   0.448310 0.091640 0.999960 -0.644155
O2    O     O_R   0.000040 0.908360 0.551690 -0.646327
O3    O     O_R   0.908360 0.999960 0.551690 -0.647547
O4    O     O_R   0.999960 0.091640 0.551690 -0.645541
O5    O     O_R   0.908360 0.000040 0.448310 -0.643858
O6    O     O_R   0.999960 0.908360 0.448310 -0.647907
O7    O     O_R   0.091640 0.999960 0.448310 -0.648432
O8    O     O_R   0.000040 0.091640 0.448310 -0.644963
O9    O     O_R   0.000040 0.448310 0.908360 -0.647259
O10   O     O_R   0.908360 0.448310 0.999960 -0.598631
O11   O     O_R   0.999960 0.448310 0.091640 -0.632741
O12   O     O_R   0.448310 0.000040 0.091640 -0.649566
O13   O     O_R   0.091640 0.448310 0.000040 -0.640752
O14   O     O_R   0.000040 0.551690 0.091640 -0.600832
O15   O     O_R   0.908360 0.551690 0.000040 -0.637047
O16   O     O_R   0.999960 0.551690 0.908360 -0.637864
O17   O     O_R   0.091640 0.551690 0.999960 -0.647781
O18   O     O_R   0.948310 0.591640 0.499960 -0.571549
O19   O     O_R   0.948310 0.500040 0.591640 -0.589385
O20   O     O_R   0.948310 0.408360 0.500040 -0.587967
O21   O     O_R   0.948310 0.499960 0.408360 -0.593933
O22   O     O_R   0.051690 0.408360 0.499960 -0.578995
O23   O     O_R   0.448310 0.908360 0.000040 -0.606631
O24   O     O_R   0.051690 0.499960 0.591640 -0.585716
O25   O     O_R   0.051690 0.591640 0.500040 -0.589816
O26   O     O_R   0.051690 0.500040 0.408360 -0.598400
O27   O     O_R   0.591640 0.500040 0.051690 -0.589563
O28   O     O_R   0.500040 0.408360 0.051690 -0.570429
O29   O     O_R   0.408360 0.499960 0.051690 -0.592594
O30   O     O_R   0.499960 0.591640 0.051690 -0.596855
O31   O     O_R   0.408360 0.500040 0.948310 -0.573689
O32   O     O_R   0.499960 0.408360 0.948310 -0.592298
O33   O     O_R   0.591640 0.499960 0.948310 -0.599823
O34   O     O_R   0.448310 0.999960 0.908360 -0.628421
O35   O     O_R   0.500040 0.591640 0.948310 -0.578524
O36   O     O_R   0.500040 0.948310 0.408360 -0.586245
O37   O     O_R   0.408360 0.948310 0.499960 -0.586782
O38   O     O_R   0.499960 0.948310 0.591640 -0.591838
O39   O     O_R   0.591640 0.948310 0.500040 -0.583089
O40   O     O_R   0.500040 0.051690 0.591640 -0.588927
O41   O     O_R   0.408360 0.051690 0.500040 -0.582287
O42   O     O_R   0.499960 0.051690 0.408360 -0.585053
O43   O     O_R   0.591640 0.051690 0.499960 -0.585354
O44   O     O_3   0.548811 0.100039 0.184551 -0.527029
O45   O     O_R   0.551690 0.908360 0.999960 -0.649157
O46   O     O_3   0.549161 0.816508 0.099972 -0.530631
O47   O     O_3   0.565005 0.909858 0.814782 -0.594562
O48   O     O_3   0.531406 0.183143 0.892963 -0.528509
O49   O     O_3   0.451292 0.899655 0.183953 -0.531810
O50   O     O_3   0.466153 0.184729 0.106262 -0.529265
O51   O     O_3   0.442258 0.095714 0.816152 -0.526239
O52   O     O_3   0.440946 0.815747 0.906112 -0.606829
O53   O     O_3   0.106825 0.816239 0.468046 -0.523180
O54   O     O_3   0.815848 0.898153 0.454430 -0.525234
O55   O     O_3   0.895693 0.183664 0.461477 -0.525829
O56   O     O_R   0.551690 0.999960 0.091640 -0.639820
O57   O     O_3   0.184480 0.101203 0.453764 -0.526286
O58   O     O_3   0.893464 0.815854 0.533289 -0.526328
O59   O     O_3   0.183883 0.898738 0.545856 -0.523267
O60   O     O_3   0.103874 0.184413 0.540117 -0.527502
O61   O     O_3   0.815841 0.102157 0.544782 -0.524431
O62   O     O_3   0.816120 0.561753 0.907564 -0.536409
O63   O     O_3   0.920394 0.577847 0.184253 -0.591737
O64   O     O_3   0.183402 0.541445 0.103533 -0.539480
O65   O     O_3   0.098821 0.551417 0.815398 -0.532622
O66   O     O_3   0.816213 0.425654 0.082449 -0.592847
O67   O     O_R   0.551690 0.091640 0.000040 -0.649611
O68   O     O_3   0.901283 0.448133 0.815891 -0.540152
O69   O     O_3   0.184752 0.457130 0.896987 -0.533840
O70   O     O_3   0.089854 0.434240 0.183913 -0.532935
O71   O     O_3   0.093770 0.563048 0.688198 -0.530057
O72   O     O_3   0.100343 0.311363 0.552236 -0.525043
O73   O     O_3   0.086887 0.427063 0.311297 -0.529366
O74   O     O_3   0.107361 0.689596 0.462822 -0.526225
O75   O     O_3   0.905118 0.438112 0.688480 -0.529541
O76   O     O_3   0.896946 0.689297 0.547341 -0.527330
O77   O     O_3   0.919331 0.576608 0.315560 -0.572996
O78   O     O_R   0.551690 0.000040 0.908360 -0.638003
O79   O     O_3   0.897385 0.310520 0.452430 -0.523127
O80   O     O_3   0.538868 0.309934 0.893095 -0.527546
O81   O     O_3   0.311730 0.443309 0.902041 -0.530303
O82   O     O_3   0.438309 0.686224 0.907303 -0.569639
O83   O     O_3   0.688796 0.567773 0.909100 -0.527153
O84   O     O_3   0.450824 0.311303 0.102032 -0.528987
O85   O     O_3   0.684949 0.426284 0.083053 -0.572600
O86   O     O_3   0.556529 0.689323 0.098582 -0.524478
O87   O     O_3   0.310514 0.550735 0.101721 -0.529886
O88   O     O_3   0.311630 0.097664 0.443160 -0.525593
O89   O     O_R   0.091640 0.000040 0.551690 -0.642506
O90   O     O_3   0.435061 0.092870 0.688740 -0.527368
O91   O     O_3   0.688740 0.100081 0.553400 -0.525222
O92   O     O_3   0.559553 0.096081 0.311627 -0.527957
O93   O     O_3   0.310914 0.901096 0.554590 -0.525668
O94   O     O_3   0.441225 0.903109 0.311269 -0.527545
O95   O     O_3   0.688840 0.901649 0.443630 -0.527497
O96   O     O_3   0.567430 0.909623 0.687606 -0.539068
Zn1   Zn    Zn3+2 0.430960 0.000000 0.000000 0.935195
Zn2   Zn    Zn3+2 0.500000 0.500000 0.930960 1.061724
Zn3   Zn    Zn3+2 0.500000 0.930960 0.500000 1.060413
Zn4   Zn    Zn3+2 0.500000 0.069040 0.500000 1.066707
Zn5   Zn    Zn3+2 0.569040 0.000000 0.000000 0.904220
Zn6   Zn    Zn3+2 0.000000 0.000000 0.569040 0.902292
Zn7   Zn    Zn3+2 0.000000 1.000000 0.430960 0.902007
Zn8   Zn    Zn3+2 0.000000 0.430960 0.000000 0.940537
Zn9   Zn    Zn3+2 0.000000 0.569040 0.000000 0.939926
Zn10  Zn    Zn3+2 0.930960 0.500000 0.500000 1.058978
Zn11  Zn    Zn3+2 0.069040 0.500000 0.500000 1.063524
Zn12  Zn    Zn3+2 0.500000 0.500000 0.069040 1.058747

loop_
_geom_bond_atom_site_label_1
_geom_bond_atom_site_label_2
_ccdc_geom_bond_type
C79   C139  S    
C33   H139  S    
C75   C107  A    
C21   O66   S    
O42   Zn4   S    
C26   O71   S    
C44   H31   S    
C28   O73   S    
C23   H109  S    
C57   O12   A    
C35   C120  S    
C21   H103  S    
C55   C119  S    
C70   O51   S    
C59   O42   A    
O16   Zn9   S    
C112  O5    A    
C61   O40   A    
C37   H7    S    
C90   O89   A    
C10   H71   S    
O67   Zn5   S    
C82   O63   S    
C64   O46   S    
C36   H4    S    
C49   H42   S    
O23   Zn1   S    
C91   C122  A    
O20   Zn10  S    
C52   O20   A    
C28   H125  S    
C93   C120  A    
C53   O21   A    
C66   O48   S    
C18   H93   S    
C35   O25   A    
C102  C125  A    
C61   C118  S    
C30   H131  S    
C38   O83   S    
C107  C124  A    
C7    H62   S    
C83   O64   S    
C101  O2    A    
C43   H26   S    
C62   O39   A    
C72   C132  A    
C54   C125  S    
C14   O59   S    
C143  O46   S    
O21   Zn10  S    
C142  H57   S    
C92   O73   S    
C77   C138  A    
C14   H81   S    
C46   O24   A    
C48   H40   S    
C9    H69   S    
O12   Zn1   S    
C106  C127  A    
C73   C114  A    
C76   O58   S    
C22   H108  S    
C106  O87   S    
C115  C118  A    
O15   Zn9   S    
C1    O1    A    
C123  O4    A    
C11   H74   S    
C16   O61   S    
C24   O13   A    
C33   H141  S    
C17   H89   S    
C41   O86   S    
C144  H123  S    
C4    H35   S    
C32   H137  S    
C67   C141  A    
C110  C116  A    
C42   H23   S    
C8    O53   S    
O1    Zn1   S    
C4    H52   S    
C85   O66   S    
C111  C124  A    
C4    O49   S    
C75   C138  A    
C142  O44   S    
C52   C122  S    
C6    H59   S    
C51   H51   S    
C55   O28   A    
C109  C121  A    
C49   H44   S    
C36   O81   S    
C52   O22   A    
C84   C129  A    
C10   O55   S    
C19   H97   S    
C65   C139  A    
C101  C132  S    
C40   H17   S    
C30   H129  S    
C41   H20   S    
C100  C117  A    
C82   C131  A    
C12   H76   S    
O9    Zn8   S    
O26   Zn11  S    
C20   H99   S    
C64   C136  A    
C9    O54   S    
C112  C140  S    
C37   H6    S    
C47   H37   S    
C35   O18   A    
C105  O86   S    
C65   O47   S    
C44   H30   S    
O56   Zn5   S    
C22   H106  S    
C27   H120  S    
C13   O11   A    
C24   O17   A    
C50   H45   S    
C79   O78   A    
C34   H144  S    
C99   O81   S    
O5    Zn7   S    
C68   O23   A    
C9    H66   S    
C25   H113  S    
C114  O95   S    
C65   C115  A    
C47   O92   S    
O45   Zn5   S    
C38   H11   S    
C1    C133  S    
C90   C138  S    
O40   Zn4   S    
C69   C103  A    
O8    Zn7   S    
C29   H127  S    
C4    H46   S    
C39   O84   S    
C51   H49   S    
C71   C136  A    
C43   H27   S    
C56   O29   A    
C5    H53   S    
C17   O62   S    
C58   C117  S    
C19   O64   S    
C8    H63   S    
C47   H36   S    
C31   O76   S    
C91   O72   S    
C1    O67   A    
C96   C126  A    
C12   H78   S    
C45   H34   S    
C39   H14   S    
C13   O14   A    
C42   O87   S    
C25   H114  S    
C37   H8    S    
C11   H75   S    
C17   H92   S    
O13   Zn8   S    
C15   O60   S    
C111  O93   S    
C33   O79   S    
C90   O7    A    
C16   H87   S    
C43   O88   S    
O30   Zn12  S    
C66   C98   A    
C7    O52   S    
C78   C130  A    
C48   H41   S    
C123  C130  S    
C70   C108  A    
C76   C132  A    
C10   H72   S    
C34   H142  S    
O38   Zn3   S    
O41   Zn4   S    
C25   H115  S    
C26   H116  S    
C3    H13   S    
C112  O3    A    
C38   H10   S    
O78   Zn5   S    
C38   H9    S    
C18   H94   S    
C81   O62   S    
O17   Zn9   S    
C7    H61   S    
C55   O32   A    
O33   Zn2   S    
C56   O31   A    
C5    H55   S    
C26   H117  S    
O43   Zn4   S    
C81   C137  A    
C144  H112  S    
C143  H90   S    
C14   H82   S    
C59   O36   A    
C29   O74   S    
C31   H132  S    
O10   Zn8   S    
C71   O52   S    
O31   Zn2   S    
C68   O45   A    
C77   C111  A    
C77   O59   S    
C114  C121  A    
C104  C125  A    
C108  O90   S    
C59   C116  S    
C80   C109  A    
C53   O26   A    
C2    O15   A    
C50   H48   S    
C11   H73   S    
C57   O56   A    
C103  O84   S    
C33   H140  S    
C70   C139  A    
C15   H85   S    
C142  H1    S    
C105  C117  A    
C23   H110  S    
C32   H138  S    
O3    Zn6   S    
C21   H104  S    
C73   O54   S    
C95   O76   S    
C87   C135  A    
C58   O35   A    
C64   C105  A    
C10   H70   S    
C99   C127  A    
C50   O95   S    
C80   C140  A    
C28   H124  S    
O36   Zn3   S    
C7    H60   S    
C42   H25   S    
C34   O80   S    
C36   H3    S    
O22   Zn11  S    
C49   H43   S    
C27   H119  S    
C63   C141  A    
C86   C129  A    
C54   O33   A    
C45   O91   S    
C85   C104  A    
O14   Zn9   S    
C51   O96   S    
O32   Zn2   S    
C30   H130  S    
C41   H19   S    
C74   O55   S    
C25   O70   S    
C63   O44   S    
C85   C137  A    
C27   O72   S    
C14   H80   S    
C20   H100  S    
C69   O50   S    
C39   H15   S    
C48   O93   S    
C2    C137  S    
C40   H16   S    
C20   O65   S    
C92   C126  A    
C48   H39   S    
O18   Zn10  S    
C67   O49   S    
C94   C128  A    
C95   C120  A    
C71   C100  A    
C83   C106  A    
C57   C141  S    
C15   H84   S    
C40   O85   S    
C22   H107  S    
C6    H56   S    
C18   O63   S    
C27   H121  S    
O27   Zn12  S    
C16   H86   S    
C62   O43   A    
C94   O75   S    
C22   O68   S    
C32   O77   S    
O39   Zn3   S    
C129  C134  S    
O19   Zn10  S    
C100  O82   S    
C15   H83   S    
C109  O91   S    
C144  H134  S    
C37   O82   S    
C78   O60   S    
C42   H22   S    
C89   C128  A    
C93   O74   S    
C11   O57   S    
C142  H68   S    
C144  O47   S    
C98   C119  A    
O7    Zn7   S    
C40   H18   S    
C29   H126  S    
C46   C128  S    
C6    H58   S    
C76   C95   A    
C143  H79   S    
C101  O6    A    
C21   H105  S    
C36   H5    S    
O2    Zn6   S    
C107  O88   S    
C28   H122  S    
O25   Zn11  S    
C60   C124  S    
C104  O85   S    
C56   C127  S    
C8    H64   S    
C6    O51   S    
C86   C94   A    
C19   H98   S    
C88   C92   A    
C41   H21   S    
C88   O70   S    
O89   Zn6   S    
C31   H135  S    
C96   O77   S    
C83   C135  A    
C32   H136  S    
C45   H33   S    
O34   Zn1   S    
C20   H102  S    
C5    O50   S    
C23   O69   S    
C79   O34   A    
C134  O16   A    
C60   O37   A    
C2    O10   A    
C47   H38   S    
C123  O8    A    
C44   O90   S    
C3    H24   S    
C74   C97   A    
C87   C99   A    
C81   C102  A    
C17   H91   S    
C13   C131  S    
C82   C96   A    
C75   O57   S    
C108  C118  A    
C68   C136  S    
C44   H29   S    
C23   H111  S    
C45   H32   S    
O24   Zn11  S    
C80   O61   S    
C16   H88   S    
C143  H101  S    
C134  O9    A    
C61   O38   A    
C58   O30   A    
C97   C122  A    
C50   H47   S    
C30   O75   S    
C66   C133  A    
O37   Zn3   S    
C34   H143  S    
C72   O53   S    
O6    Zn7   S    
C49   O94   S    
O28   Zn12  S    
C84   O65   S    
C24   C135  S    
C12   O58   S    
C74   C130  A    
C84   C89   A    
C72   C93   A    
C8    H65   S    
C60   O41   A    
C18   H95   S    
C69   C133  A    
C102  O83   S    
C110  O92   S    
C87   O69   S    
C29   H128  S    
C103  C119  A    
C51   H50   S    
O4    Zn6   S    
C43   H28   S    
O29   Zn12  S    
C5    H54   S    
C26   H118  S    
C73   C140  A    
C78   C91   A    
C86   O68   S    
C88   C131  A    
C39   H12   S    
C113  C116  A    
C63   C110  A    
C67   C113  A    
C19   H96   S    
C89   O71   S    
C9    H67   S    
C97   O79   S    
C3    O48   S    
C54   O27   A    
O11   Zn8   S    
C31   H133  S    
C12   H77   S    
C98   O80   S    
C53   C126  S    
O35   Zn2   S    
C3    H2    S    
C113  O94   S    
C46   O19   A    
C62   C121  S    
C115  O96   S    
