data_mof_unit_18516.cif
_audit_creation_date              2012-12-10T17:46:57-0500
_audit_creation_method            fapswitch 2.2
_symmetry_space_group_name_H-M    P1
_symmetry_Int_Tables_number       1
_space_group_crystal_system       triclinic
_cell_length_a                    9.973019
_cell_length_b                    10.628466
_cell_length_c                    13.593585
_cell_angle_alpha                 92.072378
_cell_angle_beta                  82.309614
_cell_angle_gamma                 89.347858
_cell_volume                      1426.80614794

loop_
_atom_site_label
_atom_site_type_symbol
_atom_type_description
_atom_site_fract_x
_atom_site_fract_y
_atom_site_fract_z
_atom_type_partial_charge
C1    C     C_R   0.499812 0.739131 0.497390 0.831125
C2    C     C_R   0.558434 0.938119 0.563599 -0.206729
C3    C     C_R   0.560327 0.066567 0.562879 -0.187072
C4    C     C_R   0.475020 0.500437 0.685647 0.862791
C5    C     C_R   0.503955 0.127998 0.489315 -0.072777
C6    C     C_R   0.835414 0.662311 0.633939 -0.103931
C7    C     C_R   0.893098 0.740971 0.700189 -0.191387
C8    C     C_R   0.031869 0.739255 0.700674 -0.181720
C9    C     C_R   0.114029 0.659382 0.634490 -0.113957
C10   C     C_R   0.059207 0.577685 0.567001 0.140827
C11   C     C_R   0.914955 0.577913 0.567144 0.080548
C12   C     C_1   0.455370 0.501483 0.789929 -0.178200
C13   C     C_R   0.945101 0.429947 0.431265 0.460849
C14   C     C_R   0.086600 0.428465 0.434496 -0.167746
C15   C     C_R   0.501199 0.260695 0.496852 0.879322
C16   C     C_R   0.524957 0.499566 0.314361 0.879093
C17   C     C_1   0.544520 0.499858 0.210146 -0.116718
C18   C     C_2   0.558639 0.500834 0.017965 -0.163326
C19   C     C_2   0.441261 0.502974 0.982211 -0.176751
C20   C     C_1   0.443795 0.502348 0.878090 0.016744
C21   C     C_1   0.556094 0.500270 0.122038 0.039177
C22   C     C_R   0.397781 0.862764 0.334099 -0.167824
C23   C     C_R   0.348641 0.925628 0.257679 -0.131601
C24   C     C_R   0.350422 0.056466 0.257082 -0.097603
C25   C     C_R   0.401545 0.124886 0.332806 -0.140009
C26   C     C_R   0.449884 0.062678 0.411789 0.093648
C27   C     C_R   0.447940 0.930792 0.412489 0.093729
C28   C     C_R   0.500361 0.871292 0.490662 -0.077775
H1    H     H_    0.344834 0.504617 0.030273 0.170011
H2    H     H_    0.310447 0.872566 0.198180 0.145639
H3    H     H_    0.313561 0.105053 0.197146 0.154134
H4    H     H_    0.404739 0.226099 0.327733 0.145264
H5    H     H_    0.602599 0.118534 0.621306 0.150827
H6    H     H_    0.995646 0.232089 0.203289 0.382946
H7    H     H_    0.728842 0.672804 0.635895 0.189827
H8    H     H_    0.829642 0.804837 0.750675 0.145826
H9    H     H_    0.076453 0.801444 0.751726 0.150450
H10   H     H_    0.220150 0.665304 0.636965 0.196923
H11   H     H_    0.154194 0.372772 0.380701 0.212203
H12   H     H_    0.655071 0.499038 0.969909 0.171318
H13   H     H_    0.599904 0.890599 0.622349 0.137451
H14   H     H_    0.397745 0.761090 0.330039 0.153338
N1    N     N_R   0.857120 0.501200 0.500900 -0.181430
N2    N     N_R   0.142720 0.501280 0.500940 -0.152062
O1    O     O_R   0.385310 0.683220 0.500000 -0.638787
O2    O     O_2   0.870056 0.453255 0.251440 -0.309495
O3    O     O_3   0.024371 0.260679 0.267310 -0.601581
O4    O     O_R   0.614640 0.683250 0.500010 -0.629019
O5    O     O_R   0.368830 0.499960 0.640340 -0.623326
O6    O     O_R   0.598160 0.499980 0.640350 -0.635481
O7    O     O_R   0.385360 0.316750 0.499990 -0.624579
O8    O     O_R   0.614690 0.316780 0.500000 -0.558751
O9    O     O_R   0.401840 0.500020 0.359650 -0.637815
O10   O     O_R   0.631170 0.500040 0.359660 -0.515575
O11   O     O_2   0.774854 0.273911 0.344092 -0.284558
S1    S     S_3+6 0.896888 0.354221 0.322835 0.030802
Zn1   Zn    Zn3+2 0.346870 0.499980 0.499990 0.936194
Zn2   Zn    Zn3+2 0.653130 0.500020 0.500010 1.016580

loop_
_geom_bond_atom_site_label_1
_geom_bond_atom_site_label_2
_ccdc_geom_bond_type
C8    C9    A    
C1    C28   S    
C2    C28   A    
C23   C24   A    
C1    O4    A    
C11   N1    A    
C6    C7    A    
O7    Zn1   S    
C15   O7    A    
C8    H9    S    
C4    C12   S    
C18   C21   S    
C9    C10   A    
C4    O5    A    
C19   C20   S    
N2    Zn1   S    
O11   S1    D    
C13   S1    S    
O1    Zn1   S    
C12   C20   T    
C25   H4    S    
C2    C3    A    
C14   H11   S    
C24   H3    S    
C7    C8    A    
C15   O8    A    
C24   C25   A    
O4    Zn2   S    
C1    O1    A    
C26   C27   A    
C22   H14   S    
O8    Zn2   S    
C9    H10   S    
C22   C27   A    
C22   C23   A    
O10   Zn2   S    
C16   O10   A    
C5    C15   S    
C10   C11   A    
C3    H5    S    
C2    H13   S    
C10   N2    A    
C5    C26   A    
C19   H1    S    
C23   H2    S    
C13   N1    A    
O5    Zn1   S    
C6    H7    S    
C14   N2    A    
C18   C19   D    
C7    H8    S    
O2    S1    D    
C6    C11   A    
C18   H12   S    
C16   O9    A    
C16   C17   S    
O9    Zn1   S    
H6    O3    S    
N1    Zn2   S    
C3    C5    A    
C25   C26   A    
C13   C14   A    
C17   C21   T    
C4    O6    A    
O3    S1    S    
C27   C28   A    
O6    Zn2   S    
