data_mof_unit_27962.cif
_audit_creation_date              2012-12-11T15:52:14-0500
_audit_creation_method            fapswitch 2.2
_symmetry_space_group_name_H-M    P1
_symmetry_Int_Tables_number       1
_space_group_crystal_system       triclinic
_cell_length_a                    10.983793
_cell_length_b                    10.972037
_cell_length_c                    18.812427
_cell_angle_alpha                 89.92516
_cell_angle_beta                  90.016549
_cell_angle_gamma                 120.001867
_cell_volume                      1963.38958458

loop_
_atom_site_label
_atom_site_type_symbol
_atom_type_description
_atom_site_fract_x
_atom_site_fract_y
_atom_site_fract_z
_atom_type_partial_charge
C1    C     C_R   0.519775 0.458525 0.147491 0.535820
C2    C     C_R   0.541632 0.061382 0.147480 0.534556
C3    C     C_R   0.938731 0.480335 0.147494 0.535319
C4    C     C_R   0.451755 0.523024 0.855477 0.543092
C5    C     C_R   0.071393 0.548187 0.855515 0.543948
C6    C     C_R   0.476838 0.928563 0.855493 0.544336
C7    C     C_3   0.743537 0.030094 0.540160 -0.278972
C8    C     C_3   0.971932 0.716950 0.539297 -0.278643
C9    C     C_3   0.282298 0.251276 0.548145 -0.270996
C10   C     C_3   0.962536 0.715503 0.459218 -0.268149
C11   C     C_3   0.753508 0.044272 0.460328 -0.268951
C12   C     C_3   0.283262 0.246973 0.467919 -0.265784
C13   C     C_R   0.519808 0.455812 0.354729 0.545300
C14   C     C_R   0.541528 0.058416 0.352801 0.548102
C15   C     C_R   0.940958 0.482676 0.353023 0.546843
C16   C     C_R   0.458174 0.519097 0.646478 0.553332
C17   C     C_R   0.066584 0.545327 0.644438 0.546148
C18   C     C_R   0.477183 0.930279 0.643652 0.548033
C19   C     C_R   0.485556 0.955591 0.931283 0.018418
C20   C     C_R   0.044666 0.529970 0.931331 0.018788
C21   C     C_R   0.470076 0.514244 0.931257 0.018970
C22   C     C_R   0.008165 0.502739 0.079109 0.010940
C23   C     C_R   0.494649 0.992040 0.079075 0.011057
C24   C     C_R   0.497527 0.505681 0.079059 0.010771
C25   C     C_R   0.399111 0.998002 0.963723 -0.000974
C26   C     C_R   0.002478 0.401089 0.963915 -0.001150
C27   C     C_R   0.598977 0.600764 0.963622 -0.000704
C28   C     C_R   0.982376 0.387122 0.036663 0.005904
C29   C     C_R   0.405165 0.018076 0.036464 0.005963
C30   C     C_R   0.613047 0.594969 0.036383 0.005609
C31   C     C_R   0.562141 0.925388 0.048253 -0.160497
C32   C     C_R   0.074689 0.636941 0.048143 -0.160761
C33   C     C_R   0.363397 0.438237 0.048262 -0.160623
C34   C     C_R   0.091309 0.650234 0.974585 -0.146784
C35   C     C_R   0.558909 0.908805 0.974702 -0.146904
C36   C     C_R   0.349999 0.441179 0.974696 -0.146910
C37   C     C_3   0.388120 0.125608 0.948850 -0.282322
C38   C     C_3   0.875187 0.262368 0.949198 -0.282522
C39   C     C_3   0.737297 0.611446 0.948869 -0.282518
C40   C     C_3   0.851824 0.247071 0.028822 -0.242357
C41   C     C_3   0.396050 0.148885 0.028462 -0.242539
C42   C     C_3   0.752705 0.603792 0.028513 -0.242502
C43   C     C_R   0.484023 0.957055 0.567988 0.019674
C44   C     C_R   0.034735 0.523198 0.569264 0.019644
C45   C     C_R   0.503570 0.498470 0.577631 0.014404
C46   C     C_R   0.013469 0.512883 0.420770 0.018104
C47   C     C_R   0.498712 0.983259 0.419944 0.017484
C48   C     C_R   0.507779 0.479176 0.429318 0.022491
C49   C     C_R   0.588353 0.948975 0.530033 0.035130
C50   C     C_R   0.048218 0.637506 0.530564 0.042137
C51   C     C_R   0.432514 0.367517 0.544347 0.017220
C52   C     C_R   0.039152 0.634034 0.458032 0.027688
C53   C     C_R   0.595862 0.960765 0.457622 0.022152
C54   C     C_R   0.433806 0.359535 0.471707 0.048134
C55   C     C_R   0.377105 0.961614 0.455432 -0.154780
C56   C     C_R   0.026722 0.408478 0.457399 -0.170736
C57   C     C_R   0.596368 0.607953 0.462489 -0.174883
C58   C     C_R   0.034005 0.411937 0.531862 -0.164950
C59   C     C_R   0.370458 0.950229 0.529829 -0.152498
C60   C     C_R   0.595245 0.617319 0.536597 -0.165120
Cr1   Cr    Cr6+3 0.769160 0.541570 0.250690 1.004243
Cr2   Cr    Cr6+3 0.458430 0.227590 0.250690 1.006798
Cr3   Cr    Cr6+3 0.772410 0.230840 0.250690 1.003305
Cr4   Cr    Cr6+3 0.541570 0.769160 0.749310 1.009080
Cr5   Cr    Cr6+3 0.227590 0.458430 0.749310 1.007487
Cr6   Cr    Cr6+3 0.230840 0.772410 0.749310 1.009993
O1    O     O_R   0.911480 0.572650 0.170990 -0.529279
O2    O     O_R   0.427350 0.338830 0.170990 -0.529257
O3    O     O_R   0.661170 0.088520 0.170990 -0.529447
O4    O     O_R   0.572650 0.911480 0.829010 -0.528018
O5    O     O_R   0.338830 0.427350 0.829010 -0.528805
O6    O     O_R   0.088520 0.661170 0.829010 -0.528661
O7    O     O_R   0.640340 0.528970 0.175680 -0.500683
O8    O     O_R   0.471030 0.111370 0.175680 -0.501895
O9    O     O_R   0.888630 0.359660 0.175680 -0.501116
O10   O     O_R   0.528970 0.640340 0.824320 -0.501697
O11   O     O_R   0.111370 0.471030 0.824320 -0.500831
O12   O     O_R   0.359660 0.888630 0.824320 -0.500753
O13   O     O_R   0.909980 0.572450 0.331530 -0.524538
O14   O     O_R   0.427550 0.337530 0.331530 -0.518037
O15   O     O_R   0.662470 0.090020 0.331530 -0.524795
O16   O     O_R   0.572450 0.909980 0.668470 -0.519242
O17   O     O_R   0.337530 0.427550 0.668470 -0.524082
O18   O     O_R   0.090020 0.662470 0.668470 -0.518973
O19   O     O_R   0.638950 0.528780 0.324500 -0.508690
O20   O     O_R   0.471220 0.110170 0.324500 -0.503558
O21   O     O_R   0.889830 0.361050 0.324500 -0.508356
O22   O     O_R   0.528780 0.638950 0.675500 -0.508636
O23   O     O_R   0.110170 0.471220 0.675500 -0.507014
O24   O     O_R   0.361050 0.889830 0.675500 -0.506957
O25   O     O_3   0.666667 0.333333 0.250560 -0.245938
O26   O     O_3   0.333333 0.666667 0.749440 -0.252289
H1    H     H_    0.628460 0.899089 0.079717 0.134576
H2    H     H_    0.100802 0.729614 0.079491 0.134389
H3    H     H_    0.270806 0.372078 0.079782 0.134532
H4    H     H_    0.135770 0.754216 0.951490 0.148264
H5    H     H_    0.618225 0.864182 0.951740 0.148263
H6    H     H_    0.246070 0.381876 0.951749 0.148238
H7    H     H_    0.284370 0.098713 0.925922 0.141994
H8    H     H_    0.902269 0.185516 0.926388 0.141883
H9    H     H_    0.814279 0.715166 0.925769 0.142037
H10   H     H_    0.755861 0.249345 0.045394 0.146295
H11   H     H_    0.494308 0.244851 0.045075 0.145946
H12   H     H_    0.750152 0.505407 0.045360 0.145910
H13   H     H_    0.480852 0.208589 0.919737 0.130781
H14   H     H_    0.792248 0.272031 0.920049 0.130891
H15   H     H_    0.727235 0.518425 0.919975 0.130509
H16   H     H_    0.863939 0.160445 0.051914 0.147674
H17   H     H_    0.297394 0.136836 0.051425 0.147688
H18   H     H_    0.839469 0.702574 0.051328 0.147697
H19   H     H_    0.293402 0.963883 0.426482 0.116759
H20   H     H_    0.018456 0.318742 0.429359 0.114916
H21   H     H_    0.662636 0.701175 0.431359 0.121855
H22   H     H_    0.032941 0.325762 0.560083 0.117964
H23   H     H_    0.279953 0.940730 0.557356 0.125918
H24   H     H_    0.656071 0.719636 0.560878 0.139611
H25   H     H_    0.786720 0.965107 0.561522 0.133558
H26   H     H_    0.038558 0.823941 0.561558 0.131538
H27   H     H_    0.208839 0.283938 0.568615 0.162566
H28   H     H_    0.852884 0.653458 0.440201 0.175112
H29   H     H_    0.794427 0.154248 0.442990 0.171404
H30   H     H_    0.268688 0.147121 0.446377 0.139211
H31   H     H_    0.778911 0.131504 0.568196 0.138471
H32   H     H_    0.868462 0.653349 0.565914 0.142012
H33   H     H_    0.271819 0.155013 0.573449 0.126540
H34   H     H_    0.024981 0.821692 0.434970 0.122607
H35   H     H_    0.803258 0.988276 0.435200 0.127424
H36   H     H_    0.216367 0.284307 0.442711 0.134624

loop_
_geom_bond_atom_site_label_1
_geom_bond_atom_site_label_2
_ccdc_geom_bond_type
Cr5   O26   S    
C32   H2    S    
C45   C60   A    
C55   C59   A    
C7    H25   S    
C11   H35   S    
C9    C51   S    
C10   C52   S    
C33   C36   A    
C8    H26   S    
C48   C57   A    
Cr6   O24   S    
C21   C36   A    
Cr2   O8    S    
C48   C54   A    
C6    C19   S    
Cr2   O20   S    
C22   C32   A    
Cr3   O15   S    
C23   C29   A    
Cr2   O14   S    
C34   H4    S    
C5    O6    A    
C14   O20   A    
Cr5   O17   S    
C45   C51   A    
C46   C52   A    
C1    O2    A    
C36   H6    S    
C59   H23   S    
C25   C37   S    
Cr6   O6    S    
Cr3   O3    S    
C27   C39   S    
C50   C52   A    
Cr4   O4    S    
C2    O3    A    
C3    O9    A    
C11   C53   S    
C43   C59   A    
C47   C53   A    
Cr3   O21   S    
C21   C27   A    
C13   O14   A    
C22   C28   A    
C27   C30   A    
C11   H29   S    
C33   H3    S    
C39   H9    S    
C39   C42   S    
C25   C29   A    
Cr6   O12   S    
C43   C49   A    
Cr5   O11   S    
C55   H19   S    
C18   O24   A    
C17   O23   A    
C7    C49   S    
C38   H8    S    
C16   O22   A    
C44   C58   A    
C5    C20   S    
C26   C38   S    
C57   C60   A    
Cr6   O26   S    
C13   O19   A    
Cr1   O7    S    
C31   H1    S    
C40   H10   S    
C16   O17   A    
C9    H33   S    
C41   H11   S    
C42   H12   S    
C23   C31   A    
C38   H14   S    
Cr5   O23   S    
C37   H13   S    
Cr1   O1    S    
C7    C11   S    
Cr2   O25   S    
Cr4   O10   S    
Cr4   O16   S    
Cr1   O19   S    
C10   H34   S    
C8    H32   S    
C9    H27   S    
C31   C35   A    
C60   H24   S    
Cr4   O26   S    
C5    O11   A    
C8    C50   S    
C37   H7    S    
Cr3   O9    S    
C47   C55   A    
C44   C50   A    
C6    O4    A    
C29   C41   S    
C3    O1    A    
C7    H31   S    
C2    O8    A    
C16   C45   S    
C39   H15   S    
C13   C48   S    
C57   H21   S    
C14   C47   S    
C12   H36   S    
C15   O13   A    
C46   C56   A    
C26   C28   A    
C24   C33   A    
C14   O15   A    
Cr2   O2    S    
C17   O18   A    
C1    O7    A    
C51   C54   A    
C42   H18   S    
C17   C44   S    
C20   C34   A    
C19   C35   A    
C18   C43   S    
C38   C40   S    
C4    C21   S    
C20   C26   A    
Cr1   O13   S    
C49   C53   A    
C56   H20   S    
C18   O16   A    
C56   C58   A    
C4    O5    A    
C37   C41   S    
C19   C25   A    
C9    C12   S    
C24   C30   A    
C4    O10   A    
C6    O12   A    
Cr6   O18   S    
C40   H16   S    
Cr5   O5    S    
C12   H30   S    
C1    C24   S    
C8    C10   S    
C15   O21   A    
Cr3   O25   S    
C2    C23   S    
C58   H22   S    
C28   C40   S    
C30   C42   S    
C3    C22   S    
C41   H17   S    
C15   C46   S    
C35   H5    S    
Cr4   O22   S    
C10   H28   S    
C12   C54   S    
Cr1   O25   S    
C32   C34   A    
