data_mof_unit_19004.cif
_audit_creation_date              2012-12-11T14:13:22-0500
_audit_creation_method            fapswitch 2.2
_symmetry_space_group_name_H-M    P1
_symmetry_Int_Tables_number       1
_space_group_crystal_system       triclinic
_cell_length_a                    11.778437
_cell_length_b                    18.518717
_cell_length_c                    10.010239
_cell_angle_alpha                 89.998776
_cell_angle_beta                  111.051211
_cell_angle_gamma                 90.001011
_cell_volume                      2037.72483197

loop_
_atom_site_label
_atom_site_type_symbol
_atom_type_description
_atom_site_fract_x
_atom_site_fract_y
_atom_site_fract_z
_atom_type_partial_charge
C1    C     C_R   0.074031 0.646173 0.140298 0.557346
C2    C     C_2   0.634108 0.060274 0.007430 -0.117760
C3    C     C_2   0.594041 0.424510 0.082878 -0.118035
C4    C     C_2   0.365786 0.560259 0.992840 -0.117724
C5    C     C_2   0.519150 0.949184 0.956100 -0.153001
C6    C     C_2   0.537073 0.024352 0.923483 -0.156175
C7    C     C_2   0.480854 0.449195 0.043965 -0.152919
C8    C     C_2   0.462987 0.524387 0.076486 -0.156079
C9    C     C_2   0.010958 0.922175 0.112643 -0.089797
C10   C     C_2   0.989119 0.077880 0.887629 -0.084477
C11   C     C_2   0.988993 0.422187 0.887354 -0.089616
C12   C     C_R   0.926022 0.353813 0.859676 0.565889
C13   C     C_2   0.010800 0.577902 0.112340 -0.084434
C14   C     C_2   0.025664 0.964357 0.012316 -0.126860
C15   C     C_2   0.975090 0.035885 0.988630 -0.131932
C16   C     C_2   0.974047 0.464424 0.987460 -0.126659
C17   C     C_2   0.024720 0.535925 0.011258 -0.131796
C18   C     C_R   0.471978 0.647818 0.445037 0.549209
C19   C     C_R   0.529536 0.353334 0.557457 0.560865
C20   C     C_R   0.528017 0.147818 0.554968 0.549184
C21   C     C_R   0.470476 0.853331 0.442544 0.560879
C22   C     C_R   0.352580 0.637915 0.009441 0.558875
C23   C     C_R   0.925960 0.146171 0.859700 0.557369
C24   C     C_R   0.624040 0.355096 0.036271 0.558099
C25   C     C_R   0.647376 0.137907 0.990655 0.558811
C26   C     C_R   0.375958 0.855096 0.963730 0.558132
C27   C     C_R   0.499648 0.426150 0.490889 -0.008542
C28   C     C_R   0.508055 0.577815 0.521905 -0.008792
C29   C     C_R   0.500404 0.926144 0.509110 -0.008551
C30   C     C_R   0.491926 0.077808 0.478123 -0.008832
C31   C     C_R   0.292747 0.431034 0.497696 0.124306
C32   C     C_R   0.714606 0.574653 0.514081 0.121729
C33   C     C_R   0.707262 0.931063 0.502063 0.124281
C34   C     C_R   0.073971 0.853812 0.140322 0.565897
C35   C     C_R   0.285418 0.074607 0.486147 0.121676
C36   C     C_R   0.214444 0.462754 0.556218 -0.075283
C37   C     C_R   0.793724 0.542820 0.456985 -0.076959
C38   C     C_R   0.785574 0.962863 0.443642 -0.075500
C39   C     C_R   0.206290 0.042704 0.543154 -0.077130
C40   C     C_R   0.233981 0.533147 0.606169 0.054897
C41   C     C_R   0.777766 0.471440 0.413336 0.044501
C42   C     C_R   0.766023 0.033282 0.393847 0.054717
C43   C     C_R   0.222259 0.971310 0.586675 0.044453
C44   C     C_R   0.334695 0.571170 0.602881 -0.056625
C45   C     C_R   0.403474 0.464477 0.512127 0.010741
C46   C     C_R   0.678742 0.432798 0.419456 -0.068981
C47   C     C_R   0.665234 0.071238 0.397073 -0.056711
C48   C     C_R   0.321350 0.932728 0.580611 -0.069018
C49   C     C_R   0.417556 0.538117 0.549529 -0.036534
C50   C     C_R   0.593468 0.465756 0.469154 -0.039252
C51   C     C_R   0.582411 0.038136 0.450422 -0.036536
C52   C     C_R   0.406602 0.965728 0.530928 -0.039339
C53   C     C_R   0.605653 0.539879 0.503426 0.005258
C54   C     C_R   0.596538 0.964488 0.487785 0.010762
C55   C     C_R   0.394372 0.039855 0.496687 0.005189
C56   C     C_2   0.405976 0.924496 0.917090 -0.118047
Cr1   Cr    Cr6+3 0.187610 0.750000 0.979860 1.107731
Cr2   Cr    Cr6+3 0.812390 0.250000 0.020140 1.107764
Cr3   Cr    Cr6+3 0.245810 0.750000 0.341640 1.065437
Cr4   Cr    Cr6+3 0.754190 0.250000 0.658360 1.065439
Cr5   Cr    Cr6+3 0.485760 0.750000 0.219910 1.057772
Cr6   Cr    Cr6+3 0.514240 0.250000 0.780090 1.057805
H1    H     H_    0.135109 0.434188 0.556005 0.180880
H2    H     H_    0.595868 0.916646 0.021442 0.162009
H3    H     H_    0.535178 0.552300 0.160512 0.167459
H4    H     H_    0.404096 0.416635 0.978764 0.162005
H5    H     H_    0.704808 0.031468 0.090779 0.129082
H6    H     H_    0.331420 0.960232 0.861532 0.133224
H7    H     H_    0.294898 0.531395 0.909865 0.129008
H8    H     H_    0.668620 0.460256 0.138343 0.133188
H9    H     H_    0.921661 0.053459 0.051409 0.177206
H10   H     H_    0.079597 0.946887 0.950045 0.188334
H11   H     H_    0.078159 0.553491 0.948503 0.177276
H12   H     H_    0.868945 0.573033 0.449497 0.182276
H13   H     H_    0.919908 0.447002 0.049506 0.188210
H14   H     H_    0.035937 0.059024 0.818368 0.134333
H15   H     H_    0.963794 0.940962 0.181643 0.127068
H16   H     H_    0.963990 0.559051 0.181603 0.134451
H17   H     H_    0.036383 0.440914 0.818566 0.127053
H18   H     H_    0.864917 0.934331 0.443773 0.180797
H19   H     H_    0.131059 0.072878 0.550707 0.182220
H20   H     H_    0.347068 0.626428 0.640698 0.168433
H21   H     H_    0.666776 0.377999 0.379436 0.165020
H22   H     H_    0.652806 0.126499 0.359268 0.168400
H23   H     H_    0.333364 0.877927 0.620636 0.165011
H24   H     H_    0.465053 0.052199 0.839108 0.167406
I1    I     I_    0.097155 0.586085 0.654563 -0.380495
I2    I     I_    0.907052 0.420423 0.347204 -0.389004
I3    I     I_    0.902907 0.086348 0.345745 -0.380128
I4    I     I_    0.092934 0.920192 0.652597 -0.388792
I5    I     I_    0.219583 0.352469 0.338386 -0.280476
I6    I     I_    0.782571 0.659918 0.659007 -0.265187
I7    I     I_    0.780374 0.852235 0.660736 -0.280116
I8    I     I_    0.217505 0.160116 0.341755 -0.264821
O1    O     O_R   0.267710 0.668200 0.902110 -0.478470
O2    O     O_R   0.883280 0.330790 0.732340 -0.489906
O3    O     O_R   0.883280 0.169210 0.732340 -0.489727
O4    O     O_R   0.116720 0.830790 0.267660 -0.489875
O5    O     O_R   0.366710 0.675440 0.427590 -0.507621
O6    O     O_R   0.633290 0.324560 0.572410 -0.507788
O7    O     O_R   0.633290 0.175440 0.572410 -0.507604
O8    O     O_R   0.366710 0.824560 0.427590 -0.507768
O9    O     O_R   0.534870 0.669390 0.371760 -0.499673
O10   O     O_R   0.465130 0.330610 0.628240 -0.482982
O11   O     O_R   0.465130 0.169390 0.628240 -0.499656
O12   O     O_R   0.732290 0.331800 0.097890 -0.477465
O13   O     O_R   0.534870 0.830610 0.371760 -0.482972
O14   O     O_R   0.453080 0.674480 0.075160 -0.496277
O15   O     O_R   0.546920 0.325520 0.924840 -0.495153
O16   O     O_R   0.546920 0.174480 0.924840 -0.496220
O17   O     O_R   0.453080 0.825520 0.075160 -0.495171
O18   O     O_3   0.306390 0.750000 0.180470 -0.299689
O19   O     O_3   0.693610 0.250000 0.819530 -0.299657
O20   O     O_R   0.732290 0.168200 0.097890 -0.478561
O21   O     O_R   0.267710 0.831800 0.902110 -0.477478
O22   O     O_R   0.099480 0.674460 0.038850 -0.492831
O23   O     O_R   0.900520 0.325540 0.961150 -0.476632
O24   O     O_R   0.900520 0.174460 0.961150 -0.492816
O25   O     O_R   0.099480 0.825540 0.038850 -0.476704
O26   O     O_R   0.116720 0.669210 0.267660 -0.489755

loop_
_geom_bond_atom_site_label_1
_geom_bond_atom_site_label_2
_ccdc_geom_bond_type
C44   C49   A    
C37   H12   S    
Cr3   O26   S    
C16   H13   S    
Cr3   O5    S    
C22   O1    A    
C5    C56   D    
C4    C8    D    
C23   O24   A    
C3    C24   S    
C7    C8    S    
Cr1   O21   S    
Cr6   O11   S    
C20   C30   S    
C40   I1    S    
Cr5   O9    S    
C30   C51   A    
C38   C42   A    
C3    C7    D    
C10   C15   D    
C31   C36   A    
C5    C6    S    
Cr1   O18   S    
C29   C54   A    
Cr2   O24   S    
C11   C16   D    
Cr5   O14   S    
C26   O21   A    
C10   H14   S    
C16   C17   S    
Cr2   O19   S    
C41   C46   A    
C1    O22   A    
C36   H1    S    
C19   C27   S    
C43   C48   A    
C40   C44   A    
C27   C50   A    
Cr1   O25   S    
C27   C45   A    
C8    H3    S    
C17   H11   S    
Cr4   O19   S    
C2    C6    D    
C4    H7    S    
Cr1   O22   S    
Cr6   O10   S    
C50   C53   A    
C35   C55   A    
C43   I4    S    
C36   C40   A    
C3    H8    S    
C18   C28   S    
C39   H19   S    
Cr6   O19   S    
C2    H5    S    
C47   C51   A    
C20   O7    A    
C32   C37   A    
C21   C29   S    
Cr2   O23   S    
C46   H21   S    
C5    H2    S    
C26   C56   S    
Cr2   O12   S    
C1    O26   A    
C35   C39   A    
C9    C14   D    
C4    C22   S    
C19   O10   A    
Cr6   O16   S    
C45   C49   A    
C28   C53   A    
Cr3   O18   S    
C9    H15   S    
C47   H22   S    
C21   O13   A    
C11   H17   S    
C25   O16   A    
C21   O8    A    
Cr4   O2    S    
C23   O3    A    
Cr4   O3    S    
C31   I5    S    
Cr1   O1    S    
C9    C34   S    
C24   O12   A    
C18   O5    A    
Cr4   O7    S    
Cr5   O17   S    
C32   C53   A    
C20   O11   A    
C35   I8    S    
C34   O25   A    
C41   I2    S    
C13   H16   S    
C48   H23   S    
Cr3   O8    S    
C14   H10   S    
C24   O15   A    
Cr4   O6    S    
C33   I7    S    
C39   C43   A    
C19   O6    A    
C52   C55   A    
C10   C23   S    
C15   H9    S    
C30   C55   A    
C46   C50   A    
C44   H20   S    
C33   C38   A    
C6    H24   S    
C13   C17   D    
C51   C54   A    
C42   I3    S    
C56   H6    S    
C25   O20   A    
C7    H4    S    
C32   I6    S    
Cr6   O15   S    
C38   H18   S    
C33   C54   A    
C22   O14   A    
C34   O4    A    
C28   C49   A    
C2    C25   S    
C18   O9    A    
C37   C41   A    
Cr5   O13   S    
C12   O23   A    
C48   C52   A    
C42   C47   A    
C1    C13   S    
C31   C45   A    
Cr2   O20   S    
Cr3   O4    S    
C14   C15   S    
C12   O2    A    
Cr5   O18   S    
C26   O17   A    
C11   C12   S    
C29   C52   A    
