data_mof_unit_17735.cif
_audit_creation_date              2012-12-10T17:21:15-0500
_audit_creation_method            fapswitch 2.2
_symmetry_space_group_name_H-M    P1
_symmetry_Int_Tables_number       1
_space_group_crystal_system       triclinic
_cell_length_a                    10.182493
_cell_length_b                    10.751021
_cell_length_c                    10.9378
_cell_angle_alpha                 90.846928
_cell_angle_beta                  95.67011
_cell_angle_gamma                 81.183308
_cell_volume                      1177.44704717

loop_
_atom_site_label
_atom_site_type_symbol
_atom_type_description
_atom_site_fract_x
_atom_site_fract_y
_atom_site_fract_z
_atom_type_partial_charge
C1    C     C_R   0.444820 0.505379 0.268639 0.947980
C2    C     C_2   0.932641 0.488847 0.525062 -0.062998
C3    C     C_R   0.498823 0.257726 0.498150 0.887087
C4    C     C_R   0.554380 0.490628 0.733220 0.920829
C5    C     C_R   0.497872 0.741503 0.491766 0.866529
C6    C     C_3   0.625044 0.051663 0.441325 -0.450487
C7    C     C_3   0.634673 0.908972 0.460081 -0.390130
C8    C     C_3   0.500166 0.066743 0.625752 -0.060483
C9    C     C_3   0.369104 0.088730 0.403316 -0.026211
C10   C     C_3   0.494505 0.121509 0.492527 -0.032103
C11   C     C_2   0.265065 0.885158 0.350884 1.000573
C12   C     C_3   0.495422 0.877865 0.488294 -0.096218
C13   C     C_2   0.900387 0.528157 0.647853 1.063031
C14   C     C_2   0.519360 0.856216 0.727500 0.951295
C15   C     C_2   0.231049 0.136750 0.446219 0.979843
C16   C     C_3   0.459859 0.935173 0.615880 -0.228871
C17   C     C_3   0.392110 0.942397 0.382003 -0.333703
C18   C     C_2   0.417064 0.510691 0.138416 -0.338859
C19   C     C_2   0.499948 0.442174 0.065726 0.189428
C20   C     C_2   0.577192 0.480661 0.867175 -0.083277
C21   C     C_2   0.475112 0.463742 0.934881 0.107248
C22   C     C_2   0.074919 0.481938 0.497787 -0.062633
H1    H     H_    0.716762 0.081315 0.489459 0.221518
H2    H     H_    0.444184 0.925653 0.296904 0.185413
H3    H     H_    0.086724 0.855578 0.398606 0.357767
H4    H     H_    0.825110 0.670049 0.753369 0.382825
H5    H     H_    0.484932 0.754269 0.871086 0.346319
H6    H     H_    0.031609 0.176615 0.400576 0.344819
H7    H     H_    0.349739 0.944947 0.617102 0.227432
H8    H     H_    0.335273 0.581299 0.101924 0.186819
H9    H     H_    0.113291 0.409417 0.435027 0.158539
H10   H     H_    0.872446 0.417582 0.364735 0.196655
H11   H     H_    0.625807 0.072775 0.342326 0.238695
H12   H     H_    0.668062 0.859569 0.375762 0.207907
H13   H     H_    0.711825 0.877350 0.537080 0.259769
H14   H     H_    0.606112 0.058584 0.665847 0.181377
I1    I     I_    0.413725 0.168465 0.774849 -0.135714
I2    I     I_    0.263667 0.468065 0.875543 -0.085576
I3    I     I_    0.651337 0.285887 0.126513 -0.212756
I4    I     I_    0.763496 0.520925 0.953267 -0.190377
I5    I     I_    0.104505 0.720258 0.645229 -0.087643
I6    I     I_    0.357378 0.176383 0.224218 -0.234725
N1    N     N_2   0.157300 0.551950 0.551120 -0.025698
N2    N     N_2   0.842730 0.448000 0.448950 -0.242604
O1    O     O_R   0.568940 0.489540 0.307530 -0.596472
O2    O     O_R   0.169086 0.890985 0.434160 -0.757378
O3    O     O_2   0.951784 0.463805 0.736003 -0.560022
O4    O     O_R   0.821058 0.643750 0.664196 -0.758216
O5    O     O_2   0.639111 0.843320 0.758813 -0.616089
O6    O     O_R   0.435043 0.801670 0.796925 -0.745872
O7    O     O_2   0.217390 0.167427 0.552357 -0.578243
O8    O     O_R   0.116976 0.144438 0.362066 -0.755251
O9    O     O_R   0.348880 0.522880 0.340350 -0.608409
O10   O     O_R   0.610030 0.298130 0.483570 -0.618169
O11   O     O_R   0.389960 0.331470 0.516390 -0.597287
O12   O     O_R   0.651120 0.477120 0.659650 -0.586783
O13   O     O_R   0.431060 0.510460 0.692470 -0.573308
O14   O     O_R   0.610040 0.668530 0.483610 -0.583472
O15   O     O_R   0.389970 0.701870 0.516430 -0.587790
O16   O     O_2   0.246379 0.834522 0.251062 -0.598812
Zn1   Zn    Zn3+2 0.646940 0.477740 0.478080 1.017672
Zn2   Zn    Zn3+2 0.353060 0.522260 0.521920 1.075266

loop_
_geom_bond_atom_site_label_1
_geom_bond_atom_site_label_2
_ccdc_geom_bond_type
C12   C17   S    
C6    C10   S    
C13   O4    S    
C6    H11   S    
C2    C22   S    
C6    C7    S    
C18   H8    S    
O10   Zn1   S    
C15   O7    D    
N2    Zn1   S    
C14   O5    D    
H6    O8    S    
C9    C10   S    
C22   N1    D    
H5    O6    S    
H4    O4    S    
O14   Zn1   S    
C9    C15   S    
O13   Zn2   S    
C8    C16   S    
C3    C10   S    
C15   O8    S    
C4    O12   A    
I5    N1    S    
C1    O1    A    
C1    C18   S    
C14   O6    S    
C19   I3    S    
C5    O14   A    
O9    Zn2   S    
C9    I6    S    
C6    H1    S    
C9    C17   S    
C19   C21   S    
H10   N2    S    
C7    C12   S    
C20   I4    S    
C3    O10   A    
C14   C16   S    
C17   H2    S    
C22   H9    S    
C5    O15   A    
C11   O16   D    
C4    C20   S    
O11   Zn2   S    
C8    I1    S    
C7    H13   S    
C20   C21   D    
N1    Zn2   S    
C5    C12   S    
C8    C10   S    
C18   C19   D    
C8    H14   S    
C7    H12   S    
O1    Zn1   S    
C13   O3    D    
C2    C13   S    
C1    O9    A    
O12   Zn1   S    
C11   C17   S    
O15   Zn2   S    
C16   H7    S    
C3    O11   A    
H3    O2    S    
C21   I2    S    
C12   C16   S    
C4    O13   A    
C2    N2    D    
C11   O2    S    
