data_mof_unit_36513.cif
_audit_creation_date              2013-03-05T15:39:53-0500
_audit_creation_method            fapswitch 2.2
_symmetry_space_group_name_H-M    P1
_symmetry_Int_Tables_number       1
_space_group_crystal_system       triclinic
_cell_length_a                    8.295642
_cell_length_b                    15.359187
_cell_length_c                    19.448709
_cell_angle_alpha                 96.779239
_cell_angle_beta                  94.843688
_cell_angle_gamma                 99.755972
_cell_volume                      2411.28298467

loop_
_atom_site_label
_atom_site_type_symbol
_atom_site_description
_atom_site_fract_x
_atom_site_fract_y
_atom_site_fract_z
_atom_type_partial_charge
P1    P     P_3+3 0.028530 0.430100 0.340790 0.531056
O1    O     O_2   0.860810 0.457220 0.330270 -0.280656
O2    O     O_3   0.115570 0.454630 0.416610 -0.344421
O3    O     O_3   0.655480 0.619980 0.374380 -0.326139
O4    O     O_2   0.750020 0.554058 0.254748 -0.314577
O5    O     O_3   0.961101 0.315662 0.310746 -0.602829
O6    O     O_3   0.695162 0.713955 0.259168 -0.512426
H1    H     H_    0.571683 0.772668 0.334710 0.003235
C1    C     C_3   0.648327 0.863981 0.263143 0.651277
H2    H     H_    0.771180 0.889364 0.293008 0.047163
P2    P     P_3+3 0.683360 0.705380 0.556640 0.535431
P3    P     P_3+3 0.125910 0.781729 0.416509 0.565627
O7    O     O_2   0.857830 0.719490 0.535920 -0.298395
O8    O     O_3   0.080900 0.665060 0.409740 -0.278683
O9    O     O_2   0.018665 0.819693 0.469380 -0.331173
O10   O     O_3   0.719225 0.732721 0.647103 -0.592633
O11   O     O_3   0.055993 0.817570 0.339133 -0.539870
C2    C     C_3   0.155897 0.794852 0.287832 0.911511
H3    H     H_    0.287411 0.810291 0.309434 -0.117425
C3    C     C_3   0.139782 0.851055 0.228454 0.071662
H4    H     H_    0.024343 0.824221 0.193686 0.087446
C4    C     C_3   0.316312 0.734538 0.655019 0.388282
H5    H     H_    0.413727 0.697064 0.641532 0.099002
C5    C     C_3   0.393800 0.820424 0.702397 -1.028013
H6    H     H_    0.461901 0.805658 0.749759 0.272107
H7    H     H_    0.480487 0.863588 0.674235 0.251933
H8    H     H_    0.296617 0.857390 0.719392 0.283747
Ba1   Ba    Ba6+2 0.852120 0.544010 0.466690 1.679593
C6    C     C_3   0.007616 0.260303 0.357761 0.208248
H9    H     H_    0.135862 0.283134 0.378967 0.097996
C7    C     C_3   0.987503 0.165262 0.319233 -0.025864
H10   H     H_    0.862518 0.146001 0.290123 0.159103
H11   H     H_    0.997599 0.116751 0.357355 0.114876
C8    C     C_3   0.733882 0.657326 0.679518 0.162084
H12   H     H_    0.854791 0.638660 0.672005 0.080687
H13   H     H_    0.634796 0.599687 0.659377 0.092172
C9    C     C_3   0.719394 0.681561 0.756894 0.687362
H14   H     H_    0.595198 0.697514 0.761706 0.025978
P4    P     P_3+3 0.161190 0.569970 0.659220 0.497316
O12   O     O_2   0.328890 0.542810 0.669780 -0.418189
O13   O     O_3   0.074140 0.545440 0.583400 -0.302963
O14   O     O_3   0.534240 0.380100 0.625630 -0.399329
O15   O     O_3   0.196952 0.685414 0.688717 -0.593485
P5    P     P_3+3 0.072938 0.219779 0.591422 0.545575
O16   O     O_3   0.605420 0.392640 0.463580 -0.345509
O17   O     O_3   0.108810 0.335010 0.590270 -0.315974
O18   O     O_2   0.196012 0.180625 0.546766 -0.348534
O19   O     O_3   0.131418 0.203204 0.676553 -0.487674
Ba2   Ba    Ba6+2 0.337720 0.456070 0.533320 1.675909
P6    P     P_3+3 0.625457 0.609000 0.283197 0.539040
C10   C     C_3   0.585331 0.769828 0.278466 0.269586
H15   H     H_    0.464974 0.745140 0.247854 0.078666
O20   O     O_3   0.584290 0.607440 0.536430 -0.351898
C11   C     C_3   0.466711 0.299989 0.313588 0.887493
H16   H     H_    0.333736 0.303362 0.311603 -0.033716
C12   C     C_3   0.503457 0.267140 0.240158 0.007082
H17   H     H_    0.488859 0.319289 0.205825 0.081984
H18   H     H_    0.633073 0.255911 0.242031 0.130603
P7    P     P_3+3 0.515021 0.278676 0.448132 0.531683
O21   O     O_2   0.331880 0.280530 0.464130 -0.373004
O22   O     O_3   0.506568 0.238979 0.358444 -0.596580
H19   H     H_    0.242801 0.846405 0.196279 0.175980
C13   C     C_3   0.094515 0.273800 0.721506 0.514958
H20   H     H_    0.181400 0.336293 0.718644 0.126655
H21   H     H_    0.967417 0.284250 0.707751 0.089719
C14   C     C_3   0.109359 0.253244 0.796023 -0.899258
H22   H     H_    0.238285 0.276175 0.820778 0.255948
H23   H     H_    0.028108 0.289703 0.826254 0.225932
H24   H     H_    0.070230 0.180181 0.797639 0.281621
P8    P     P_3+3 0.569249 0.383993 0.716422 0.487811
C15   C     C_3   0.586591 0.217918 0.727883 0.698480
O23   O     O_2   0.461446 0.448101 0.747191 -0.373296
O24   O     O_3   0.482983 0.280939 0.741143 -0.553226
H25   H     H_    0.616095 0.215275 0.672840 0.003166
C16   C     C_3   0.498374 0.123060 0.738291 0.599975
C17   C     C_R   0.306006 0.523868 0.294141 -0.522580
C18   C     C_R   0.144730 0.482568 0.272334 0.216012
C19   C     C_R   0.085353 0.474872 0.199699 -0.161280
C20   C     C_R   0.193881 0.510131 0.151377 0.048135
C21   C     C_R   0.359979 0.544892 0.176572 -0.167126
C22   C     C_R   0.413970 0.554552 0.247678 0.178084
C23   C     C_R   0.142517 0.586987 0.041153 -0.118976
C24   C     C_R   0.097948 0.580038 0.967539 -0.098373
C25   C     C_R   0.050746 0.495163 0.925861 0.190197
C26   C     C_R   0.045943 0.419061 0.960232 -0.169330
C27   C     C_R   0.093750 0.425330 0.031922 -0.110760
C28   C     C_R   0.142505 0.508211 0.074021 0.174794
C29   C     C_R   0.841768 0.439041 0.821330 -0.207541
C30   C     C_R   0.785475 0.430521 0.750170 0.357689
C31   C     C_R   0.047170 0.511849 0.725745 0.171139
C32   C     C_R   0.107354 0.520307 0.798291 -0.149623
C33   C     C_R   0.002405 0.483753 0.847245 0.052700
C34   C     C_R   0.888271 0.466587 0.703719 -0.408469
H26   H     H_    0.005865 0.353336 0.931481 0.124833
H27   H     H_    0.091489 0.364315 0.055058 0.123168
H28   H     H_    0.757707 0.413897 0.857136 0.149026
H29   H     H_    0.446143 0.567823 0.140859 0.176682
H30   H     H_    0.839986 0.465436 0.650314 0.166223
H31   H     H_    0.349402 0.529579 0.348518 0.185140
C35   C     C_R   0.744943 0.227106 0.549832 0.198174
C36   C     C_R   0.854275 0.168652 0.560346 0.020802
C37   C     C_R   0.802114 0.076181 0.540007 0.420910
C38   C     C_R   0.637589 0.042848 0.509592 -0.032637
C39   C     C_R   0.549551 0.105566 0.481158 -0.324511
C40   C     C_R   0.600661 0.198578 0.502227 0.165572
C41   C     C_R   0.398743 0.911105 0.474405 -0.396173
C42   C     C_R   0.343980 0.821237 0.450854 0.037314
C43   C     C_R   0.586427 0.787597 0.512600 0.133514
C44   C     C_R   0.646097 0.879393 0.530585 -0.226696
C45   C     C_R   0.563204 0.943606 0.503014 0.167553
C46   C     C_R   0.446447 0.759773 0.464985 0.264476
H32   H     H_    0.308122 0.953338 0.472479 0.208977
H33   H     H_    0.751284 0.898227 0.568898 0.233548
C47   C     C_2   0.896458 0.259359 0.413557 0.848106
H34   H     H_    0.803879 0.200961 0.414104 -0.408845
O25   O     O_2   0.903045 0.325500 0.455526 -0.530042
O26   O     O_3   0.104010 0.160889 0.271259 -0.638917
H35   H     H_    0.185319 0.126954 0.290225 0.403255
O27   O     O_3   0.837264 0.756744 0.785637 -0.676573
H36   H     H_    0.947039 0.741816 0.778638 0.360086
O28   O     O_3   0.736587 0.609592 0.792770 -0.762456
H37   H     H_    0.680448 0.617764 0.835672 0.365327
O29   O     O_3   0.540247 0.919887 0.285564 -0.800151
H38   H     H_    0.554667 0.972089 0.259217 0.363091
O30   O     O_3   0.564007 0.384387 0.332833 -0.734600
H39   H     H_    0.492563 0.423830 0.352940 0.291058
O31   O     O_3   0.396466 0.187426 0.212837 -0.686795
H40   H     H_    0.426497 0.170813 0.165364 0.345646
O32   O     O_3   0.657679 0.862902 0.191142 -0.718450
H41   H     H_    0.764474 0.845839 0.181729 0.316718
O33   O     O_3   0.734627 0.241643 0.772498 -0.857821
H42   H     H_    0.706485 0.248798 0.821489 0.330631
C48   C     C_2   0.612083 0.056824 0.727780 0.477626
H43   H     H_    0.656959 0.026057 0.771235 0.096569
O34   O     O_2   0.656463 0.037684 0.670673 -0.661407
O35   O     O_3   0.354559 0.094775 0.691344 -0.695908
H44   H     H_    0.385622 0.096811 0.643192 0.318755
O36   O     O_3   0.104384 0.704465 0.261166 -0.721037
H45   H     H_    0.202141 0.676000 0.266655 0.276860
O37   O     O_3   0.456090 0.123525 0.806943 -0.764118
H46   H     H_    0.360322 0.153877 0.810683 0.367417
C49   C     C_2   0.277666 0.567369 0.822392 0.595183
H47   H     H_    0.335466 0.620780 0.796102 0.031667
O38   O     O_2   0.357341 0.545757 0.871174 -0.596987
C50   C     C_2   0.103504 0.662961 0.934983 0.482892
H48   H     H_    0.205134 0.718336 0.950383 0.021765
O39   O     O_2   0.992501 0.671445 0.892737 -0.542109
C51   C     C_2   0.177372 0.677763 0.082365 0.551194
H49   H     H_    0.123832 0.732090 0.063812 0.004821
O40   O     O_2   0.270134 0.694613 0.136097 -0.624287
C52   C     C_2   0.913450 0.430147 0.175273 0.607987
H50   H     H_    0.850884 0.379337 0.202701 0.042003
O41   O     O_2   0.836968 0.451434 0.125478 -0.579801
O42   O     O_3   0.913341 0.019115 0.542376 -0.728826
H51   H     H_    0.000216 0.042465 0.581253 0.361578
C53   C     C_2   0.427710 0.075887 0.418957 0.652767
H52   H     H_    0.456374 0.031621 0.376022 0.076843
O43   O     O_2   0.291613 0.096437 0.416971 -0.567911
O44   O     O_3   0.404444 0.671881 0.437520 -0.675261
H53   H     H_    0.361031 0.671872 0.388564 0.273393
O45   O     O_3   0.799659 0.314361 0.578139 -0.734775
H54   H     H_    0.726222 0.351624 0.559748 0.367216
O46   O     O_3   0.147339 0.941297 0.253963 -0.695681
H55   H     H_    0.033917 0.947699 0.263593 0.335562
C54   C     C_2   0.233380 0.757195 0.591156 0.491461
H56   H     H_    0.216761 0.825011 0.586590 0.032405
O47   O     O_2   0.177997 0.697703 0.544099 -0.484731

loop_
_geom_bond_atom_site_label_1
_geom_bond_atom_site_label_2
_geom_bond_distance
_ccdc_geom_bond_type
C14   H23   1.109355 S    
C6    C47   1.481979 S    
C13   H21   1.108540 S    
C54   H56   1.086391 S    
C21   H29   1.083365 S    
C8    C9    1.526782 S    
P1    C18   1.886249 S    
O46   H55   0.993391 S    
C1    C10   1.524830 S    
C5    H8    1.112372 S    
C20   C28   1.524128 S    
C50   H48   1.085382 S    
O2    Ba2   2.795865 S    
O29   H38   0.997269 S    
P4    O13   1.560345 S    
C41   H32   1.074033 S    
C18   C19   1.440685 A    
C12   H17   1.116952 S    
C17   H31   1.076494 S    
O17   Ba2   2.816896 S    
C35   C40   1.421673 A    
C36   C37   1.411070 A    
Ba2   O21   2.858418 S    
C24   C25   1.426083 A    
O2    Ba1   2.944521 S    
C16   O35   1.411559 S    
C5    H7    1.116842 S    
P1    O1    1.523046 D    
C16   O37   1.408379 S    
C14   H24   1.119058 S    
C41   C42   1.387259 A    
O12   Ba2   2.838130 S    
Ba1   O13   2.795259 S    
O14   P8    1.757412 S    
C43   C44   1.404642 A    
C8    H12   1.105397 S    
C26   H26   1.078835 S    
C12   O31   1.402707 S    
C2    O36   1.403713 S    
C46   O44   1.366744 S    
C7    O26   1.403096 S    
C38   C39   1.436357 A    
O10   C8    1.400131 S    
C24   C50   1.483443 S    
C4    C54   1.475108 S    
C25   C26   1.409911 A    
C29   C33   1.412856 A    
P3    O11   1.749400 S    
P1    Ba1   3.414630 S    
C52   H50   1.081997 S    
C7    H11   1.119362 S    
O7    Ba1   2.858077 S    
C35   O45   1.372083 S    
C6    H9    1.090979 S    
C1    H2    1.113520 S    
C37   O42   1.377739 S    
P4    C31   1.886465 S    
C2    C3    1.531371 S    
P2    O20   1.574693 S    
P5    O18   1.546880 D    
C44   H33   1.074292 S    
C32   C49   1.483374 S    
C14   H22   1.115829 S    
C13   C14   1.518626 S    
P7    O21   1.580569 D    
C54   O47   1.213638 D    
C30   C34   1.392244 A    
O13   Ba2   2.945351 S    
C39   C40   1.419764 A    
C50   O39   1.215808 D    
P5    O17   1.747413 S    
C19   C52   1.485847 S    
O45   H54   0.977927 S    
C4    H5    1.100419 S    
O37   H46   0.990475 S    
C11   O30   1.397052 S    
C11   C12   1.530527 S    
Ba1   O16   2.816131 S    
P7    O22   1.770059 S    
P8    O23   1.541792 D    
P1    O5    1.764334 S    
C17   C18   1.387527 A    
O36   H45   0.988301 S    
P4    O12   1.523230 D    
C15   O24   1.415135 S    
C19   C20   1.443902 A    
C2    H3    1.111029 S    
O19   C13   1.402741 S    
P4    O15   1.764630 S    
C26   C27   1.404471 A    
C3    O46   1.405038 S    
C39   C53   1.483242 S    
C10   H15   1.101424 S    
O3    P6    1.753837 S    
C29   H28   1.083805 S    
P1    O2    1.560318 S    
C53   H52   1.081837 S    
C9    H14   1.107568 S    
C15   H25   1.115764 S    
Ba1   Ba2   4.594236 S    
C47   O25   1.216200 D    
O44   H53   0.989082 S    
C9    O27   1.405231 S    
P3    O9    1.541949 D    
O16   Ba2   2.941166 S    
Ba1   O20   2.942083 S    
C3    H4    1.111431 S    
P8    O24   1.761399 S    
O11   C2    1.399835 S    
O28   H37   0.994757 S    
P7    C40   1.897522 S    
C5    H6    1.106315 S    
O27   H36   0.992320 S    
H1    C10   1.105714 S    
O42   H51   0.987954 S    
C9    O28   1.395622 S    
P4    Ba2   3.415123 S    
P3    O8    1.754154 S    
C38   C45   1.530499 S    
O30   H39   0.987976 S    
C4    C5    1.525785 S    
O4    P6    1.538778 D    
P8    C30   1.847971 S    
O33   H42   0.997986 S    
C32   C33   1.442290 A    
C49   O38   1.220648 D    
C20   C21   1.413731 A    
C31   C34   1.388570 A    
O32   H41   0.990873 S    
C41   C45   1.412631 A    
C11   H16   1.110707 S    
O16   P7    1.763365 S    
C27   C28   1.406391 A    
C42   C46   1.408209 A    
C7    H10   1.113750 S    
O6    P6    1.748998 S    
C51   O40   1.218216 D    
C21   C22   1.399819 A    
C17   C22   1.391049 A    
P3    C42   1.848028 S    
C23   C51   1.493433 S    
P5    C36   1.868800 S    
C16   C48   1.508382 S    
C47   H34   1.079182 S    
O31   H40   0.992168 S    
C11   O22   1.413437 S    
C1    O32   1.407313 S    
C43   C46   1.394796 A    
C53   O43   1.221504 D    
O6    C10   1.397903 S    
C6    C7    1.535677 S    
O26   H35   0.992575 S    
C15   C16   1.559654 S    
P2    O7    1.522158 D    
C31   C32   1.439658 A    
C48   H43   1.084862 S    
P2    Ba1   3.424802 S    
Ba2   O20   2.815500 S    
C35   C36   1.399449 A    
C1    O29   1.403528 S    
C12   H18   1.115763 S    
C8    H13   1.109042 S    
C51   H49   1.092393 S    
C52   O41   1.220086 D    
C3    H19   1.107920 S    
C37   C38   1.424835 A    
P2    O10   1.747891 S    
C27   H27   1.084469 S    
O14   Ba2   2.808447 S    
C15   O33   1.409813 S    
C13   H20   1.108523 S    
P5    O19   1.745610 S    
O5    C6    1.393946 S    
C29   C30   1.406401 A    
C23   C24   1.434913 A    
O3    Ba1   2.809043 S    
P2    C43   1.859572 S    
C48   O34   1.218266 D    
C49   H47   1.082333 S    
O35   H44   0.994658 S    
O1    Ba1   2.837510 S    
C25   C33   1.529283 S    
O8    Ba1   2.816163 S    
C44   C45   1.423217 A    
C34   H30   1.078226 S    
C4    O15   1.397286 S    
C23   C28   1.433583 A    
P6    C22   1.848317 S    
