data_mof_unit_24842.cif
_audit_creation_date              2012-12-10T16:57:02-0500
_audit_creation_method            fapswitch 2.2
_symmetry_space_group_name_H-M    P1
_symmetry_Int_Tables_number       1
_space_group_crystal_system       triclinic
_cell_length_a                    7.782228
_cell_length_b                    8.571562
_cell_length_c                    16.553195
_cell_angle_alpha                 91.631749
_cell_angle_beta                  80.782418
_cell_angle_gamma                 93.664474
_cell_volume                      1087.52176909

loop_
_atom_site_label
_atom_site_type_symbol
_atom_type_description
_atom_site_fract_x
_atom_site_fract_y
_atom_site_fract_z
_atom_type_partial_charge
C1    C     C_R   0.546107 0.794727 0.497912 0.957167
C2    C     C_R   0.424742 0.673036 0.245408 -0.190433
C3    C     C_R   0.519797 0.434766 0.871497 0.215174
C4    C     C_R   0.443987 0.739210 0.168922 0.170944
C5    C     C_R   0.446601 0.570107 0.909200 -0.005743
C6    C     C_R   0.581715 0.697270 0.108240 0.003458
C7    C     C_R   0.378486 0.679011 0.862721 0.194411
C8    C     C_R   0.711471 0.604641 0.128173 0.203231
C9    C     C_R   0.387180 0.653401 0.779196 -0.212206
C10   C     C_R   0.692446 0.540943 0.205811 -0.202327
C11   C     C_2   0.445867 0.597264 0.996226 0.477754
C12   C     C_R   0.453895 0.205271 0.502034 0.974003
C13   C     C_2   0.558837 0.703804 0.022833 0.499685
C14   C     C_2   0.570407 0.958185 0.496650 -0.365115
C15   C     C_2   0.429603 0.041785 0.503157 -0.372154
C16   C     C_R   0.477549 0.502635 0.654290 0.888922
C17   C     C_R   0.524098 0.508724 0.345777 0.896342
C18   C     C_R   0.466535 0.522848 0.741553 -0.096472
C19   C     C_R   0.544446 0.568646 0.263187 -0.102854
C20   C     C_R   0.532842 0.413688 0.787226 -0.233564
F1    F     F_    0.670151 0.796199 0.969939 -0.626186
F2    F     F_    0.349077 0.494647 0.049191 -0.631380
H1    H     H_    0.591634 0.311357 0.757599 0.167324
H2    H     H_    0.315748 0.704087 0.291071 0.176404
H3    H     H_    0.790289 0.466702 0.220451 0.186596
H4    H     H_    0.335088 0.737184 0.743151 0.164651
H5    H     H_    0.703388 0.009194 0.490429 0.184000
H6    H     H_    0.296626 0.990767 0.509356 0.182855
H7    H     H_    0.022579 0.380219 0.439346 0.199745
H8    H     H_    0.977433 0.619820 0.560634 0.198358
I1    I     I_    0.257587 0.882428 0.912945 -0.133224
I2    I     I_    0.929867 0.545368 0.041633 -0.110129
I3    I     I_    0.254400 0.893769 0.147945 -0.199862
I4    I     I_    0.614475 0.258194 0.937241 -0.102511
N1    N     N_2   0.953500 0.457650 0.478520 -0.169741
N2    N     N_2   0.046500 0.542350 0.521480 -0.170194
O1    O     O_R   0.388470 0.738640 0.505270 -0.618228
O2    O     O_R   0.611530 0.261360 0.494730 -0.610632
O3    O     O_R   0.679650 0.711510 0.491500 -0.626319
O4    O     O_R   0.320350 0.288490 0.508500 -0.622882
O5    O     O_R   0.337210 0.515200 0.623500 -0.605595
O6    O     O_R   0.662790 0.484800 0.376500 -0.610882
O7    O     O_R   0.628380 0.488060 0.609730 -0.616827
O8    O     O_R   0.371620 0.511940 0.390270 -0.623467
Zn1   Zn    Zn3+2 0.305580 0.518120 0.509190 0.957255
Zn2   Zn    Zn3+2 0.694420 0.481880 0.490810 0.960647

loop_
_geom_bond_atom_site_label_1
_geom_bond_atom_site_label_2
_ccdc_geom_bond_type
C12   O4    A    
C2    C4    A    
C20   H1    S    
H8    N2    S    
C14   H5    S    
H7    N1    S    
C11   F2    S    
N1    N2    D    
C14   C15   D    
C12   C15   S    
C1    O1    A    
C10   C19   A    
C17   O8    A    
C13   F1    S    
N2    Zn1   S    
C6    C13   S    
C2    H2    S    
C11   C13   D    
C16   O7    A    
C15   H6    S    
O3    Zn2   S    
C10   H3    S    
C8    C10   A    
C17   C19   S    
C9    H4    S    
C5    C11   S    
C18   C20   A    
C12   O2    A    
O4    Zn1   S    
O7    Zn2   S    
O2    Zn2   S    
C4    C6    A    
C7    I1    S    
C1    O3    A    
O1    Zn1   S    
C8    I2    S    
C7    C9    A    
C9    C18   A    
C3    C20   A    
O8    Zn1   S    
C16   C18   S    
O6    Zn2   S    
C5    C7    A    
O5    Zn1   S    
C17   O6    A    
C6    C8    A    
C1    C14   S    
C3    I4    S    
C2    C19   A    
C4    I3    S    
N1    Zn2   S    
C16   O5    A    
C3    C5    A    
