data_mof_unit_23947.cif
_audit_creation_date              2012-12-10T16:37:26-0500
_audit_creation_method            fapswitch 2.2
_symmetry_space_group_name_H-M    P1
_symmetry_Int_Tables_number       1
_space_group_crystal_system       triclinic
_cell_length_a                    16.800647
_cell_length_b                    16.800642
_cell_length_c                    16.80073
_cell_angle_alpha                 66.018908
_cell_angle_beta                  66.018272
_cell_angle_gamma                 66.017146
_cell_volume                      3789.87868548

loop_
_atom_site_label
_atom_site_type_symbol
_atom_type_description
_atom_site_fract_x
_atom_site_fract_y
_atom_site_fract_z
_atom_type_partial_charge
C1    C     C_R   0.399536 0.081673 0.643029 -0.338336
C2    C     C_R   0.476858 0.688815 0.918341 -0.338838
C3    C     C_R   0.284045 0.774928 0.199707 -0.121496
C4    C     C_R   0.335532 0.731001 0.261273 -0.088189
C5    C     C_R   0.341113 0.779764 0.308376 -0.137137
C6    C     C_R   0.126916 0.704985 0.705398 0.172775
C7    C     C_R   0.220244 0.691580 0.658898 -0.137162
C8    C     C_R   0.269025 0.738666 0.664478 -0.088201
C9    C     C_R   0.225111 0.800246 0.715951 -0.121474
C10   C     C_R   0.132971 0.812605 0.764377 -0.202315
C11   C     C_R   0.084282 0.764464 0.760260 0.012609
C12   C     C_R   0.873073 0.295025 0.294615 0.172799
C13   C     C_R   0.081696 0.523146 0.311162 -0.338839
C14   C     C_R   0.779750 0.308425 0.341131 -0.137181
C15   C     C_R   0.730962 0.261337 0.335566 -0.088183
C16   C     C_R   0.774866 0.199760 0.284089 -0.121392
C17   C     C_R   0.867002 0.187401 0.235652 -0.202361
C18   C     C_R   0.915697 0.235544 0.239754 0.012587
C19   C     C_R   0.704994 0.705399 0.126919 0.172808
C20   C     C_R   0.764471 0.760263 0.084277 0.012578
C21   C     C_R   0.812630 0.764373 0.132952 -0.202364
C22   C     C_R   0.800290 0.715940 0.225087 -0.121477
C23   C     C_R   0.738712 0.664465 0.269011 -0.088187
C24   C     C_R   0.918315 0.476866 0.688816 -0.338819
C25   C     C_R   0.691608 0.658893 0.220242 -0.137130
C26   C     C_R   0.295241 0.294717 0.872873 0.172530
C27   C     C_R   0.235642 0.240005 0.915237 0.012469
C28   C     C_R   0.187705 0.236044 0.866244 -0.202199
C29   C     C_R   0.200476 0.284395 0.774051 -0.120613
C30   C     C_R   0.262223 0.335674 0.730403 -0.087784
C31   C     C_R   0.309052 0.341151 0.779502 -0.137510
C32   C     C_R   0.959093 0.179426 0.439545 0.987984
C33   C     C_R   0.040912 0.820575 0.560454 0.988009
C34   C     C_R   0.179427 0.439539 0.959103 0.988075
C35   C     C_R   0.820576 0.560451 0.040918 0.988020
C36   C     C_R   0.439550 0.959082 0.179423 0.988009
C37   C     C_R   0.560456 0.040903 0.820574 0.988034
C38   C     C_R   0.568786 0.822459 0.024130 0.985505
C39   C     C_R   0.600471 0.918322 0.356930 -0.338333
C40   C     C_R   0.431214 0.177538 0.975883 0.985550
C41   C     C_R   0.024126 0.568787 0.822460 0.985544
C42   C     C_R   0.975873 0.431215 0.177540 0.985492
C43   C     C_R   0.822459 0.024129 0.568783 0.985493
C44   C     C_R   0.177540 0.975873 0.431213 0.985504
C45   C     C_R   0.443572 0.089758 0.693659 0.444325
C46   C     C_R   0.556422 0.910180 0.306347 0.444390
C47   C     C_R   0.089826 0.693640 0.443585 0.444368
C48   C     C_R   0.910237 0.306340 0.556416 0.444361
C49   C     C_R   0.693646 0.443577 0.089842 0.444371
C50   C     C_R   0.081710 0.643037 0.399536 -0.338325
C51   C     C_R   0.306348 0.556408 0.910243 0.444372
C52   C     C_R   0.267153 0.069319 0.475326 0.469602
C53   C     C_R   0.732855 0.930705 0.524626 0.469612
C54   C     C_R   0.475365 0.267131 0.069338 0.469587
C55   C     C_R   0.524646 0.732837 0.930722 0.469627
C56   C     C_R   0.069305 0.475358 0.267143 0.469602
C57   C     C_R   0.930702 0.524651 0.732841 0.469585
C58   C     C_R   0.544264 0.010119 0.549910 0.008183
C59   C     C_R   0.455747 0.989913 0.450029 0.008178
C60   C     C_R   0.010118 0.549940 0.544253 0.008177
C61   C     C_R   0.918364 0.356939 0.600456 -0.338319
C62   C     C_R   0.989913 0.450062 0.455732 0.008171
C63   C     C_R   0.549936 0.544249 0.010144 0.008169
C64   C     C_R   0.450050 0.455728 0.989954 0.008186
C65   C     C_R   0.595744 0.962837 0.483368 0.041037
C66   C     C_R   0.404269 0.037202 0.516565 0.041051
C67   C     C_R   0.962838 0.483400 0.595727 0.041036
C68   C     C_R   0.037193 0.516603 0.404256 0.041041
C69   C     C_R   0.483397 0.595723 0.962860 0.041041
C70   C     C_R   0.516595 0.404251 0.037232 0.041042
C71   C     C_R   0.551620 0.955895 0.430592 0.042020
C72   C     C_R   0.643045 0.399528 0.081726 -0.338312
C73   C     C_R   0.448392 0.044135 0.569346 0.041999
C74   C     C_R   0.430617 0.551599 0.955929 0.042030
C75   C     C_R   0.569373 0.448376 0.044167 0.042013
C76   C     C_R   0.955907 0.430620 0.551603 0.042010
C77   C     C_R   0.044137 0.569376 0.448382 0.042017
C78   C     C_R   0.539218 0.060359 0.671385 0.043843
C79   C     C_R   0.460780 0.939615 0.328606 0.043959
C80   C     C_R   0.060384 0.671386 0.539224 0.043932
C81   C     C_R   0.939643 0.328611 0.460773 0.043918
C82   C     C_R   0.671387 0.539218 0.060403 0.043949
C83   C     C_R   0.356954 0.600449 0.918359 -0.338355
C84   C     C_R   0.328599 0.460769 0.939689 0.043887
C85   C     C_R   0.315209 0.006166 0.423954 0.027301
C86   C     C_R   0.684795 0.993845 0.576011 0.027308
C87   C     C_R   0.423969 0.315193 0.006210 0.027335
C88   C     C_R   0.576029 0.684786 0.993862 0.027295
C89   C     C_R   0.006164 0.423976 0.315201 0.027307
C90   C     C_R   0.993847 0.576028 0.684790 0.027325
C91   C     C_R   0.588212 0.065536 0.720666 -0.131634
C92   C     C_R   0.411789 0.934432 0.279330 -0.131631
C93   C     C_R   0.065559 0.720666 0.588217 -0.131636
C94   C     C_R   0.311175 0.081718 0.523106 -0.338839
C95   C     C_R   0.934453 0.279334 0.411784 -0.131636
C96   C     C_R   0.720668 0.588213 0.065572 -0.131632
C97   C     C_R   0.279332 0.411778 0.934491 -0.131514
C98   C     C_R   0.272740 0.971099 0.391726 -0.145102
C99   C     C_R   0.727259 0.028900 0.608258 -0.145090
C100  C     C_R   0.391738 0.272734 0.971132 -0.145086
C101  C     C_R   0.608269 0.727260 0.028911 -0.145098
C102  C     C_R   0.971103 0.391735 0.272737 -0.145092
C103  C     C_R   0.028901 0.608269 0.727262 -0.145068
C104  C     C_R   0.675414 0.072240 0.676732 -0.172850
C105  C     C_R   0.688837 0.918321 0.476832 -0.338850
C106  C     C_R   0.324577 0.927748 0.323254 -0.172897
C107  C     C_R   0.072243 0.676744 0.675428 -0.172884
C108  C     C_R   0.927758 0.323261 0.324577 -0.172897
C109  C     C_R   0.676744 0.675426 0.072255 -0.172906
C110  C     C_R   0.323276 0.324581 0.927783 -0.172843
C111  C     C_R   0.589174 0.022818 0.597945 -0.084100
C112  C     C_R   0.410830 0.977194 0.402015 -0.084108
C113  C     C_R   0.022822 0.597964 0.589171 -0.084088
C114  C     C_R   0.977200 0.402038 0.410820 -0.084105
C115  C     C_R   0.597963 0.589166 0.022842 -0.084118
C116  C     C_R   0.523144 0.311155 0.081736 -0.338832
C117  C     C_R   0.402023 0.410814 0.977251 -0.084122
C118  C     C_R   0.705324 0.127029 0.704878 0.172664
C119  C     C_R   0.760116 0.084531 0.764407 0.012537
C120  C     C_R   0.764149 0.133364 0.812452 -0.202288
C121  C     C_R   0.715743 0.225515 0.799913 -0.121056
C122  C     C_R   0.664356 0.269292 0.738266 -0.088046
C123  C     C_R   0.658839 0.220363 0.691297 -0.137396
C124  C     C_R   0.294602 0.873087 0.295002 0.172798
C125  C     C_R   0.239732 0.915735 0.235531 0.012595
C126  C     C_R   0.235612 0.867063 0.187375 -0.202367
H1    H     H_    0.326232 0.104514 0.663985 0.137511
H2    H     H_    0.438455 0.728002 0.869788 0.136834
H3    H     H_    0.130248 0.561552 0.271969 0.136838
H4    H     H_    0.869749 0.438473 0.727995 0.136843
H5    H     H_    0.792990 0.011885 0.779887 0.120990
H6    H     H_    0.803777 0.099414 0.860392 0.101334
H7    H     H_    0.718639 0.263116 0.837404 0.122498
H8    H     H_    0.626896 0.340651 0.728580 0.124639
H9    H     H_    0.614402 0.254076 0.647873 0.120746
H10   H     H_    0.206869 0.988384 0.220171 0.121020
H11   H     H_    0.195914 0.901134 0.139491 0.101337
H12   H     H_    0.673775 0.895480 0.335978 0.137477
H13   H     H_    0.281099 0.737459 0.162114 0.122538
H14   H     H_    0.373018 0.659653 0.270793 0.124714
H15   H     H_    0.385621 0.745938 0.351735 0.120760
H16   H     H_    0.254060 0.648208 0.614402 0.120772
H17   H     H_    0.340377 0.729119 0.627003 0.124713
H18   H     H_    0.262594 0.837824 0.718899 0.122521
H19   H     H_    0.098910 0.860497 0.804069 0.101321
H20   H     H_    0.011631 0.779841 0.793120 0.120992
H21   H     H_    0.745943 0.351793 0.385632 0.120748
H22   H     H_    0.659615 0.270879 0.373055 0.124684
H23   H     H_    0.104578 0.663975 0.326234 0.137489
H24   H     H_    0.737378 0.162178 0.281155 0.122528
H25   H     H_    0.901054 0.139507 0.195963 0.101337
H26   H     H_    0.988347 0.220165 0.206885 0.121002
H27   H     H_    0.779836 0.793125 0.011627 0.121004
H28   H     H_    0.860523 0.804063 0.098886 0.101343
H29   H     H_    0.837883 0.718881 0.262560 0.122542
H30   H     H_    0.729182 0.626982 0.340358 0.124713
H31   H     H_    0.648240 0.614393 0.254064 0.120757
H32   H     H_    0.220034 0.207137 0.987890 0.120965
H33   H     H_    0.139694 0.196492 0.900087 0.101301
H34   H     H_    0.895540 0.335975 0.673761 0.137475
H35   H     H_    0.163092 0.281535 0.736318 0.122421
H36   H     H_    0.272100 0.373082 0.659008 0.124557
H37   H     H_    0.352557 0.385508 0.745882 0.120772
H38   H     H_    0.331849 0.125372 0.783937 0.330892
H39   H     H_    0.668202 0.874179 0.216283 0.331117
H40   H     H_    0.125812 0.783715 0.331807 0.331113
H41   H     H_    0.874356 0.216223 0.668177 0.331018
H42   H     H_    0.783731 0.331809 0.125801 0.331105
H43   H     H_    0.216302 0.668203 0.874225 0.331085
H44   H     H_    0.157323 0.165936 0.509223 0.325374
H45   H     H_    0.663995 0.326225 0.104575 0.137485
H46   H     H_    0.842672 0.834059 0.490756 0.325372
H47   H     H_    0.509302 0.157287 0.165923 0.325370
H48   H     H_    0.490740 0.842666 0.834102 0.325358
H49   H     H_    0.165923 0.509253 0.157316 0.325375
H50   H     H_    0.834075 0.490761 0.842661 0.325374
H51   H     H_    0.336017 0.673750 0.895492 0.137471
H52   H     H_    0.271985 0.130274 0.561512 0.136820
H53   H     H_    0.728028 0.869765 0.438428 0.136846
H54   H     H_    0.561553 0.271964 0.130286 0.136840
O1    O     O_R   0.982940 0.138950 0.510160 -0.562389
O2    O     O_R   0.982940 0.510160 0.138950 -0.593300
O3    O     O_R   0.861050 0.017060 0.489840 -0.593305
O4    O     O_R   0.138950 0.982940 0.510160 -0.593313
O5    O     O_R   0.867700 0.025880 0.612340 -0.646398
O6    O     O_R   0.132300 0.974120 0.387660 -0.646448
O7    O     O_R   0.025880 0.612340 0.867700 -0.646436
O8    O     O_R   0.974120 0.387660 0.132300 -0.646447
O9    O     O_R   0.612340 0.867700 0.025880 -0.646454
O10   O     O_R   0.387660 0.132300 0.974120 -0.646340
O11   O     O_R   0.387660 0.974120 0.132300 -0.651330
O12   O     O_R   0.017060 0.861050 0.489840 -0.562356
O13   O     O_R   0.612340 0.025880 0.867700 -0.651396
O14   O     O_R   0.132300 0.387660 0.974120 -0.651481
O15   O     O_R   0.867700 0.612340 0.025880 -0.651341
O16   O     O_R   0.974120 0.132300 0.387660 -0.651341
O17   O     O_R   0.025880 0.867700 0.612340 -0.651345
O18   O     O_3   0.393499 0.132911 0.760462 -0.758711
O19   O     O_3   0.606459 0.866909 0.239630 -0.758949
O20   O     O_3   0.133087 0.760366 0.393550 -0.758929
O21   O     O_3   0.866984 0.239613 0.606473 -0.758845
O22   O     O_3   0.760374 0.393542 0.133094 -0.758938
O23   O     O_R   0.138950 0.510160 0.982940 -0.562331
O24   O     O_3   0.239627 0.606451 0.866975 -0.758889
O25   O     O_3   0.180775 0.124830 0.470801 -0.753851
O26   O     O_3   0.819229 0.875185 0.529158 -0.753822
O27   O     O_3   0.470866 0.180744 0.124829 -0.753813
O28   O     O_3   0.529175 0.819207 0.875200 -0.753836
O29   O     O_3   0.124818 0.470830 0.180769 -0.753834
O30   O     O_3   0.875182 0.529181 0.819214 -0.753834
O31   O     O_R   0.861050 0.489840 0.017060 -0.562389
O32   O     O_R   0.510160 0.982940 0.138950 -0.562364
O33   O     O_R   0.489840 0.017060 0.861050 -0.562378
O34   O     O_R   0.489840 0.861050 0.017060 -0.593310
O35   O     O_R   0.510160 0.138950 0.982940 -0.593346
O36   O     O_R   0.017060 0.489840 0.861050 -0.593350
Zn1   Zn    Zn3+2 0.004880 0.004880 0.583590 0.969717
Zn2   Zn    Zn3+2 0.995120 0.995120 0.416410 0.969759
Zn3   Zn    Zn3+2 0.004880 0.583590 0.004880 0.969779
Zn4   Zn    Zn3+2 0.995120 0.416410 0.995120 0.969582
Zn5   Zn    Zn3+2 0.583590 0.004880 0.004880 0.969674
Zn6   Zn    Zn3+2 0.416410 0.995120 0.995120 0.969689

loop_
_geom_bond_atom_site_label_1
_geom_bond_atom_site_label_2
_ccdc_geom_bond_type
C8    C9    A    
C126  H11   S    
C100  C110  A    
H41   O21   S    
C89   C102  A    
C36   O11   A    
C6    C7    A    
C19   C20   A    
O12   Zn2   S    
C91   C104  A    
C32   O16   A    
C85   C112  A    
O15   Zn3   S    
C88   C101  A    
C48   C61   A    
C3    C126  A    
C7    C8    A    
O7    Zn3   S    
C35   C96   S    
C42   O2    A    
C27   H32   S    
C55   O28   S    
O6    Zn2   S    
C5    C124  A    
C26   C27   A    
C54   C87   A    
O5    Zn1   S    
C79   C112  A    
C33   O12   A    
C84   C97   A    
C28   C29   A    
C38   O34   A    
C82   C115  A    
C62   C114  A    
C38   C101  S    
C2    C55   A    
H39   O19   S    
C59   C66   A    
C46   C79   A    
C81   C95   A    
O9    Zn5   S    
C43   O5    A    
C44   O6    A    
C101  C109  A    
C15   C16   A    
O35   Zn5   S    
C34   C97   S    
C48   C81   A    
C41   O7    A    
C53   O26   S    
C94   H52   S    
C90   C113  A    
C37   O33   A    
C55   C88   A    
C35   O31   A    
C118  C119  A    
C122  H8    S    
C85   C98   A    
O34   Zn6   S    
C24   C67   A    
C16   H24   S    
C49   O22   S    
C44   C98   S    
C63   C69   A    
C60   C67   A    
H42   O22   S    
C84   C117  A    
C49   C72   A    
C54   C116  A    
C81   C114  A    
C119  H5    S    
C21   H28   S    
C102  C108  A    
C78   C111  A    
C64   C70   A    
C2    C69   A    
C9    C10   A    
C44   O4    A    
C45   C78   A    
C35   O15   A    
C66   C94   A    
C13   C56   A    
C63   C115  A    
C36   C92   S    
O13   Zn5   S    
C99   C104  A    
C39   H12   S    
O2    Zn3   S    
C21   C22   A    
H48   O28   S    
C64   C74   A    
C62   C76   A    
C60   C113  A    
C17   H25   S    
C47   C80   A    
C105  H53   S    
C72   C75   A    
O17   Zn1   S    
C42   C102  S    
C65   C105  A    
C9    H18   S    
H38   O18   S    
C59   C112  A    
C47   C50   A    
C104  C118  S    
O32   Zn5   S    
O8    Zn4   S    
C61   C76   A    
C31   H37   S    
C60   C77   A    
C82   C96   A    
C57   C90   A    
C37   C91   S    
C58   C111  A    
C74   C83   A    
O36   Zn4   S    
C32   O1    A    
C52   C85   A    
H44   O25   S    
C20   H27   S    
C61   H34   S    
C6    C11   A    
C12   C108  S    
C41   O36   A    
C83   H51   S    
C16   C17   A    
O14   Zn4   S    
C70   C116  A    
C45   O18   S    
C65   C71   A    
C66   C73   A    
C48   O21   S    
C28   H33   S    
C64   C117  A    
C41   C103  S    
C123  H9    S    
C43   O3    A    
C37   O13   A    
C49   C82   A    
C72   H45   S    
C29   C30   A    
O31   Zn4   S    
C53   C105  A    
C4    H14   S    
O33   Zn6   S    
C58   C65   A    
C5    H15   S    
C33   O17   A    
C34   O23   A    
C6    C107  S    
C38   O9    A    
C32   C95   S    
C17   C18   A    
C79   C92   A    
C69   C74   A    
H47   O27   S    
C20   C21   A    
C52   C94   A    
C86   C99   A    
O11   Zn6   S    
C121  C122  A    
C53   C86   A    
C36   O32   A    
C39   C46   A    
C125  H10   S    
C92   C106  A    
C56   C89   A    
C12   C14   A    
O3    Zn2   S    
C10   C11   A    
C116  H54   S    
O1    Zn1   S    
C125  C126  A    
C47   O20   S    
C3    H13   S    
C30   H36   S    
C12   C18   A    
C3    C4    A    
C50   C77   A    
C51   C83   A    
C51   O24   S    
C70   C75   A    
C120  C121  A    
C87   C100  A    
C24   C57   A    
C42   O8    A    
C68   C77   A    
C26   C110  S    
C57   O30   S    
O4    Zn1   S    
C13   H3    S    
C120  H6    S    
C52   O25   S    
C22   C23   A    
C1    H1    S    
C43   C99   S    
C4    C5    A    
C33   C93   S    
C40   C100  S    
O16   Zn2   S    
C119  C120  A    
C11   H20   S    
C87   C117  A    
C15   H22   S    
O23   Zn3   S    
C78   C91   A    
C96   C109  A    
C98   C106  A    
C62   C68   A    
C1    C73   A    
C88   C115  A    
O10   Zn6   S    
C86   C111  A    
C89   C114  A    
C56   O29   S    
C93   C107  A    
H43   O24   S    
C25   H31   S    
C97   C110  A    
C50   H23   S    
C1    C45   A    
C46   O19   S    
C30   C31   A    
C19   C109  S    
C63   C75   A    
C14   H21   S    
C40   O35   A    
H46   O26   S    
H50   O30   S    
C8    H17   S    
C118  C123  A    
H49   O29   S    
C19   C25   A    
H40   O20   S    
C90   C103  A    
C95   C108  A    
C10   H19   S    
C22   H29   S    
C24   H4    S    
C26   C31   A    
C23   C25   A    
C40   O10   A    
C80   C113  A    
C54   O27   S    
C34   O14   A    
C106  C124  S    
C27   C28   A    
C122  C123  A    
C39   C71   A    
C14   C15   A    
C103  C107  A    
C67   C76   A    
C29   H35   S    
C121  H7    S    
C80   C93   A    
C23   H30   S    
C51   C84   A    
C7    H16   S    
C58   C73   A    
C59   C71   A    
C124  C125  A    
C18   H26   S    
C13   C68   A    
C2    H2    S    
