data_mof_unit_37333.cif
_audit_creation_date              2013-03-05T16:03:41-0500
_audit_creation_method            fapswitch 2.2
_symmetry_space_group_name_H-M    P1
_symmetry_Int_Tables_number       1
_space_group_crystal_system       triclinic
_cell_length_a                    8.772752
_cell_length_b                    10.755292
_cell_length_c                    9.606666
_cell_angle_alpha                 89.564535
_cell_angle_beta                  97.839246
_cell_angle_gamma                 91.439988
_cell_volume                      897.660264904

loop_
_atom_site_label
_atom_site_type_symbol
_atom_site_description
_atom_site_fract_x
_atom_site_fract_y
_atom_site_fract_z
_atom_type_partial_charge
O1    O     O_R   0.499990 0.319660 0.618740 -0.532753
O2    O     O_R   0.500010 0.680340 0.381260 -0.543415
O3    O     O_R   0.499990 0.319630 0.381170 -0.527989
O4    O     O_R   0.500010 0.680370 0.618830 -0.579778
C1    C     C_R   0.501126 0.262748 0.500612 0.970289
C2    C     C_R   0.498874 0.737248 0.499388 0.953028
O5    O     O_R   0.274840 0.500010 0.591370 -0.502307
O6    O     O_R   0.725160 0.499990 0.408630 -0.507238
O7    O     O_R   0.274830 0.499980 0.353800 -0.571535
O8    O     O_R   0.725170 0.500020 0.646200 -0.642376
C3    C     C_R   0.204443 0.496038 0.464441 0.843543
C4    C     C_R   0.795577 0.503879 0.535551 0.826622
Cu1   Cu    Cu3+1 0.500000 0.500020 0.640660 1.100111
Cu2   Cu    Cu3+1 0.500000 0.499980 0.359340 1.132125
N1    N     N_R   0.500040 0.500030 0.852080 -0.302706
N2    N     N_R   0.499960 0.499970 0.147920 -0.282988
C5    C     C_2   0.038614 0.480697 0.447874 0.284445
C6    C     C_2   0.961434 0.519112 0.552087 0.289402
C7    C     C_R   0.633808 0.067058 0.473854 0.177697
C8    C     C_R   0.366216 0.932924 0.526185 0.180652
C9    C     C_R   0.632264 0.936389 0.473020 0.344881
C10   C     C_R   0.367746 0.063590 0.526989 0.350000
C11   C     C_R   0.498014 0.871311 0.497709 -0.228058
C12   C     C_R   0.501998 0.128674 0.502303 -0.237050
C13   C     C_R   0.412470 0.414362 0.065825 0.413119
C14   C     C_R   0.582969 0.588311 0.937129 0.389420
C15   C     C_R   0.414317 0.413109 0.916223 0.275129
C16   C     C_R   0.582822 0.587574 0.084265 0.343178
O9    O     O_3   0.962368 0.419687 0.330797 -0.661156
H1    H     H_    0.038294 0.389196 0.272400 0.366394
O10   O     O_3   0.037829 0.580019 0.669168 -0.659186
H2    H     H_    0.962101 0.610318 0.727813 0.350444
N3    N     N_R   0.767897 0.137209 0.446262 0.118212
O11   O     O_R   0.837750 0.212749 0.540595 -0.343261
O12   O     O_R   0.820927 0.125073 0.327170 -0.272004
N4    N     N_R   0.232151 0.862770 0.553837 0.120373
O13   O     O_R   0.162271 0.787210 0.459541 -0.345856
O14   O     O_R   0.179192 0.874905 0.672962 -0.269455
O15   O     O_3   0.760265 0.868908 0.454258 -0.645503
H3    H     H_    0.852693 0.924280 0.461955 0.393358
O16   O     O_3   0.239729 0.131061 0.545718 -0.637142
H4    H     H_    0.147315 0.075674 0.538079 0.392045
O17   O     O_3   0.322651 0.331530 0.131688 -0.657878
H5    H     H_    0.255068 0.281493 0.061522 0.364703
O18   O     O_3   0.667408 0.682794 0.884540 -0.640956
H6    H     H_    0.702270 0.654356 0.798072 0.363755
N5    N     N_R   0.328352 0.318589 0.833759 0.154119
O19   O     O_R   0.377511 0.205294 0.842840 -0.289717
O20   O     O_R   0.184632 0.336733 0.786153 -0.289349
N6    N     N_R   0.671300 0.681346 0.165854 0.195929
O21   O     O_R   0.815259 0.661674 0.210961 -0.269683
O22   O     O_R   0.624781 0.795387 0.156038 -0.253633

loop_
_geom_bond_atom_site_label_1
_geom_bond_atom_site_label_2
_geom_bond_distance
_ccdc_geom_bond_type
N2    C16   1.366825 A    
N6    O22   1.301056 A    
O7    Cu2   1.968809 S    
O9    H1    0.990775 S    
C13   C15   1.439652 A    
C5    O9    1.388136 S    
O16   H4    0.988777 S    
N1    C15   1.378954 A    
O10   H2    0.990314 S    
C9    O15   1.385041 S    
C8    C11   1.406541 A    
O5    Cu1   1.967426 S    
O6    C4    1.289977 A    
C13   O17   1.380955 S    
N4    O14   1.301111 A    
N6    O21   1.300098 A    
N5    O20   1.300235 A    
Cu1   Cu2   2.702551 S    
O5    C3    1.290002 A    
O7    C3    1.299947 A    
O2    C2    1.294785 A    
O3    Cu2   1.949435 S    
O8    C4    1.300103 A    
O17   H5    0.987904 S    
O1    C1    1.294807 A    
C2    C11   1.442058 S    
O4    C2    1.295168 A    
N4    O13   1.300583 A    
N3    O12   1.301110 A    
C8    C10   1.405151 A    
C7    C12   1.406581 A    
Cu2   N2    2.030993 S    
Cu1   N1    2.030995 S    
C9    C11   1.401961 A    
O2    Cu2   1.952809 S    
C10   C12   1.401994 A    
C10   O16   1.385033 S    
O1    Cu1   1.952808 S    
C15   N5    1.428469 S    
C8    N4    1.435512 S    
N5    O19   1.301126 A    
O15   H3    0.988773 S    
N3    O11   1.300589 A    
C5    C6    1.355244 D    
C7    N3    1.435508 S    
C4    C6    1.447251 S    
N2    C13   1.367197 A    
C16   N6    1.428523 S    
C1    C12   1.442163 S    
N1    C14   1.383221 A    
O6    Cu2   1.967425 S    
C6    O10   1.388112 S    
C14   O18   1.375881 S    
C7    C9    1.405178 A    
O18   H6    0.977220 S    
C14   C16   1.413621 A    
C3    C5    1.447102 S    
O4    Cu1   1.949435 S    
O3    C1    1.295193 A    
O8    Cu1   1.968807 S    
