data_mof_unit_54058.cif
_audit_creation_date              2012-10-26T19:25:19-0400
_audit_creation_method            fapswitch 2.2
_symmetry_space_group_name_H-M    P1
_symmetry_Int_Tables_number       1
_space_group_crystal_system       triclinic
_cell_length_a                    12.324567
_cell_length_b                    13.184626
_cell_length_c                    19.340897
_cell_angle_alpha                 77.513723
_cell_angle_beta                  101.312611
_cell_angle_gamma                 116.571424
_cell_volume                      2726.50645655

loop_
_atom_site_label
_atom_site_type_symbol
_atom_type_description
_atom_site_fract_x
_atom_site_fract_y
_atom_site_fract_z
_atom_type_partial_charge
C1    C     C_R   0.854863 0.286522 0.506520 0.528573
C2    C     C_R   0.001116 0.501896 0.146113 0.034003
C3    C     C_R   0.275868 0.021438 0.405586 -0.127969
C4    C     C_R   0.000905 0.501523 0.632245 0.552756
C5    C     C_R   0.227772 0.834612 0.475801 -0.002887
C6    C     C_R   0.814993 0.085681 0.555512 -0.129803
C7    C     C_R   0.735793 0.971224 0.570979 -0.141979
C8    C     C_R   0.612465 0.933485 0.545926 -0.121731
C9    C     C_R   0.566082 0.009636 0.501969 0.033240
C10   C     C_R   0.649893 0.123516 0.479804 0.023888
C11   C     C_R   0.439566 0.976279 0.478588 0.030005
C12   C     C_R   0.003699 0.506093 0.707874 0.015813
C13   C     C_R   0.400347 0.053260 0.429070 0.051014
C14   C     C_R   0.485878 0.159878 0.401930 -0.136839
C15   C     C_R   0.608869 0.193737 0.425848 -0.119925
C16   C     C_R   0.145031 0.713401 0.489888 0.534527
C17   C     C_R   0.350418 0.868627 0.503013 -0.139039
C18   C     C_R   0.189888 0.912158 0.428472 -0.132169
C19   C     C_R   0.772926 0.163477 0.511656 -0.006099
C20   C     C_R   0.346538 0.327160 0.612532 -0.137982
C21   C     C_R   0.759912 0.646050 0.404152 0.047315
C22   C     C_R   0.663759 0.678358 0.383401 -0.160191
C23   C     C_R   0.001608 0.503383 0.069808 0.344340
C24   C     C_R   0.560219 0.623461 0.419442 -0.135158
C25   C     C_R   0.551639 0.535006 0.477087 0.004989
C26   C     C_R   0.652952 0.505156 0.496558 0.183662
C27   C     C_R   0.447125 0.475356 0.516229 -0.026475
C28   C     C_R   0.000258 0.500132 0.367603 0.536729
C29   C     C_R   0.446545 0.387522 0.573349 -0.004161
C30   C     C_R   0.545925 0.359967 0.591423 -0.173500
C31   C     C_R   0.646939 0.417904 0.554257 -0.095735
C32   C     C_R   0.342206 0.498102 0.501274 -0.010790
C33   C     C_R   0.246522 0.355340 0.596637 0.440300
C34   C     C_R   0.002740 0.506658 0.929259 0.347046
C35   C     C_R   0.112708 0.529682 0.754860 0.254762
C36   C     C_R   0.111040 0.528150 0.827103 -0.102124
C37   C     C_R   0.003381 0.508021 0.852982 -0.013567
C38   C     C_R   0.896521 0.488860 0.805499 -0.139090
C39   C     C_R   0.896672 0.487702 0.733704 -0.185517
C40   C     C_3   0.284115 0.669281 0.710651 -0.106298
C41   C     C_3   0.173359 0.280762 0.706677 -0.110574
C42   C     C_R   0.097838 0.494380 0.195970 -0.120971
C43   C     C_R   0.097391 0.493269 0.268123 -0.134323
C44   C     C_R   0.000526 0.500253 0.291632 0.013943
C45   C     C_R   0.903864 0.507783 0.241847 -0.137173
C46   C     C_R   0.904000 0.508300 0.169794 -0.120615
Cu1   Cu    Cu3+1 0.098280 0.475420 0.516260 1.005572
Cu2   Cu    Cu3+1 0.901720 0.524580 0.483740 0.910699
H1    H     H_    0.457670 0.217394 0.361726 0.110342
H2    H     H_    0.194883 0.543961 0.862583 0.147987
H3    H     H_    0.334401 0.562739 0.458403 0.121978
H4    H     H_    0.839945 0.689245 0.375913 0.126186
H5    H     H_    0.488632 0.652000 0.401168 0.101915
H6    H     H_    0.669535 0.746242 0.339241 0.107976
H7    H     H_    0.718655 0.391368 0.573142 0.181328
H8    H     H_    0.812113 0.473196 0.823884 0.147613
H9    H     H_    0.812295 0.470606 0.698580 0.130427
H10   H     H_    0.173881 0.489076 0.179383 0.134944
H11   H     H_    0.173271 0.487641 0.305352 0.125753
H12   H     H_    0.245530 0.079853 0.367765 0.110626
H13   H     H_    0.827776 0.512977 0.258495 0.128109
H14   H     H_    0.828229 0.514344 0.132685 0.137033
H15   H     H_    0.094997 0.886758 0.406821 0.124397
H16   H     H_    0.230017 0.702711 0.666689 0.115151
H17   H     H_    0.369579 0.685749 0.690382 0.137906
H18   H     H_    0.309921 0.716747 0.756732 0.110492
H19   H     H_    0.093553 0.266300 0.732259 0.152906
H20   H     H_    0.251754 0.357857 0.725454 0.154573
H21   H     H_    0.192060 0.203643 0.724568 0.094383
H22   H     H_    0.373705 0.808089 0.542538 0.108468
H23   H     H_    0.908916 0.113860 0.579584 0.166318
H24   H     H_    0.556763 0.843660 0.560814 0.102390
H25   H     H_    0.769504 0.911843 0.604550 0.124158
H26   H     H_    0.671188 0.274618 0.399885 0.150826
H27   H     H_    0.546184 0.293095 0.635345 0.109929
H28   H     H_    0.346247 0.258029 0.654711 0.089541
N1    N     N_R   0.903240 0.499743 0.953586 -0.229371
N2    N     N_R   0.902753 0.498281 0.022491 -0.233110
N3    N     N_R   0.101034 0.510162 0.045488 -0.233338
N4    N     N_R   0.101611 0.511855 0.976575 -0.234875
N5    N     N_R   0.246290 0.438200 0.540910 -0.218283
N6    N     N_R   0.754310 0.561190 0.459520 -0.236908
O1    O     O_R   0.972510 0.318130 0.520450 -0.453520
O2    O     O_3   0.143019 0.295181 0.632014 -0.537951
O3    O     O_R   0.806530 0.359650 0.492990 -0.534622
O4    O     O_R   0.083010 0.479220 0.613590 -0.409394
O5    O     O_R   0.917030 0.520740 0.586130 -0.535459
O6    O     O_R   0.193470 0.640350 0.507010 -0.516789
O7    O     O_R   0.027490 0.681870 0.479550 -0.505343
O8    O     O_R   0.082970 0.479260 0.413870 -0.512474
O9    O     O_R   0.916990 0.520780 0.386410 -0.517263
O10   O     O_3   0.220647 0.550253 0.731384 -0.565453

loop_
_geom_bond_atom_site_label_1
_geom_bond_atom_site_label_2
_ccdc_geom_bond_type
C27   C29   A    
C34   C37   S    
C35   C36   A    
C42   H10   S    
C7    C8    A    
C22   H6    S    
C4    O5    A    
N1    N2    A    
C2    C46   A    
C32   N5    A    
C29   C30   A    
C46   H14   S    
C36   C37   A    
C10   C15   A    
C34   N1    A    
C30   C31   A    
C18   H15   S    
C14   H1    S    
C4    O4    A    
C39   H9    S    
C20   H28   S    
C3    C18   A    
C5    C16   S    
C34   N4    A    
C8    C9    A    
Cu2   O9    S    
Cu1   O1    S    
C4    C12   S    
C9    C10   A    
C3    C13   A    
C43   H11   S    
C35   O10   S    
C26   C31   A    
C26   N6    A    
C40   H18   S    
C21   C22   A    
C41   H20   S    
C20   C29   A    
C1    O3    A    
C6    H23   S    
C8    H24   S    
C1    C19   S    
Cu1   O4    S    
C24   C25   A    
C41   H19   S    
C5    C18   A    
C25   C26   A    
C45   C46   A    
C41   O2    S    
C28   C44   S    
C43   C44   A    
C32   H3    S    
C37   C38   A    
C6    C19   A    
Cu1   Cu2   S    
C10   C19   A    
C7    H25   S    
Cu2   O5    S    
C38   H8    S    
C40   O10   S    
C12   C35   A    
C9    C11   A    
C20   C33   A    
Cu2   O7    S    
Cu1   O8    S    
C22   C24   A    
C1    O1    A    
C42   C43   A    
C36   H2    S    
C44   C45   A    
C41   H21   S    
C11   C17   A    
C27   C32   A    
C14   C15   A    
C6    C7    A    
C25   C27   A    
C40   H16   S    
C40   H17   S    
C23   N3    A    
Cu1   O6    S    
C12   C39   A    
C24   H5    S    
C3    H12   S    
C30   H27   S    
C11   C13   A    
C38   C39   A    
C33   N5    A    
C2    C42   A    
C45   H13   S    
Cu2   N6    S    
C28   O9    A    
Cu1   N5    S    
C23   N2    A    
C33   O2    S    
N3    N4    A    
C16   O7    A    
C15   H26   S    
C5    C17   A    
C21   N6    A    
C2    C23   S    
C16   O6    A    
Cu2   O3    S    
C28   O8    A    
C31   H7    S    
C13   C14   A    
C17   H22   S    
C21   H4    S    
