data_mof_unit_61045.cif
_audit_creation_date              2012-12-10T19:58:42-0500
_audit_creation_method            fapswitch 2.2
_symmetry_space_group_name_H-M    P1
_symmetry_Int_Tables_number       1
_space_group_crystal_system       triclinic
_cell_length_a                    38.645355
_cell_length_b                    32.070631
_cell_length_c                    21.668014
_cell_angle_alpha                 90.136901
_cell_angle_beta                  123.86919
_cell_angle_gamma                 89.844679
_cell_volume                      22297.8727903

loop_
_atom_site_label
_atom_site_type_symbol
_atom_type_description
_atom_site_fract_x
_atom_site_fract_y
_atom_site_fract_z
_atom_type_partial_charge
C1    C     C_R   0.919298 0.000028 0.418842 0.928014
C2    C     C_R   0.080697 0.999970 0.581069 0.926603
C3    C     C_R   0.419298 0.500029 0.418851 0.927974
C4    C     C_R   0.580697 0.499984 0.581085 0.928573
C5    C     C_R   0.993549 0.000290 0.679989 -0.130429
C6    C     C_R   0.006849 0.999882 0.320414 -0.162051
C7    C     C_R   0.493623 0.500237 0.680081 -0.138093
C8    C     C_R   0.506356 0.499724 0.319891 -0.137963
C9    C     C_R   0.019673 0.972459 0.736815 -0.273106
C10   C     C_R   0.982105 0.970830 0.264904 -0.198707
C11   C     C_R   0.519620 0.472232 0.736710 -0.257404
C12   C     C_R   0.480416 0.527782 0.263317 -0.258737
C13   C     C_R   0.022447 0.973211 0.803019 0.088634
C14   C     C_R   0.979122 0.971299 0.198722 0.079004
C15   C     C_R   0.522253 0.472644 0.802929 0.101075
C16   C     C_R   0.477790 0.527382 0.197106 0.100254
C17   C     C_R   0.000009 0.003359 0.813626 -0.106133
C18   C     C_R   0.999928 0.002611 0.186355 -0.139145
C19   C     C_R   0.499981 0.503094 0.813593 -0.115921
C20   C     C_R   0.500013 0.496897 0.186393 -0.115911
C21   C     C_R   0.728322 0.983379 0.179391 -0.225530
C22   C     C_R   0.271912 0.982415 0.818498 -0.207885
C23   C     C_R   0.228324 0.483716 0.179147 -0.225742
C24   C     C_R   0.772204 0.464917 0.761312 -0.207070
C25   C     C_R   0.706592 0.001099 0.207325 0.145895
C26   C     C_R   0.293433 0.001791 0.791663 0.130896
C27   C     C_R   0.206592 0.501104 0.207334 0.145738
C28   C     C_R   0.793430 0.502114 0.794779 0.132546
C29   C     C_R   0.728167 0.018895 0.278868 0.120222
C30   C     C_R   0.271325 0.020949 0.720823 0.115745
C31   C     C_R   0.228165 0.518570 0.279130 0.119929
C32   C     C_R   0.771028 0.539335 0.784332 0.113888
C33   C     C_R   0.771868 0.018406 0.321987 -0.222217
C34   C     C_R   0.227777 0.020094 0.678353 -0.185703
C35   C     C_R   0.271866 0.518087 0.322244 -0.222449
C36   C     C_R   0.727491 0.538208 0.740177 -0.179648
C37   C     C_R   0.793344 0.000620 0.293659 0.146045
C38   C     C_R   0.206618 0.000659 0.705683 0.129976
C39   C     C_R   0.293344 0.500631 0.293665 0.145663
C40   C     C_R   0.706621 0.500903 0.707106 0.127948
C41   C     C_R   0.771687 0.983158 0.222521 -0.180140
C42   C     C_R   0.228568 0.981864 0.775609 -0.184887
C43   C     C_R   0.271688 0.483498 0.222276 -0.180247
C44   C     C_R   0.728860 0.464294 0.717549 -0.190423
C45   C     C_R   0.996797 0.000092 0.616992 0.936169
C46   C     C_R   0.003345 0.999983 0.383164 0.934234
C47   C     C_R   0.496840 0.500087 0.617043 0.938635
C48   C     C_R   0.503154 0.499907 0.382949 0.937451
C49   C     C_1   0.662088 0.000615 0.162132 -0.042452
C50   C     C_1   0.337937 0.001045 0.837418 -0.077663
C51   C     C_1   0.162088 0.500619 0.162135 -0.042543
C52   C     C_1   0.837940 0.501171 0.838768 -0.076539
C53   C     C_1   0.837760 0.000323 0.337748 -0.062421
C54   C     C_1   0.162216 0.000187 0.661863 -0.063162
C55   C     C_1   0.337761 0.500331 0.337756 -0.062871
C56   C     C_1   0.662219 0.500259 0.662536 -0.063068
C57   C     C_1   0.875060 0.000130 0.374795 -0.191379
C58   C     C_1   0.124923 0.999965 0.624976 -0.190148
C59   C     C_1   0.375060 0.500134 0.374805 -0.191753
C60   C     C_1   0.624926 0.499985 0.625251 -0.190848
C61   C     C_1   0.624783 0.000273 0.124524 -0.174349
C62   C     C_1   0.375236 0.000466 0.875392 -0.180662
C63   C     C_1   0.124783 0.500275 0.124524 -0.174131
C64   C     C_1   0.875240 0.500486 0.875696 -0.179950
C65   C     C_1   0.499924 0.875225 0.999698 -0.176091
C66   C     C_1   0.999979 0.375221 0.999779 -0.176107
C67   C     C_R   0.000031 0.919296 0.000056 0.915631
C68   C     C_R   0.500038 0.419297 0.000036 0.892743
C69   C     C_R   0.000113 0.001045 0.879838 0.908087
C70   C     C_R   0.999860 0.000605 0.120156 0.867964
C71   C     C_R   0.500109 0.501033 0.879847 0.884262
C72   C     C_R   0.499890 0.498966 0.120150 0.884184
C73   C     C_R   0.999969 0.080696 0.999969 0.881300
C74   C     C_R   0.499963 0.580697 0.999963 0.892710
C75   C     C_R   0.499993 0.919505 0.999924 0.903701
C76   C     C_R   0.000001 0.419503 0.999935 0.902937
C77   C     C_R   0.580533 1.000000 0.080385 0.901519
C78   C     C_R   0.419473 0.000008 0.919613 0.904918
C79   C     C_R   0.080533 0.500000 0.080385 0.901159
C80   C     C_R   0.919475 0.499983 0.919638 0.902542
C81   C     C_1   0.999902 0.124956 0.999869 -0.187412
C82   C     C_1   0.499867 0.624960 0.999712 -0.186397
C83   C     C_R   0.500005 0.080588 0.000074 0.904079
C84   C     C_R   0.999994 0.580586 0.000061 0.902398
C85   C     C_R   0.504338 0.228325 0.060372 -0.181659
C86   C     C_R   0.496256 0.228148 0.940863 -0.181311
C87   C     C_R   0.987950 0.728353 0.041386 -0.180875
C88   C     C_R   0.012295 0.728105 0.959421 -0.182332
C89   C     C_R   0.500267 0.206606 0.000593 0.167815
C90   C     C_R   0.000105 0.706600 0.000394 0.167190
C91   C     C_R   0.012319 0.771548 0.959421 -0.181941
C92   C     C_R   0.987974 0.771798 0.041389 -0.182239
C93   C     C_R   0.496282 0.271590 0.940875 -0.182521
C94   C     C_R   0.504366 0.271774 0.060387 -0.184821
C95   C     C_R   0.000154 0.793300 0.000399 0.169942
C96   C     C_R   0.500319 0.293309 0.000618 0.171219
C97   C     C_1   0.500173 0.162174 0.000485 -0.071106
C98   C     C_1   0.000055 0.662169 0.000333 -0.071183
C99   C     C_1   0.000132 0.837727 0.000320 -0.069642
C100  C     C_1   0.500237 0.337734 0.000500 -0.072101
C101  C     C_1   0.000096 0.875043 0.000211 -0.184477
C102  C     C_1   0.500140 0.375048 0.000296 -0.186604
C103  C     C_1   0.500087 0.124852 0.000312 -0.176920
C104  C     C_1   0.000020 0.624849 0.000231 -0.177348
C105  C     C_R   0.487421 0.771741 0.934195 -0.181334
C106  C     C_R   0.512117 0.771876 0.064721 -0.180919
C107  C     C_R   0.983645 0.271730 0.932942 -0.182497
C108  C     C_R   0.016180 0.271869 0.066513 -0.180489
C109  C     C_R   0.936790 0.054554 0.628453 0.106987
C110  C     C_R   0.061713 0.055804 0.370025 0.109831
C111  C     C_R   0.437007 0.554623 0.628727 0.107795
C112  C     C_R   0.562835 0.445189 0.371115 0.107576
C113  C     C_R   0.499792 0.793448 0.999472 0.167576
C114  C     C_R   0.999930 0.293440 0.999718 0.167972
C115  C     C_R   0.016150 0.228419 0.066535 -0.183437
C116  C     C_R   0.983615 0.228278 0.932963 -0.183929
C117  C     C_R   0.512091 0.728429 0.064713 -0.182540
C118  C     C_R   0.487395 0.728287 0.934186 -0.183829
C119  C     C_R   0.999869 0.206715 0.999761 0.171461
C120  C     C_R   0.499741 0.706723 0.999457 0.170915
C121  C     C_1   0.499857 0.837895 0.999544 -0.070448
C122  C     C_1   0.999956 0.337889 0.999715 -0.070796
C123  C     C_1   0.999873 0.162277 0.999804 -0.072645
C124  C     C_1   0.499789 0.662284 0.999533 -0.071685
C125  C     C_R   0.917083 0.086062 0.643113 -0.186391
C126  C     C_R   0.080070 0.088026 0.354195 -0.187033
C127  C     C_R   0.417478 0.586247 0.643547 -0.186385
C128  C     C_R   0.582290 0.413524 0.356215 -0.185189
C129  C     C_R   0.927077 0.092402 0.714605 -0.158990
C130  C     C_R   0.069510 0.094164 0.282329 -0.163758
C131  C     C_R   0.427581 0.592595 0.715103 -0.160782
C132  C     C_R   0.572198 0.407226 0.284655 -0.160822
C133  C     C_R   0.955078 0.065881 0.771545 -0.160926
C134  C     C_R   0.042378 0.066752 0.226227 -0.156918
C135  C     C_R   0.455471 0.565947 0.771911 -0.157928
C136  C     C_R   0.544388 0.433956 0.227925 -0.158774
C137  C     C_R   0.974563 0.032986 0.758135 0.020253
C138  C     C_R   0.024264 0.033163 0.240834 0.040575
C139  C     C_R   0.474751 0.532911 0.758310 0.026404
C140  C     C_R   0.525172 0.467022 0.241602 0.026163
C141  C     C_R   0.968413 0.029489 0.687731 0.100747
C142  C     C_R   0.030816 0.029838 0.311534 0.099372
C143  C     C_R   0.468564 0.529456 0.687912 0.098295
C144  C     C_R   0.531350 0.470446 0.311998 0.098193
H1    H     H_    0.038515 0.950138 0.730155 0.162827
H2    H     H_    0.964319 0.947761 0.272542 0.175773
H3    H     H_    0.538274 0.450006 0.729403 0.160255
H4    H     H_    0.461804 0.550046 0.270660 0.160174
H5    H     H_    0.789110 0.031865 0.377292 0.131527
H6    H     H_    0.210444 0.034688 0.624013 0.143201
H7    H     H_    0.289107 0.531293 0.377741 0.131698
H8    H     H_    0.709939 0.566484 0.731821 0.150708
H9    H     H_    0.978534 0.788582 0.073171 0.141736
H10   H     H_    0.021762 0.788136 0.927616 0.139720
H11   H     H_    0.507502 0.288534 0.106737 0.139102
H12   H     H_    0.493146 0.288205 0.894513 0.139039
H13   H     H_    0.507454 0.211709 0.106714 0.141895
H14   H     H_    0.493104 0.211398 0.894495 0.142158
H15   H     H_    0.978492 0.711765 0.073169 0.143076
H16   H     H_    0.021723 0.711325 0.927618 0.142050
H17   H     H_    0.970988 0.211536 0.881160 0.137648
H18   H     H_    0.028764 0.211787 0.118358 0.137965
H19   H     H_    0.477812 0.711544 0.883557 0.138296
H20   H     H_    0.521667 0.711801 0.115348 0.139830
H21   H     H_    0.477854 0.788372 0.883569 0.141608
H22   H     H_    0.521711 0.788608 0.115362 0.142636
H23   H     H_    0.971034 0.288357 0.881120 0.141001
H24   H     H_    0.028812 0.288604 0.118319 0.142307
H25   H     H_    0.893470 0.105455 0.598367 0.133106
H26   H     H_    0.103116 0.108109 0.398320 0.136427
H27   H     H_    0.393924 0.605724 0.598885 0.133618
H28   H     H_    0.605785 0.393977 0.400821 0.134123
H29   H     H_    0.912102 0.117183 0.725537 0.142464
H30   H     H_    0.083454 0.119463 0.270488 0.144618
H31   H     H_    0.412755 0.617468 0.726179 0.143503
H32   H     H_    0.586973 0.382327 0.273520 0.144275
H33   H     H_    0.961461 0.071607 0.826181 0.144932
H34   H     H_    0.035639 0.072276 0.171323 0.146239
H35   H     H_    0.461906 0.571670 0.826583 0.144778
H36   H     H_    0.537964 0.428272 0.173249 0.144768
H37   H     H_    0.788312 0.969367 0.200525 0.147102
H38   H     H_    0.212190 0.966798 0.796881 0.145938
H39   H     H_    0.288315 0.469965 0.200085 0.147798
H40   H     H_    0.712709 0.435343 0.691919 0.144059
H41   H     H_    0.711707 0.969688 0.124304 0.152361
H42   H     H_    0.288704 0.967644 0.872660 0.151820
H43   H     H_    0.211710 0.470280 0.123865 0.152586
H44   H     H_    0.789227 0.436344 0.769063 0.149685
O1    O     O_R   0.939010 0.034430 0.439030 -0.623497
O2    O     O_R   0.060990 0.034430 0.560970 -0.622483
O3    O     O_R   0.439010 0.534430 0.439030 -0.626303
O4    O     O_R   0.560990 0.534430 0.560970 -0.614379
O5    O     O_R   0.560990 0.000040 0.112660 -0.611261
O6    O     O_R   0.439010 0.000040 0.887340 -0.618440
O7    O     O_R   0.060990 0.500040 0.112660 -0.610905
O8    O     O_R   0.939010 0.500040 0.887340 -0.615565
O9    O     O_R   0.561000 0.999980 0.009230 -0.617336
O10   O     O_R   0.439000 0.999980 0.990770 -0.614403
O11   O     O_R   0.061000 0.499980 0.009230 -0.617492
O12   O     O_R   0.939000 0.499980 0.990770 -0.614170
O13   O     O_R   0.499990 0.061030 0.051640 -0.615857
O14   O     O_R   0.500010 0.061030 0.948360 -0.616391
O15   O     O_R   0.999990 0.561030 0.051640 -0.615693
O16   O     O_R   0.000010 0.561030 0.948360 -0.616018
O17   O     O_R   0.939020 0.965580 0.438990 -0.615374
O18   O     O_R   0.060980 0.965580 0.561010 -0.617374
O19   O     O_R   0.439020 0.465580 0.438990 -0.613506
O20   O     O_R   0.560980 0.465580 0.561010 -0.626617
O21   O     O_R   0.999990 0.034430 0.591600 -0.613827
O22   O     O_R   0.000010 0.034430 0.408400 -0.612161
O23   O     O_R   0.499990 0.534430 0.591600 -0.612605
O24   O     O_R   0.500010 0.534430 0.408400 -0.630666
O25   O     O_R   0.000000 0.965580 0.591570 -0.629374
O26   O     O_R   0.000000 0.965580 0.408430 -0.630385
O27   O     O_R   0.500000 0.465580 0.591570 -0.630449
O28   O     O_R   0.500000 0.465580 0.408430 -0.613024
O29   O     O_R   0.034430 0.939010 0.034360 -0.609404
O30   O     O_R   0.965570 0.939010 0.965640 -0.617520
O31   O     O_R   0.534430 0.439010 0.034360 -0.620973
O32   O     O_R   0.465570 0.439010 0.965640 -0.612972
O33   O     O_R   0.034440 0.999990 0.942790 -0.601989
O34   O     O_R   0.965560 0.999990 0.057210 -0.630162
O35   O     O_R   0.534440 0.499990 0.942790 -0.596672
O36   O     O_R   0.465560 0.499990 0.057210 -0.597455
O37   O     O_R   0.965580 0.000000 0.873950 -0.628114
O38   O     O_R   0.034420 1.000000 0.126050 -0.619112
O39   O     O_R   0.465580 0.500000 0.873950 -0.629546
O40   O     O_R   0.534420 0.500000 0.126050 -0.629262
O41   O     O_R   0.034440 0.060980 0.034440 -0.622193
O42   O     O_R   0.965560 0.060980 0.965560 -0.620938
O43   O     O_R   0.534440 0.560980 0.034440 -0.612641
O44   O     O_R   0.465560 0.560980 0.965560 -0.621233
O45   O     O_R   0.500010 0.939050 0.051750 -0.615256
O46   O     O_R   0.499990 0.939050 0.948250 -0.615954
O47   O     O_R   0.000010 0.439050 0.051750 -0.614555
O48   O     O_R   0.999990 0.439050 0.948250 -0.616147
Zn1   Zn    Zn3+2 0.000000 0.045980 0.500000 0.948460
Zn2   Zn    Zn3+2 0.500000 0.545980 0.500000 0.954209
Zn3   Zn    Zn3+2 0.000000 0.954030 0.500000 0.963460
Zn4   Zn    Zn3+2 0.500000 0.454030 0.500000 0.953874
Zn5   Zn    Zn3+2 0.045980 0.999990 0.045940 0.970264
Zn6   Zn    Zn3+2 0.954020 0.999990 0.954060 0.955350
Zn7   Zn    Zn3+2 0.545980 0.499990 0.045940 0.973831
Zn8   Zn    Zn3+2 0.454020 0.499990 0.954060 0.972283
Zn9   Zn    Zn3+2 0.500000 0.000050 0.069040 0.970956
Zn10  Zn    Zn3+2 0.500000 0.000050 0.930960 0.964669
Zn11  Zn    Zn3+2 0.000000 0.500050 0.069040 0.973243
Zn12  Zn    Zn3+2 0.000000 0.500050 0.930960 0.966881
N1    N     N_3   0.921767 0.046268 0.552607 -0.452435
H45   H     H_    0.890315 0.038048 0.524497 0.168006
H46   H     H_    0.923542 0.073961 0.529120 0.204164
N2    N     N_3   0.077531 0.047664 0.446247 -0.450499
H47   H     H_    0.109205 0.040384 0.473857 0.168491
H48   H     H_    0.075078 0.075159 0.469620 0.204928
N3    N     N_3   0.421851 0.546316 0.552823 -0.452409
H49   H     H_    0.390377 0.538205 0.524830 0.167801
H50   H     H_    0.423672 0.573973 0.529304 0.204017
N4    N     N_3   0.578001 0.453441 0.447041 -0.452623
H51   H     H_    0.609496 0.461467 0.475075 0.171242
H52   H     H_    0.576096 0.425786 0.470470 0.203046
N5    N     N_3   0.047737 0.942946 0.859360 -0.442038
H53   H     H_    0.078285 0.945723 0.873459 0.188652
H54   H     H_    0.036926 0.913256 0.836708 0.180156
N6    N     N_3   0.955107 0.939257 0.145306 -0.456519
H55   H     H_    0.929969 0.953045 0.097454 0.211464
H56   H     H_    0.973908 0.923861 0.131741 0.181954
N7    N     N_3   0.547280 0.442151 0.859510 -0.425939
H57   H     H_    0.526982 0.422127 0.862595 0.172798
H58   H     H_    0.563867 0.423716 0.844569 0.179392
N8    N     N_3   0.452821 0.557921 0.140579 -0.426795
H59   H     H_    0.473157 0.577911 0.137541 0.173421
H60   H     H_    0.436262 0.576383 0.155547 0.179099
N9    N     N_3   0.705618 0.036928 0.307282 -0.450198
H61   H     H_    0.690630 0.063690 0.276057 0.182564
H62   H     H_    0.726230 0.046785 0.362199 0.177576
N10   N     N_3   0.291690 0.041511 0.690460 -0.462483
H63   H     H_    0.323814 0.043712 0.729076 0.196579
H64   H     H_    0.287088 0.023219 0.646478 0.181791
N11   N     N_3   0.205614 0.536264 0.307800 -0.449673
H65   H     H_    0.190623 0.563131 0.276961 0.183238
H66   H     H_    0.226225 0.545895 0.362857 0.178122
N12   N     N_3   0.791077 0.578428 0.817522 -0.459653
H67   H     H_    0.823265 0.575107 0.854340 0.193830
H68   H     H_    0.786081 0.598025 0.774775 0.182165

loop_
_geom_bond_atom_site_label_1
_geom_bond_atom_site_label_2
_ccdc_geom_bond_type
C18   C70   S    
C23   H43   S    
N3    H50   S    
C67   C101  S    
C17   C69   S    
C55   C59   T    
C28   C52   S    
C4    O4    A    
C19   C71   S    
C133  C137  A    
C136  C140  A    
O1    Zn1   S    
O20   Zn4   S    
C46   O26   A    
C48   O28   A    
O34   Zn6   S    
C23   C43   A    
C33   H5    S    
O33   Zn5   S    
C130  H30   S    
C135  C139  A    
O32   Zn8   S    
C109  N1    S    
N12   H67   S    
C1    O1    A    
C83   C103  S    
C81   C123  T    
C126  H26   S    
C32   C36   A    
C108  C115  A    
C105  C113  A    
C17   C137  A    
C68   O32   A    
C110  C126  A    
O21   Zn1   S    
C38   C42   A    
C15   N7    S    
C26   C50   S    
C132  H32   S    
N5    H53   S    
C95   C99   S    
C125  H25   S    
C111  C143  A    
C126  C130  A    
O10   Zn9   S    
C127  H27   S    
C80   O12   A    
C29   C33   A    
O9    Zn10  S    
C21   C41   A    
C79   O7    A    
N12   H68   S    
C75   O46   A    
O17   Zn3   S    
C47   O23   A    
C78   O6    A    
C82   C124  T    
C18   C138  A    
O48   Zn12  S    
C9    C13   A    
C98   C104  T    
C112  N4    S    
C11   C15   A    
C39   C55   S    
C12   C16   A    
O35   Zn7   S    
C94   H11   S    
C40   C56   S    
N9    H62   S    
C47   O27   A    
C45   O25   A    
N11   H65   S    
C66   C122  T    
C4    O20   A    
O18   Zn3   S    
C2    O18   A    
C65   C121  T    
C8    C12   A    
C6    C142  A    
C1    O17   A    
C44   H40   S    
O45   Zn9   S    
C132  C136  A    
C131  H31   S    
C37   C53   S    
C84   O16   A    
O3    Zn2   S    
C88   H16   S    
C108  H24   S    
C13   N5    S    
C34   C38   A    
C87   C92   A    
O8    Zn12  S    
C111  N3    S    
C64   C80   S    
C129  H29   S    
C130  C134  A    
O2    Zn1   S    
C35   H7    S    
C74   C82   S    
C83   O14   A    
C32   N12   S    
C128  C132  A    
O12   Zn11  S    
C7    C143  A    
C73   O42   A    
C27   C51   S    
C7    C11   A    
C25   C49   S    
C67   O30   A    
C117  H20   S    
C25   C29   A    
O14   Zn10  S    
C107  H23   S    
C118  H19   S    
N1    H46   S    
C79   O11   A    
C30   C34   A    
C106  C113  A    
C27   C31   A    
O28   Zn4   S    
O22   Zn1   S    
C70   O38   A    
C116  H17   S    
C28   C32   A    
C68   O31   A    
C51   C63   T    
C90   C98   S    
C91   H10   S    
C74   O44   A    
C21   C25   A    
C138  C142  A    
C117  C120  A    
C61   C77   S    
O39   Zn8   S    
N5    H54   S    
C53   C57   T    
O36   Zn8   S    
O38   Zn5   S    
C63   C79   S    
C110  N2    S    
O37   Zn6   S    
C46   O22   A    
C5    C45   S    
C11   H3    S    
C92   C95   A    
C45   O21   A    
C114  C122  S    
C56   C60   T    
C89   C97   S    
C43   H39   S    
O29   Zn5   S    
C7    C47   S    
C22   H42   S    
C15   C19   A    
C8    C48   S    
C107  C114  A    
C5    C9    A    
O42   Zn6   S    
C86   C93   A    
C1    C57   S    
C97   C103  T    
C110  C142  A    
C85   C94   A    
N2    H48   S    
C5    C141  A    
C38   C54   S    
C88   C91   A    
C36   C40   A    
C16   C20   A    
C87   H15   S    
C66   C76   S    
C4    C60   S    
C100  C102  T    
N9    H61   S    
N1    H45   S    
O23   Zn2   S    
C113  C121  S    
C139  C143  A    
C8    C144  A    
O16   Zn12  S    
C112  C144  A    
C134  H34   S    
C94   C96   A    
C86   H14   S    
C84   C104  S    
C92   H9    S    
C14   N6    S    
O11   Zn12  S    
C73   C81   S    
C129  C133  A    
C48   O24   A    
O19   Zn4   S    
C84   O15   A    
C109  C125  A    
C99   C101  T    
C88   C90   A    
C128  H28   S    
C93   C96   A    
C23   C27   A    
C106  C117  A    
C52   C64   T    
C34   H6    S    
N8    H60   S    
C105  C118  A    
C87   C90   A    
C50   C62   T    
N3    H49   S    
C10   H2    S    
C106  H22   S    
N4    H52   S    
C72   O40   A    
C67   O29   A    
C31   N11   S    
O47   Zn11  S    
C24   C28   A    
C33   C37   A    
C54   C58   T    
C73   O41   A    
C137  C141  A    
C20   C140  A    
O26   Zn3   S    
C85   C89   A    
C6    C46   S    
C29   N9    S    
C77   O5    A    
O44   Zn8   S    
C71   O39   A    
C14   C18   A    
C62   C78   S    
C93   H12   S    
C36   H8    S    
C2    O2    A    
N10   H64   S    
C74   O43   A    
O25   Zn3   S    
C86   C89   A    
C69   O37   A    
C134  C138  A    
C16   N8    S    
N7    H57   S    
C2    C58   S    
C21   H41   S    
O4    Zn2   S    
C119  C123  S    
O13   Zn9   S    
C136  H36   S    
C115  C119  A    
C65   C75   S    
C116  C119  A    
C13   C17   A    
C24   H44   S    
C80   O8    A    
C108  C114  A    
C12   H4    S    
C115  H18   S    
C140  C144  A    
N4    H51   S    
N6    H55   S    
C3    O19   A    
C83   O13   A    
C68   C102  S    
O46   Zn10  S    
N11   H66   S    
C111  C127  A    
N7    H58   S    
C49   C61   T    
C133  H33   S    
O41   Zn5   S    
C22   C42   A    
O40   Zn7   S    
O7    Zn11  S    
C42   H38   S    
C24   C44   A    
C35   C39   A    
C96   C100  S    
C31   C35   A    
C9    H1    S    
C70   O34   A    
C71   O35   A    
C105  H21   S    
C75   O45   A    
C76   O47   A    
C69   O33   A    
O30   Zn6   S    
C37   C41   A    
C3    O3    A    
C118  C120  A    
C107  C116  A    
C112  C128  A    
C41   H37   S    
C6    C10   A    
C22   C26   A    
C10   C14   A    
C131  C135  A    
C125  C129  A    
O43   Zn7   S    
C40   C44   A    
O15   Zn11  S    
N10   H63   S    
C135  H35   S    
C91   C95   A    
N6    H56   S    
O6    Zn10  S    
C39   C43   A    
C85   H13   S    
O5    Zn9   S    
N8    H59   S    
C20   C72   S    
C109  C141  A    
O27   Zn4   S    
C78   O10   A    
O31   Zn7   S    
C77   O9    A    
C76   O48   A    
C19   C139  A    
O24   Zn2   S    
C30   N10   S    
C120  C124  S    
C3    C59   S    
N2    H47   S    
C127  C131  A    
C26   C30   A    
C72   O36   A    
