data_mof_unit_53121.cif
_audit_creation_date              2013-03-05T15:50:10-0500
_audit_creation_method            fapswitch 2.2
_symmetry_space_group_name_H-M    P1
_symmetry_Int_Tables_number       1
_space_group_crystal_system       triclinic
_cell_length_a                    20.034423
_cell_length_b                    6.870496
_cell_length_c                    18.215289
_cell_angle_alpha                 90.092524
_cell_angle_beta                  104.301945
_cell_angle_gamma                 89.883855
_cell_volume                      2429.55584664

loop_
_atom_site_label
_atom_site_type_symbol
_atom_site_description
_atom_site_fract_x
_atom_site_fract_y
_atom_site_fract_z
_atom_type_partial_charge
O1    O     O_R   0.312200 0.620210 0.189560 -0.573887
O2    O     O_R   0.687800 0.379790 0.810440 -0.573889
O3    O     O_R   0.187800 0.120210 0.310440 -0.573550
O4    O     O_R   0.812200 0.879790 0.689560 -0.573553
O5    O     O_R   0.171590 0.286140 0.165000 -0.587167
O6    O     O_R   0.828410 0.713860 0.835000 -0.587158
O7    O     O_R   0.328410 0.786140 0.335000 -0.579977
O8    O     O_R   0.671590 0.213860 0.665000 -0.579970
C1    C     C_R   0.145655 0.459578 0.143783 1.015044
C2    C     C_R   0.854344 0.540422 0.856217 1.015060
C3    C     C_R   0.354341 0.959504 0.356223 1.033088
C4    C     C_R   0.645659 0.040495 0.643777 1.033082
O9    O     O_R   0.310670 0.290220 0.180540 -0.560762
O10   O     O_R   0.689330 0.709780 0.819460 -0.560763
O11   O     O_R   0.189330 0.790220 0.319460 -0.564759
O12   O     O_R   0.810670 0.209780 0.680540 -0.564759
O13   O     O_R   0.327870 0.124170 0.326080 -0.587932
O14   O     O_R   0.672130 0.875830 0.673920 -0.587939
O15   O     O_R   0.172130 0.624170 0.173920 -0.582425
O16   O     O_R   0.827870 0.375830 0.826080 -0.582426
C5    C     C_R   0.332092 0.459060 0.165193 1.088780
C6    C     C_R   0.667907 0.540940 0.834806 1.088817
C7    C     C_R   0.168222 0.959633 0.335109 1.094841
C8    C     C_R   0.831778 0.040366 0.664892 1.094840
O17   O     O_3   0.255480 0.455050 0.297740 -0.246478
O18   O     O_3   0.744520 0.544950 0.702260 -0.246477
O19   O     O_3   0.244520 0.955050 0.202260 -0.254798
O20   O     O_3   0.755480 0.044950 0.797740 -0.254803
V1    V     V_3+5 0.248980 0.178550 0.241140 1.335073
V2    V     V_3+5 0.751020 0.821450 0.758860 1.335075
V3    V     V_3+5 0.251020 0.678550 0.258860 1.336113
V4    V     V_3+5 0.748980 0.321450 0.741140 1.336116
C9    C     C_R   0.937508 0.157021 0.627689 0.311004
C10   C     C_R   0.062496 0.842968 0.372317 0.311016
C11   C     C_R   0.563935 0.395099 0.867060 0.323309
C12   C     C_R   0.436064 0.604900 0.132938 0.323300
C13   C     C_R   0.880822 0.029331 0.615413 -0.453792
C14   C     C_R   0.119180 0.970666 0.384589 -0.453800
C15   C     C_R   0.618275 0.531092 0.883678 -0.453574
C16   C     C_R   0.381723 0.468908 0.116321 -0.453568
C17   C     C_R   0.870938 0.890145 0.556486 0.312044
C18   C     C_R   0.129064 0.109855 0.443515 0.312047
C19   C     C_R   0.625512 0.656470 0.946804 0.305601
C20   C     C_R   0.374485 0.343537 0.053192 0.305599
C21   C     C_R   0.918355 0.876256 0.509727 -0.015905
C22   C     C_R   0.081650 0.123736 0.490278 -0.015909
C23   C     C_R   0.578440 0.645935 0.994006 -0.024011
C24   C     C_R   0.421558 0.354069 0.005991 -0.024004
C25   C     C_R   0.975676 0.005345 0.522794 0.004628
C26   C     C_R   0.024328 0.994645 0.477212 0.004630
C27   C     C_R   0.524026 0.507127 0.976950 0.002707
C28   C     C_R   0.475971 0.492879 0.023047 0.002703
C29   C     C_R   0.984685 0.145268 0.581494 -0.017818
C30   C     C_R   0.015321 0.854720 0.418513 -0.017812
C31   C     C_R   0.517292 0.382459 0.913708 -0.011901
C32   C     C_R   0.482705 0.617545 0.086288 -0.011909
C33   C     C_R   0.910162 0.739549 0.449583 0.036983
C34   C     C_R   0.089846 0.260432 0.550427 0.036984
C35   C     C_R   0.584317 0.767255 0.058500 0.033599
C36   C     C_R   0.415683 0.232738 0.941501 0.033594
C37   C     C_R   0.957979 0.731304 0.405416 -0.186050
C38   C     C_R   0.042027 0.268677 0.594594 -0.186049
C39   C     C_R   0.537150 0.751052 0.103149 -0.184031
C40   C     C_R   0.462847 0.248951 0.896848 -0.184025
H1    H     H_    0.948805 0.626226 0.359739 0.178923
H2    H     H_    0.051203 0.373748 0.640273 0.178921
H3    H     H_    0.544401 0.845375 0.152103 0.177599
H4    H     H_    0.455595 0.154629 0.847895 0.177603
C41   C     C_1   0.583162 0.027531 0.581575 -0.198173
C42   C     C_1   0.416838 0.972469 0.418425 -0.198180
C43   C     C_1   0.916835 0.527356 0.918417 -0.203034
C44   C     C_1   0.083165 0.472644 0.081583 -0.203034
C45   C     C_1   0.530849 0.010921 0.530182 0.108687
C46   C     C_1   0.469151 0.989079 0.469818 0.108688
C47   C     C_1   0.969149 0.510830 0.969815 0.108652
C48   C     C_1   0.030851 0.489170 0.030185 0.108654
N1    N     N_R   0.948751 0.293099 0.689546 0.234792
O21   O     O_R   0.944102 0.479346 0.676415 -0.388048
O22   O     O_R   0.960293 0.230505 0.758933 -0.414181
N2    N     N_R   0.051254 0.706888 0.310460 0.234795
O23   O     O_R   0.039707 0.769479 0.241072 -0.414184
O24   O     O_R   0.055900 0.520641 0.323591 -0.388042
N3    N     N_R   0.554384 0.275358 0.800512 0.230469
O25   O     O_R   0.564864 0.088499 0.806830 -0.387993
O26   O     O_R   0.539225 0.354815 0.733639 -0.416560
N4    N     N_R   0.445615 0.724636 0.199488 0.230466
O27   O     O_R   0.460792 0.645180 0.266360 -0.416548
O28   O     O_R   0.435122 0.911489 0.193171 -0.387986
N5    N     N_R   0.810858 0.769179 0.543051 0.238658
O29   O     O_R   0.750404 0.844517 0.514504 -0.423086
O30   O     O_R   0.815473 0.592404 0.569351 -0.345965
N6    N     N_R   0.189139 0.230839 0.456945 0.238667
O31   O     O_R   0.249598 0.155514 0.485477 -0.423093
O32   O     O_R   0.184514 0.407624 0.430654 -0.345968
N7    N     N_R   0.682545 0.788759 0.963869 0.242903
O33   O     O_R   0.744567 0.722947 0.991660 -0.411683
O34   O     O_R   0.673732 0.969446 0.942282 -0.354345
N8    N     N_R   0.317446 0.211268 0.036122 0.242890
O35   O     O_R   0.326245 0.030594 0.057730 -0.354326
O36   O     O_R   0.255431 0.277090 0.008294 -0.411670
N9    N     N_3   0.853181 0.607383 0.431628 -0.151739
H5    H     H_    0.872609 0.465278 0.436061 0.139334
H6    H     H_    0.826191 0.630648 0.375397 0.135895
N10   N     N_3   0.146832 0.392578 0.568389 -0.151743
H7    H     H_    0.173821 0.369285 0.624619 0.135890
H8    H     H_    0.127411 0.534689 0.563965 0.139340
N11   N     N_3   0.638275 0.908056 0.080449 -0.151594
H9    H     H_    0.666357 0.876216 0.135570 0.137543
H10   H     H_    0.615755 0.045395 0.080963 0.138903
N12   N     N_3   0.361735 0.091902 0.919564 -0.151590
H11   H     H_    0.384266 0.954574 0.919059 0.138890
H12   H     H_    0.333649 0.123708 0.864441 0.137555

loop_
_geom_bond_atom_site_label_1
_geom_bond_atom_site_label_2
_geom_bond_distance
_ccdc_geom_bond_type
C34   C38   1.395943 A    
C17   N5    1.434321 S    
C4    C41   1.469234 S    
O18   V4    1.684984 S    
N9    H5    1.046146 S    
O19   V1    1.683228 S    
O13   V1    1.955189 S    
C45   C46   1.445052 S    
O3    C7    1.289702 A    
N7    O33   1.300926 A    
C1    C44   1.469088 S    
C44   C48   1.225946 T    
O15   V3    1.955459 S    
N10   H8    1.046146 S    
C3    C42   1.469235 S    
N1    O21   1.301071 A    
O1    C5    1.290618 A    
C21   C33   1.420494 A    
C26   C30   1.414938 A    
C40   H4    1.081993 S    
O9    V1    2.003809 S    
C14   C18   1.413594 A    
C11   C15   1.410753 A    
O4    C8    1.289698 A    
N4    O28   1.301129 A    
N8    O35   1.301259 A    
O1    V3    2.004315 S    
O2    V4    2.004312 S    
C18   C22   1.426933 A    
O3    V1    2.006119 S    
C42   C46   1.226050 T    
C12   C16   1.410751 A    
N12   H12   1.045764 S    
C10   N2    1.437513 S    
N12   H11   1.046107 S    
C20   N8    1.433914 S    
C1    O15   1.310735 A    
C2    O16   1.310735 A    
O2    C6    1.290620 A    
C19   N7    1.433915 S    
N11   H9    1.045764 S    
C41   C45   1.226051 T    
O14   V2    1.955188 S    
N5    O30   1.301031 A    
C16   C20   1.414278 A    
C27   C31   1.413980 A    
C2    C43   1.469088 S    
O11   C7    1.292809 A    
O12   C8    1.292809 A    
C22   C34   1.420497 A    
O17   V1    2.148735 S    
N11   H10   1.046109 S    
O10   V2    2.003806 S    
N10   H7    1.045754 S    
C24   C36   1.420429 A    
O5    V1    1.951953 S    
N1    O22   1.301085 A    
C9    C29   1.414313 A    
C39   H3    1.081997 S    
O7    V3    1.952637 S    
C38   H2    1.081791 S    
O19   V3    2.151211 S    
C27   C28   1.428844 A    
O8    V4    1.952639 S    
O20   V4    2.151210 S    
N2    O24   1.301072 A    
C11   N3    1.437236 S    
N4    O27   1.301048 A    
C15   C19   1.414281 A    
C12   N4    1.437233 S    
C11   C31   1.412679 A    
C9    C13   1.409731 A    
O7    C3    1.319034 A    
C47   C48   1.444867 S    
O5    C1    1.318719 A    
C12   C32   1.412670 A    
C29   C38   1.401255 A    
N3    O25   1.301133 A    
C21   C25   1.424951 A    
O8    C4    1.319033 A    
C31   C40   1.401118 A    
N6    O32   1.301033 A    
C8    C13   1.490121 S    
C32   C39   1.401115 A    
O9    C5    1.292407 A    
C33   C37   1.395941 A    
O6    V2    1.951955 S    
C10   C30   1.414315 A    
N8    O36   1.300923 A    
C34   N10   1.433001 S    
O16   V4    1.955458 S    
C3    O13   1.310856 A    
N3    O26   1.301048 A    
C10   C14   1.409731 A    
O17   V3    1.684983 S    
N2    O23   1.301084 A    
O6    C2    1.318719 A    
C23   C27   1.424914 A    
N7    O34   1.301262 A    
O11   V3    2.000519 S    
C30   C37   1.401257 A    
O12   V4    2.000522 S    
C7    C14   1.490122 S    
C33   N9    1.433001 S    
C22   C26   1.424951 A    
C35   C39   1.395428 A    
C36   C40   1.395426 A    
O10   C6    1.292408 A    
O20   V2    1.683228 S    
C43   C47   1.225946 T    
C9    N1    1.437510 S    
C5    C16   1.491163 S    
C28   C32   1.413979 A    
C25   C29   1.414938 A    
C6    C15   1.491169 S    
N6    O31   1.300914 A    
C18   N6    1.434323 S    
C13   C17   1.413592 A    
C35   N11   1.433071 S    
C36   N12   1.433076 S    
C23   C35   1.420430 A    
C37   H1    1.081788 S    
C24   C28   1.424915 A    
N9    H6    1.045753 S    
C25   C26   1.429775 A    
C4    O14   1.310856 A    
C17   C21   1.426925 A    
N5    O29   1.300917 A    
C19   C23   1.426512 A    
O4    V2    2.006122 S    
C20   C24   1.426504 A    
O18   V2    2.148736 S    
