data_mof_unit_39953.cif
_audit_creation_date              2013-03-05T15:45:08-0500
_audit_creation_method            fapswitch 2.2
_symmetry_space_group_name_H-M    P1
_symmetry_Int_Tables_number       1
_space_group_crystal_system       triclinic
_cell_length_a                    19.078139
_cell_length_b                    10.631049
_cell_length_c                    10.092109
_cell_angle_alpha                 88.88814
_cell_angle_beta                  88.977653
_cell_angle_gamma                 90.694261
_cell_volume                      2046.01770724

loop_
_atom_site_label
_atom_site_type_symbol
_atom_site_description
_atom_site_fract_x
_atom_site_fract_y
_atom_site_fract_z
_atom_type_partial_charge
O1    O     O_R   0.499990 0.319060 0.613040 -0.556001
O2    O     O_R   0.500010 0.319100 0.386900 -0.635722
C1    C     C_R   0.493167 0.262180 0.501104 0.853477
O3    O     O_R   0.398130 0.499970 0.613110 -0.636763
O4    O     O_R   0.398150 0.500010 0.386970 -0.581393
C2    C     C_R   0.365665 0.503548 0.501261 0.927961
Zn1   Zn    Zn3+2 0.499990 0.499970 0.650990 1.040011
Zn2   Zn    Zn3+2 0.500010 0.500030 0.349010 1.013830
O5    O     O_R   0.499990 0.680900 0.613100 -0.564864
O6    O     O_R   0.500010 0.680940 0.386960 -0.579323
O7    O     O_R   0.601850 0.499990 0.613030 -0.588042
O8    O     O_R   0.601870 0.500030 0.386890 -0.575046
C3    C     C_R   0.498602 0.737428 0.498245 0.921410
C4    C     C_R   0.634361 0.499787 0.498747 0.906666
C5    C     C_R   0.259505 0.617638 0.579176 0.082596
C6    C     C_R   0.187626 0.643663 0.564849 0.175368
C7    C     C_R   0.146925 0.566950 0.482227 -0.009547
C8    C     C_R   0.177049 0.468973 0.408739 0.015909
C9    C     C_R   0.249163 0.447941 0.417427 0.298923
C10   C     C_R   0.289863 0.520819 0.502873 -0.238113
N1    N     N_R   0.035094 0.610161 0.378046 -0.142235
N2    N     N_R   0.965488 0.606107 0.380789 -0.111333
C11   C     C_R   0.930376 0.568163 0.492773 0.352642
N3    N     N_R   0.966496 0.535679 0.602149 -0.141424
N4    N     N_R   0.035969 0.539722 0.599456 -0.141193
C12   C     C_R   0.071098 0.576203 0.487244 0.304790
C13   C     C_R   0.812589 0.615771 0.583064 0.137141
C14   C     C_R   0.740590 0.595771 0.582836 -0.150894
H1    H     H_    0.707462 0.648462 0.649450 0.218837
C15   C     C_R   0.710338 0.511168 0.495739 -0.125898
C16   C     C_R   0.752179 0.443463 0.405707 0.057554
C17   C     C_R   0.825138 0.465037 0.403069 0.314208
C18   C     C_R   0.854868 0.550382 0.492509 -0.086816
C19   C     C_2   0.449090 0.928851 0.410999 0.209805
C20   C     C_2   0.495079 0.870478 0.490364 -0.247624
H2    H     H_    0.534174 0.922166 0.545230 0.151782
C21   C     C_2   0.457368 0.064767 0.395081 0.085547
C22   C     C_2   0.466786 0.133187 0.506325 0.101036
C23   C     C_2   0.541441 0.568435 0.925956 0.347623
N5    N     N_2   0.500750 0.501330 0.852150 -0.128325
C24   C     C_2   0.528626 0.587931 0.071518 0.222449
N6    N     N_2   0.500770 0.501360 0.147810 -0.258259
H3    H     H_    0.502714 0.411398 0.113389 0.157672
C25   C     C_3   0.304271 0.691885 0.674603 -0.729744
H4    H     H_    0.351342 0.731920 0.622713 0.234251
H5    H     H_    0.277649 0.771804 0.721369 0.251927
H6    H     H_    0.320840 0.628833 0.756864 0.247586
C26   C     C_3   0.466263 0.114880 0.253821 -0.734793
H7    H     H_    0.456610 0.040573 0.180316 0.267710
H8    H     H_    0.428228 0.190978 0.234316 0.279424
H9    H     H_    0.520895 0.148848 0.235392 0.239003
N7    N     N_R   0.445236 0.082011 0.634868 0.201491
O9    O     O_R   0.484730 0.096334 0.737462 -0.346874
O10   O     O_R   0.384694 0.025306 0.650377 -0.360960
N8    N     N_R   0.600975 0.631715 0.866209 0.227095
O11   O     O_R   0.663249 0.604384 0.907584 -0.376481
O12   O     O_R   0.592403 0.735840 0.799178 -0.339350
C27   C     C_3   0.436378 0.442826 0.905089 -0.643745
H10   H     H_    0.400389 0.421207 0.824791 0.268958
H11   H     H_    0.447137 0.349010 0.949480 0.216406
H12   H     H_    0.407309 0.505767 0.972756 0.198921
N9    N     N_R   0.552509 0.703429 0.126766 0.248640
O13   O     O_R   0.532313 0.809725 0.075148 -0.363510
O14   O     O_R   0.606670 0.702801 0.203171 -0.323942
C28   C     C_3   0.154777 0.753332 0.636707 -0.814286
H13   H     H_    0.099356 0.769997 0.611423 0.239683
H14   H     H_    0.156787 0.736557 0.745511 0.251621
H15   H     H_    0.183411 0.841812 0.609018 0.254744
C29   C     C_3   0.131117 0.383410 0.327197 -0.683473
H16   H     H_    0.159271 0.302202 0.285762 0.268375
H17   H     H_    0.087628 0.343420 0.390033 0.249775
H18   H     H_    0.108935 0.437879 0.243259 0.253705
N10   N     N_R   0.281182 0.349523 0.342839 0.205656
O15   O     O_R   0.284612 0.357692 0.214067 -0.389632
O16   O     O_R   0.311267 0.256356 0.403870 -0.402115
C30   C     C_3   0.842965 0.709874 0.677115 -0.751624
H19   H     H_    0.801393 0.758921 0.733868 0.261425
H20   H     H_    0.876887 0.661374 0.749654 0.261242
H21   H     H_    0.874309 0.782222 0.620680 0.233450
C31   C     C_3   0.719526 0.344451 0.319221 -0.708828
H22   H     H_    0.680980 0.286267 0.377960 0.202767
H23   H     H_    0.692736 0.390541 0.234815 0.268659
H24   H     H_    0.758515 0.278052 0.279149 0.268504
N11   N     N_R   0.869232 0.399786 0.310915 0.204785
O17   O     O_R   0.919432 0.328639 0.353460 -0.378072
O18   O     O_R   0.860378 0.414149 0.184002 -0.340838
C32   C     C_3   0.392450 0.861180 0.335556 -0.743549
H25   H     H_    0.354821 0.929409 0.293454 0.255916
H26   H     H_    0.415814 0.808202 0.252476 0.262549
H27   H     H_    0.362336 0.795622 0.402215 0.209122

loop_
_geom_bond_atom_site_label_1
_geom_bond_atom_site_label_2
_geom_bond_distance
_ccdc_geom_bond_type
N1    C12   1.354327 A    
C19   C21   1.457096 S    
N10   O15   1.301224 A    
C20   H2    1.086941 S    
C30   H21   1.110509 S    
N8    O11   1.300639 A    
C16   C31   1.515598 S    
C23   C24   1.503660 S    
C13   C18   1.407476 A    
Zn1   O7    1.973978 S    
C21   C22   1.362907 D    
C7    C12   1.451230 S    
C14   H1    1.083161 S    
C30   H20   1.109481 S    
C5    C25   1.523963 S    
C3    C20   1.417640 S    
C31   H24   1.108230 S    
O4    C2    1.301031 A    
O7    C4    1.299819 A    
C22   N7    1.447786 S    
C27   H11   1.108359 S    
C5    C6    1.411615 A    
C19   C20   1.347373 D    
C24   N6    1.291633 D    
C29   H17   1.110623 S    
O5    C3    1.296095 A    
N9    O14   1.300285 A    
N11   O17   1.301284 A    
C26   H9    1.110259 S    
C23   N8    1.430904 S    
C9    C10   1.407850 A    
C1    C22   1.454695 S    
C25   H5    1.104558 S    
C6    C7    1.413326 A    
C28   H14   1.110446 S    
Zn1   N5    2.030770 S    
C25   H6    1.109656 S    
C27   H12   1.111240 S    
C26   H8    1.110372 S    
N1    N2    1.327907 A    
N10   O16   1.300983 A    
C24   N9    1.431168 S    
C4    C15   1.452811 S    
O3    Zn1   1.987226 S    
N7    O10   1.301924 A    
C5    C10   1.420259 A    
C17   N11   1.437039 S    
N5    C27   1.457967 S    
C9    N10   1.436711 S    
N3    N4    1.325366 A    
O3    C2    1.297344 A    
C23   N5    1.301625 D    
C8    C9    1.400544 A    
C11   C18   1.450673 S    
N4    C12   1.353368 A    
O1    C1    1.299468 A    
C29   H18   1.109823 S    
N9    O13   1.300638 A    
C16   C17   1.407643 A    
Zn2   O8    1.987226 S    
C28   H15   1.110507 S    
C7    C8    1.412281 A    
C30   H19   1.111018 S    
C21   C26   1.518127 S    
C31   H23   1.110108 S    
C26   H7    1.110109 S    
O8    C4    1.297496 A    
N8    O12   1.299619 A    
N6    H3    1.024701 S    
C13   C30   1.509980 S    
N7    O9    1.301580 A    
Zn1   O5    1.953826 S    
O1    Zn1   1.968302 S    
O2    Zn2   1.953826 S    
C25   H4    1.107768 S    
Zn2   N6    2.030100 S    
C31   H22   1.110857 S    
O6    C3    1.283819 A    
O4    Zn2   1.973981 S    
C2    C10   1.459812 S    
C17   C18   1.413245 A    
C14   C15   1.396741 A    
O2    C1    1.295087 A    
C27   H10   1.097383 S    
C15   C16   1.412192 A    
C8    C29   1.519204 S    
C19   C32   1.515482 S    
C29   H16   1.107217 S    
C11   N3    1.353034 A    
C32   H25   1.110665 S    
Zn2   O6    1.968302 S    
C28   H13   1.107639 S    
C32   H27   1.107564 S    
C13   C14   1.387463 A    
C32   H26   1.109042 S    
N2    C11   1.355518 A    
N11   O18   1.301200 A    
C6    C28   1.520619 S    
