data_mof_unit_25077.cif
_audit_creation_date              2012-12-11T19:31:14-0500
_audit_creation_method            fapswitch 2.2
_symmetry_space_group_name_H-M    P1
_symmetry_Int_Tables_number       1
_space_group_crystal_system       triclinic
_cell_length_a                    8.223421
_cell_length_b                    15.275226
_cell_length_c                    17.169482
_cell_angle_alpha                 100.534653
_cell_angle_beta                  97.308264
_cell_angle_gamma                 98.683272
_cell_volume                      2069.31808321

loop_
_atom_site_label
_atom_site_type_symbol
_atom_type_description
_atom_site_fract_x
_atom_site_fract_y
_atom_site_fract_z
_atom_type_partial_charge
Ba1   Ba    Ba6+2 0.844380 0.541120 0.463220 1.655480
Ba2   Ba    Ba6+2 0.345460 0.458950 0.536790 1.655310
C1    C     C_3   0.584988 0.808927 0.202724 -0.229606
C2    C     C_3   0.401599 0.474249 0.217492 -0.015542
C3    C     C_2   0.327157 0.479266 0.132707 -0.059598
C4    C     C_3   0.145736 0.720464 0.253734 0.340917
C5    C     C_2   0.162191 0.479214 0.112865 -0.007032
C6    C     C_2   0.050987 0.465375 0.173872 -0.130802
C7    C     C_1   0.114762 0.459052 0.246909 0.067886
C8    C     C_R   0.887137 0.469113 0.864752 0.370862
C9    C     C_R   0.813396 0.467388 0.785212 0.042668
C10   C     C_R   0.079224 0.536953 0.755324 0.065561
C11   C     C_R   0.154131 0.537740 0.833937 -0.195199
C12   C     C_3   0.612902 0.740169 0.254548 0.265306
C13   C     C_R   0.061274 0.501656 0.888468 -0.041958
C14   C     C_2   0.086154 0.497708 0.034952 -0.027535
C15   C     C_2   0.152698 0.490548 0.966465 -0.025084
C16   C     C_3   0.090261 0.714597 0.164708 -0.357743
C17   C     C_R   0.910768 0.499241 0.731455 -0.282434
C18   C     C_R   0.867809 0.171382 0.556967 0.057909
C19   C     C_R   0.798552 0.078194 0.550229 -0.028103
C20   C     C_R   0.655988 0.890544 0.531856 -0.014625
C21   C     C_R   0.816210 0.927579 0.575924 -0.043210
C22   C     C_R   0.887397 0.018468 0.583028 -0.075456
C23   C     C_3   0.418864 0.292209 0.286992 0.333978
C24   C     C_R   0.587573 0.796439 0.520021 0.057301
C25   C     C_R   0.428315 0.764433 0.474436 -0.265803
C26   C     C_R   0.609981 0.195656 0.485508 -0.006903
C27   C     C_R   0.540821 0.103331 0.476910 -0.063159
C28   C     C_3   0.271707 0.740425 0.639090 0.309546
C29   C     C_R   0.633577 0.043848 0.509128 0.007599
C30   C     C_R   0.383111 0.068760 0.433283 -0.043449
C31   C     C_R   0.314590 0.977772 0.418223 -0.042467
C32   C     C_R   0.399419 0.915687 0.452404 -0.041550
C33   C     C_R   0.562523 0.949771 0.498026 0.060080
C34   C     C_3   0.421151 0.259781 0.197762 -0.352022
C35   C     C_R   0.330498 0.822135 0.443405 -0.064585
C36   C     C_R   0.770881 0.228301 0.526060 -0.270779
C37   C     C_3   0.306039 0.843381 0.661734 -0.392859
C38   C     C_3   0.926728 0.258326 0.358274 0.222508
C39   C     C_3   0.875609 0.156180 0.330217 -0.229749
C40   C     C_3   0.785557 0.679601 0.708811 0.308566
C41   C     C_3   0.822732 0.712773 0.799488 -0.377130
C42   C     C_2   0.965059 0.122374 0.262659 1.019515
C43   C     C_2   0.664978 0.900944 0.247542 0.898148
C44   C     C_2   0.979013 0.267441 0.770791 0.784042
C45   C     C_3   0.154054 0.261992 0.759046 0.295172
C46   C     C_3   0.672465 0.470072 0.939771 0.189478
C47   C     C_2   0.169757 0.953668 0.354437 0.943136
C48   C     C_3   0.243176 0.238155 0.834733 -0.355801
C49   C     C_3   0.536850 0.230207 0.689898 0.343277
C50   C     C_3   0.519501 0.134141 0.704996 -0.397825
C51   C     C_2   0.275668 0.483354 0.274071 -0.279245
H1    H     H_    0.747076 0.735977 0.262698 0.112910
H2    H     H_    0.686773 0.618253 0.694522 0.047194
H3    H     H_    0.921676 0.774088 0.815248 0.134457
H4    H     H_    0.865887 0.659948 0.829141 0.029553
H5    H     H_    0.708386 0.729572 0.822340 0.126571
H6    H     H_    0.574330 0.760964 0.314017 0.041669
H7    H     H_    0.450053 0.808223 0.185518 0.085067
H8    H     H_    0.288853 0.296324 0.296451 0.034084
H9    H     H_    0.499112 0.360001 0.306946 0.017693
H10   H     H_    0.371168 0.186273 0.178719 0.148838
H11   H     H_    0.343085 0.295595 0.161516 0.058190
H12   H     H_    0.420579 0.867238 0.707147 0.130860
H13   H     H_    0.551012 0.272401 0.185326 0.125668
H14   H     H_    0.638324 0.791236 0.146715 0.078855
H15   H     H_    0.172056 0.677532 0.129564 0.086965
H16   H     H_    0.217919 0.328946 0.752758 0.062811
H17   H     H_    0.376218 0.238313 0.834088 0.152474
H18   H     H_    0.234389 0.288564 0.888967 0.097761
H19   H     H_    0.186277 0.169644 0.841314 0.148610
H20   H     H_    0.636524 0.238922 0.653786 0.059933
H21   H     H_    0.423110 0.237985 0.653153 0.112989
H22   H     H_    0.639750 0.122700 0.735040 0.135029
H23   H     H_    0.323372 0.872612 0.608281 0.051748
H24   H     H_    0.483176 0.084896 0.646966 0.082324
H25   H     H_    0.131949 0.650376 0.264217 0.024393
H26   H     H_    0.422103 0.120821 0.742375 0.146520
H27   H     H_    0.276521 0.474375 0.966037 0.041644
H28   H     H_    0.917124 0.455726 0.156417 0.108016
H29   H     H_    0.967649 0.519768 0.035386 0.092465
H30   H     H_    0.411874 0.488288 0.090155 0.052733
H31   H     H_    0.285668 0.565028 0.852365 0.106431
H32   H     H_    0.320243 0.509252 0.337671 0.073722
H33   H     H_    0.854492 0.494322 0.669975 0.074423
H34   H     H_    0.199180 0.867804 0.686861 0.122969
H35   H     H_    0.890981 0.886803 0.604777 0.096655
H36   H     H_    0.278337 0.753335 0.270005 0.021801
H37   H     H_    0.012752 0.041225 0.615195 0.109937
H38   H     H_    0.311947 0.111985 0.406136 0.155519
H39   H     H_    0.375377 0.693532 0.466789 0.056758
H40   H     H_    0.823457 0.298838 0.531033 0.073023
H41   H     H_    0.959532 0.678185 0.146473 0.118851
H42   H     H_    0.099096 0.783147 0.151037 0.139572
H43   H     H_    0.381838 0.716628 0.618110 0.002735
H44   H     H_    0.163153 0.718873 0.590226 0.067355
H45   H     H_    0.830210 0.285831 0.389520 0.000714
H46   H     H_    0.178377 0.092572 0.228504 0.316370
H47   H     H_    0.674921 0.999829 0.343992 0.311022
H48   H     H_    0.797440 0.248963 0.839063 0.359784
H49   H     H_    0.549335 0.426244 0.916334 0.085657
H50   H     H_    0.672987 0.537289 0.922876 -0.022121
H51   H     H_    0.685334 0.481015 0.006085 0.037910
H52   H     H_    0.090036 0.923751 0.235140 0.341945
H53   H     H_    0.045817 0.273590 0.399931 0.083981
H54   H     H_    0.739087 0.140238 0.308732 0.090979
H55   H     H_    0.903841 0.122239 0.380978 0.035645
H56   H     H_    0.900858 0.663846 0.687071 0.012138
O1    O     O_2   0.823660 0.438400 0.305670 -0.474029
O2    O     O_2   0.192896 0.178477 0.540813 -0.507887
O3    O     O_3   0.158005 0.194962 0.691029 -0.651228
O4    O     O_3   0.097530 0.445010 0.403900 -0.500398
O5    O     O_3   0.591420 0.612980 0.544250 -0.491104
O6    O     O_2   0.325830 0.273320 0.453470 -0.472094
O7    O     O_3   0.479457 0.229930 0.328165 -0.619578
O8    O     O_2   0.462718 0.450093 0.776810 -0.526636
O9    O     O_3   0.570322 0.294704 0.762703 -0.599708
O10   O     O_3   0.626680 0.608380 0.360110 -0.478785
O11   O     O_2   0.739975 0.557230 0.222131 -0.504357
O12   O     O_3   0.732323 0.748441 0.674479 -0.638553
O13   O     O_3   0.943334 0.295167 0.290629 -0.631382
O14   O     O_3   0.515235 0.657835 0.214355 -0.637264
O15   O     O_2   0.863890 0.726710 0.546580 -0.483265
O16   O     O_3   0.059540 0.657940 0.401520 -0.478873
O17   O     O_2   0.980712 0.816653 0.444046 -0.450905
O18   O     O_2   0.892172 0.104160 0.193452 -0.558344
O19   O     O_R   0.133253 0.117240 0.278636 -0.771345
O20   O     O_2   0.782699 0.941426 0.224576 -0.590652
O21   O     O_R   0.605698 0.939341 0.315974 -0.750811
O22   O     O_2   0.896569 0.301975 0.725455 -0.693469
O23   O     O_3   0.048021 0.771524 0.298515 -0.586330
O24   O     O_R   0.912834 0.236070 0.833992 -0.750654
O25   O     O_3   0.799077 0.423792 0.913747 -0.639663
O26   O     O_2   0.031713 0.962955 0.370166 -0.589356
O27   O     O_R   0.195878 0.931918 0.274908 -0.739455
O28   O     O_2   0.366060 0.561630 0.694380 -0.465838
O29   O     O_3   0.092190 0.555060 0.596110 -0.502039
O30   O     O_3   0.563040 0.391700 0.639900 -0.491318
O31   O     O_3   0.240082 0.706581 0.707072 -0.633414
O32   O     O_3   0.598290 0.387090 0.455760 -0.481860
O33   O     O_3   0.130180 0.342130 0.598490 -0.468358
P1    P     P_3+3 0.993930 0.412000 0.316950 0.988877
P2    P     P_3+3 0.694120 0.714590 0.569800 0.972775
P3    P     P_3+3 0.108209 0.770899 0.399709 0.969088
P4    P     P_3+3 0.195780 0.588080 0.683070 0.987360
P5    P     P_3+3 0.087077 0.224266 0.598701 0.952619
P6    P     P_3+3 0.577304 0.569923 0.255939 0.958840
P7    P     P_3+3 0.506078 0.271869 0.431693 0.952521
P8    P     P_3+3 0.601335 0.404206 0.742962 0.998078

loop_
_geom_bond_atom_site_label_1
_geom_bond_atom_site_label_2
_ccdc_geom_bond_type
C42   O18   D    
C43   O20   D    
C39   H55   S    
C2    C51   S    
C32   C35   A    
C49   H21   S    
C37   H34   S    
C17   H33   S    
C7    P1    S    
O32   P7    S    
C5    C6    S    
C20   C33   A    
C19   C29   A    
C11   H31   S    
C9    C17   A    
C24   C25   A    
O23   P3    S    
C46   O25   S    
C26   C27   A    
C40   H56   S    
Ba1   O16   S    
C32   C33   A    
C27   C30   A    
C8    C13   A    
C38   H45   S    
Ba1   O1    S    
Ba2   O4    S    
C34   H13   S    
C4    H25   S    
C30   H38   S    
C31   C47   S    
C45   O3    S    
C2    P6    S    
C49   O9    S    
C36   H40   S    
Ba1   Ba2   S    
Ba1   O10   S    
C10   P4    S    
O9    P8    S    
C48   H19   S    
C45   H16   S    
C28   H43   S    
C41   H5    S    
C42   O19   S    
C14   C15   D    
C21   C22   A    
O8    P8    D    
C34   H10   S    
C1    H7    S    
C50   H22   S    
C47   O26   D    
C26   P7    S    
C16   H42   S    
C37   H12   S    
O12   P2    S    
Ba1   O4    S    
O13   P1    S    
C24   P2    S    
O7    P7    S    
O17   P3    D    
C45   C48   S    
C4    C16   S    
C28   O31   S    
C49   C50   S    
Ba2   O29   S    
C8    O25   S    
O28   P4    D    
O14   P6    S    
C4    O23   S    
C23   O7    S    
O31   P4    S    
C44   O22   D    
C3    C5    D    
C6    C7    D    
O10   P6    S    
C46   H50   S    
C1    C43   S    
C15   H27   S    
C6    H28   S    
O5    P2    S    
C48   H18   S    
Ba1   P1    S    
O2    P5    D    
C40   H2    S    
C18   C36   A    
Ba2   O6    S    
C9    P8    S    
C28   H44   S    
C26   C36   A    
C46   H49   S    
O6    P7    D    
C14   H29   S    
C31   C32   A    
C18   P5    S    
C25   H39   S    
C23   H8    S    
C37   H23   S    
C18   C19   A    
C1    C12   S    
H52   O27   S    
C38   C39   S    
C12   H1    S    
C47   O27   S    
O11   P6    D    
C21   H35   S    
C11   C13   A    
C20   C24   A    
C16   H41   S    
C39   C42   S    
C29   C33   A    
C7    C51   D    
C40   C41   S    
Ba2   O30   S    
C50   H24   S    
C50   H26   S    
C38   H53   S    
C13   C15   S    
C44   C45   S    
C5    C14   S    
C12   O14   S    
C39   H54   S    
Ba2   O28   S    
O33   P5    S    
C1    H14   S    
C49   H20   S    
C2    C3    S    
C22   H37   S    
C3    H30   S    
H46   O19   S    
H48   O24   S    
Ba2   P4    S    
C4    H36   S    
C38   O13   S    
O30   P8    S    
O3    P5    S    
O29   P4    S    
C30   C31   A    
C48   H17   S    
Ba1   O15   S    
C27   C29   A    
Ba1   P2    S    
O16   P3    S    
C44   O24   S    
Ba2   O5    S    
C25   C35   A    
Ba2   O33   S    
C10   C17   A    
C28   C37   S    
H47   O21   S    
C23   H9    S    
O1    P1    D    
Ba1   O32   S    
C8    C9    A    
C41   H4    S    
C23   C34   S    
O4    P1    S    
C41   H3    S    
C43   O21   S    
C10   C11   A    
Ba1   O5    S    
C19   C22   A    
Ba2   O32   S    
C20   C21   A    
O15   P2    D    
C51   H32   S    
C35   P3    S    
C34   H11   S    
C16   H15   S    
C12   H6    S    
Ba1   O29   S    
C40   O12   S    
C46   H51   S    
