data_mof_unit_37506.cif
_audit_creation_date              2012-12-10T17:37:16-0500
_audit_creation_method            fapswitch 2.2
_symmetry_space_group_name_H-M    P1
_symmetry_Int_Tables_number       1
_space_group_crystal_system       triclinic
_cell_length_a                    12.311103
_cell_length_b                    13.170188
_cell_length_c                    15.834619
_cell_angle_alpha                 77.829099
_cell_angle_beta                  101.108725
_cell_angle_gamma                 116.276131
_cell_volume                      2235.88516233

loop_
_atom_site_label
_atom_site_type_symbol
_atom_type_description
_atom_site_fract_x
_atom_site_fract_y
_atom_site_fract_z
_atom_type_partial_charge
C1    C     C_R   0.854804 0.286851 0.505591 0.808679
C2    C     C_3   0.998920 0.496183 0.917589 0.182944
C3    C     C_3   0.089480 0.469444 0.045337 0.051305
C4    C     C_3   0.000792 0.495024 0.083806 0.152328
C5    C     C_3   0.107561 0.574102 0.974440 -0.191546
C6    C     C_3   0.017822 0.599658 0.013760 -0.178389
C7    C     C_1   0.998149 0.497586 0.825540 -0.066873
C8    C     C_1   0.000384 0.495869 0.175374 -0.078628
C9    C     C_R   0.265463 0.035009 0.434083 0.446450
C10   C     C_R   0.227362 0.835251 0.478392 -0.109860
C11   C     C_R   0.817388 0.083765 0.547685 -0.296297
C12   C     C_R   0.999414 0.499680 0.659993 0.830263
C13   C     C_R   0.739086 0.968477 0.564632 0.488306
C14   C     C_R   0.613947 0.934056 0.544130 -0.259108
C15   C     C_R   0.564584 0.011891 0.498546 0.034218
C16   C     C_R   0.645581 0.127429 0.475293 0.086542
C17   C     C_R   0.436785 0.979549 0.478410 0.044192
C18   C     C_R   0.391651 0.063800 0.443166 0.078005
C19   C     C_R   0.472910 0.174012 0.413267 -0.210424
C20   C     C_R   0.596888 0.202473 0.423418 -0.203420
C21   C     C_R   0.352540 0.865562 0.491526 -0.263458
C22   C     C_R   0.183934 0.920291 0.453869 -0.297959
C23   C     C_R   0.144929 0.713471 0.488815 0.825237
C24   C     C_R   0.772004 0.164572 0.506080 -0.170920
C25   C     C_R   0.347383 0.330400 0.640740 0.395658
C26   C     C_R   0.760245 0.646870 0.384462 0.064756
C27   C     C_R   0.664758 0.680274 0.360484 -0.300352
C28   C     C_R   0.561506 0.625389 0.404592 -0.208665
C29   C     C_R   0.552304 0.535594 0.473592 0.038275
C30   C     C_R   0.653315 0.505354 0.496482 0.280687
C31   C     C_R   0.447807 0.475720 0.521213 -0.081091
C32   C     C_R   0.447586 0.388683 0.591665 0.051487
C33   C     C_R   0.547373 0.361121 0.612700 -0.250107
C34   C     C_R   0.000191 0.499567 0.340064 0.817696
C35   C     C_R   0.647668 0.418432 0.566725 -0.195135
C36   C     C_R   0.342646 0.498136 0.502078 -0.000481
C37   C     C_R   0.246096 0.355235 0.616502 0.007052
C38   C     C_3   0.892420 0.417262 0.026604 -0.172933
C39   C     C_3   0.909397 0.521979 0.955277 -0.139076
C40   C     C_1   0.998260 0.498751 0.749731 -0.182852
C41   C     C_1   0.000181 0.497524 0.250669 -0.183449
C42   C     C_3   0.981807 0.391091 0.987204 -0.201913
Cu1   Cu    Cu3+1 0.098270 0.475420 0.519690 0.935885
Cu2   Cu    Cu3+1 0.901730 0.524580 0.480310 0.903717
H1    H     H_    0.835121 0.543598 0.916684 0.131938
H2    H     H_    0.382687 0.798006 0.508856 0.164167
H3    H     H_    0.913194 0.110430 0.571415 0.177736
H4    H     H_    0.558446 0.846059 0.567130 0.154587
H5    H     H_    0.652753 0.284200 0.389514 0.177582
H6    H     H_    0.167071 0.309061 0.651768 0.147523
H7    H     H_    0.548998 0.294586 0.665821 0.182054
H8    H     H_    0.334688 0.562247 0.449614 0.134124
H9    H     H_    0.840285 0.690281 0.350151 0.127874
H10   H     H_    0.804178 0.353139 0.049273 0.131440
H11   H     H_    0.490807 0.655346 0.383473 0.131157
H12   H     H_    0.670883 0.749140 0.307661 0.142246
H13   H     H_    0.719387 0.391831 0.589564 0.210698
H14   H     H_    0.032466 0.685074 0.025828 0.135206
H15   H     H_    0.195911 0.638105 0.951835 0.136812
H16   H     H_    0.964984 0.305596 0.973930 0.124443
H17   H     H_    0.087201 0.897667 0.448880 0.151347
H18   H     H_    0.440572 0.237499 0.378733 0.176212
N1    N     N_R   0.246280 0.438200 0.549540 -0.211758
N2    N     N_R   0.754330 0.561180 0.450980 -0.208740
O1    O     O_R   0.972510 0.318130 0.524770 -0.578423
O2    O     O_R   0.806530 0.359650 0.491510 -0.606192
O3    O     O_R   0.082970 0.479240 0.637550 -0.573637
O4    O     O_R   0.916990 0.520750 0.604290 -0.600852
O5    O     O_R   0.193470 0.640350 0.508490 -0.586892
O6    O     O_R   0.027490 0.681870 0.475230 -0.604300
O7    O     O_R   0.083010 0.479250 0.395710 -0.573765
O8    O     O_R   0.917030 0.520760 0.362450 -0.586793
O9    O     O_3   0.782153 0.890481 0.612350 -0.574483
C43   C     C_3   0.841974 0.863884 0.558438 0.029500
H19   H     H_    0.927926 0.938963 0.541547 0.154213
H20   H     H_    0.782188 0.835743 0.497568 0.149840
C44   C     C_3   0.873973 0.766337 0.606942 -0.716967
H21   H     H_    0.789611 0.689045 0.622729 0.244593
H22   H     H_    0.922713 0.745833 0.565785 0.227815
H23   H     H_    0.933820 0.791316 0.668090 0.244444
O10   O     O_3   0.344578 0.244776 0.709334 -0.588359
C45   C     C_3   0.400646 0.293443 0.786854 0.046099
H24   H     H_    0.475515 0.381182 0.776362 0.129114
H25   H     H_    0.443305 0.238839 0.828831 0.170554
C46   C     C_3   0.306204 0.294571 0.836095 -0.833791
H26   H     H_    0.230318 0.207957 0.845001 0.258706
H27   H     H_    0.349407 0.320565 0.901020 0.212743
H28   H     H_    0.269295 0.356566 0.799999 0.236786
C47   C     C_R   0.193631 0.445030 0.096932 0.111858
C48   C     C_R   0.204779 0.344485 0.093058 -0.155733
C49   C     C_R   0.303258 0.324188 0.140513 -0.149132
C50   C     C_R   0.390907 0.403718 0.192233 -0.105824
C51   C     C_R   0.380501 0.503975 0.196187 -0.141179
C52   C     C_R   0.282424 0.524752 0.148704 -0.153010
H29   H     H_    0.138052 0.281840 0.053413 0.116937
H30   H     H_    0.311475 0.246630 0.137322 0.118929
H31   H     H_    0.466880 0.387767 0.229114 0.122941
H32   H     H_    0.448690 0.565901 0.235673 0.141839
H33   H     H_    0.275754 0.603039 0.152135 0.123331
O11   O     O_3   0.224623 0.120728 0.416430 -0.577475
C53   C     C_3   0.155347 0.116472 0.334086 0.021124
H34   H     H_    0.071342 0.035131 0.332675 0.131849
H35   H     H_    0.210454 0.125743 0.282484 0.136291
C54   C     C_3   0.116681 0.214768 0.314451 -0.721066
H36   H     H_    0.198261 0.297774 0.315615 0.262777
H37   H     H_    0.063655 0.214001 0.249181 0.194599
H38   H     H_    0.058907 0.205970 0.363847 0.243600

loop_
_geom_bond_atom_site_label_1
_geom_bond_atom_site_label_2
_ccdc_geom_bond_type
C3    C42   S    
C51   C52   A    
C30   N2    A    
O9    C43   S    
C23   O5    A    
Cu2   O2    S    
C19   C20   A    
C4    C8    S    
C9    O11   S    
C54   H37   S    
O10   C45   S    
Cu1   N1    S    
C48   H29   S    
C44   H21   S    
Cu2   N2    S    
C12   O4    A    
C26   C27   A    
C53   H34   S    
C43   H20   S    
C30   C35   A    
C28   C29   A    
C38   C42   S    
C38   C39   S    
C9    C22   A    
C44   H23   S    
C19   H18   S    
C15   C16   A    
C11   C24   A    
C18   C19   A    
C47   C52   A    
C26   N2    A    
C50   C51   A    
C25   C37   A    
C49   H30   S    
C11   H3    S    
C2    C39   S    
C2    C7    S    
C43   C44   S    
C1    O1    A    
C7    C40   T    
Cu2   O6    S    
C36   N1    A    
C36   H8    S    
Cu1   O1    S    
C39   H1    S    
C25   C32   A    
C46   H27   S    
C16   C24   A    
C13   C14   A    
C25   O10   S    
C23   O6    A    
C34   C41   S    
C54   H36   S    
C37   N1    A    
C28   H11   S    
C50   H31   S    
C1    O2    A    
C44   H22   S    
C10   C21   A    
C12   O3    A    
C43   H19   S    
C5    H15   S    
C8    C41   T    
C4    C6    S    
C42   H16   S    
C49   C50   A    
C27   H12   S    
C14   H4    S    
C46   H26   S    
C10   C22   A    
C12   C40   S    
Cu1   Cu2   S    
C20   H5    S    
C31   C32   A    
C38   H10   S    
C16   C20   A    
C6    C39   S    
C17   C18   A    
C4    C38   S    
C53   C54   S    
C45   H25   S    
Cu2   O4    S    
C2    C5    S    
C3    C4    S    
C26   H9    S    
C34   O8    A    
C21   H2    S    
C53   H35   S    
C46   H28   S    
C15   C17   A    
Cu1   O7    S    
C14   C15   A    
C13   O9    S    
C3    C5    S    
C10   C23   S    
C33   H7    S    
C45   C46   S    
C35   H13   S    
C3    C47   S    
C32   C33   A    
C29   C31   A    
C22   H17   S    
C37   H6    S    
C11   C13   A    
C48   C49   A    
C5    C6    S    
C52   H33   S    
C2    C42   S    
C34   O7    A    
O11   C53   S    
C33   C35   A    
Cu2   O8    S    
C6    H14   S    
C17   C21   A    
C29   C30   A    
C9    C18   A    
C1    C24   S    
Cu1   O3    S    
C45   H24   S    
C27   C28   A    
C31   C36   A    
C47   C48   A    
Cu1   O5    S    
C51   H32   S    
C54   H38   S    
