data_mof_unit_14944.cif
_audit_creation_date              2012-12-10T16:54:31-0500
_audit_creation_method            fapswitch 2.2
_symmetry_space_group_name_H-M    P1
_symmetry_Int_Tables_number       1
_space_group_crystal_system       triclinic
_cell_length_a                    15.051156
_cell_length_b                    10.986681
_cell_length_c                    9.757358
_cell_angle_alpha                 89.205062
_cell_angle_beta                  89.143479
_cell_angle_gamma                 89.276844
_cell_volume                      1613.03875666

loop_
_atom_site_label
_atom_site_type_symbol
_atom_type_description
_atom_site_fract_x
_atom_site_fract_y
_atom_site_fract_z
_atom_type_partial_charge
C1    C     C_R   0.498609 0.265365 0.501342 0.879310
C2    C     C_R   0.904749 0.613634 0.497974 0.081375
C3    C     C_R   0.952343 0.300728 0.634095 -0.057060
C4    C     C_R   0.046222 0.299813 0.633541 -0.044368
C5    C     C_R   0.093225 0.398234 0.570901 -0.052594
C6    C     C_R   0.045915 0.507060 0.537539 0.063980
C7    C     C_R   0.091989 0.616252 0.505170 -0.031260
C8    C     C_R   0.042931 0.728326 0.501627 -0.128131
C9    C     C_R   0.949152 0.726621 0.502241 -0.013626
C10   C     C_R   0.186406 0.393513 0.547544 -0.078475
C11   C     C_R   0.231783 0.499908 0.508271 -0.102088
C12   C     C_R   0.329099 0.498006 0.501404 0.924021
C13   C     C_R   0.185659 0.610297 0.485458 -0.106838
C14   C     C_2   0.483447 0.935487 0.402089 0.393393
C15   C     C_2   0.527592 0.863809 0.492305 0.215772
C16   C     C_2   0.508416 0.065885 0.394922 0.323310
C17   C     C_2   0.487903 0.133031 0.506008 0.260281
C18   C     C_2   0.428920 0.504395 0.927604 0.496964
C19   C     C_2   0.435964 0.544116 0.078201 0.616197
C20   C     C_R   0.506961 0.733606 0.498736 0.822803
C21   C     C_R   0.670787 0.499226 0.499150 0.804912
C22   C     C_R   0.813252 0.606077 0.467506 -0.082015
C23   C     C_R   0.767653 0.498389 0.499780 -0.154648
C24   C     C_R   0.813603 0.392260 0.542056 -0.062292
C25   C     C_R   0.905909 0.397729 0.567773 -0.069463
C26   C     C_R   0.952140 0.506181 0.534785 0.024916
Cu1   Cu    Cu3+1 0.500020 0.500020 0.638630 1.040651
Cu2   Cu    Cu3+1 0.499980 0.499980 0.361370 1.059010
N1    N     N_2   0.499020 0.498660 0.846910 -0.267248
N2    N     N_2   0.499000 0.498630 0.153040 -0.041496
O1    O     O_R   0.500020 0.321960 0.617040 -0.555456
O2    O     O_R   0.499980 0.321920 0.382900 -0.547365
O3    O     O_R   0.370270 0.499990 0.617090 -0.487808
O4    O     O_R   0.370240 0.499950 0.382940 -0.568334
O5    O     O_R   0.500020 0.678080 0.617100 -0.600936
O6    O     O_R   0.499980 0.678040 0.382960 -0.529623
O7    O     O_R   0.629760 0.500050 0.617060 -0.594662
O8    O     O_R   0.629730 0.500010 0.382910 -0.627159
C27   C     C_2   0.766523 0.703455 0.387030 0.408491
H1    H     H_    0.696386 0.722097 0.403770 0.063324
O9    O     O_2   0.805503 0.760191 0.296495 -0.545468
O10   O     O_3   0.600842 0.913641 0.557825 -0.637945
C28   C     C_3   0.625834 0.850232 0.677811 -0.180980
H2    H     H_    0.655859 0.760092 0.653368 0.169052
H3    H     H_    0.568992 0.842203 0.751095 0.189946
H4    H     H_    0.677231 0.903652 0.729568 0.226512
O11   O     O_3   0.547934 0.119420 0.278734 -0.595954
C29   C     C_3   0.590006 0.032996 0.193156 -0.264852
H5    H     H_    0.540337 0.976187 0.141416 0.184983
H6    H     H_    0.638208 0.975174 0.251030 0.191910
H7    H     H_    0.627927 0.082334 0.111910 0.182014
O12   O     O_3   0.441919 0.078007 0.615434 -0.584667
C30   C     C_3   0.484379 0.095791 0.741665 -0.157529
H8    H     H_    0.453836 0.174670 0.795375 0.204430
H9    H     H_    0.557700 0.106902 0.731263 0.178039
H10   H     H_    0.472571 0.014792 0.808198 0.152290
O13   O     O_3   0.347851 0.469731 0.875940 -0.557479
C31   C     C_3   0.305560 0.387415 0.967088 -0.299315
H11   H     H_    0.278035 0.434860 0.058465 0.164272
H12   H     H_    0.350903 0.311370 0.998397 0.165243
H13   H     H_    0.248927 0.346843 0.913762 0.195402
C32   C     C_2   0.577402 0.560301 0.887559 0.483128
H14   H     H_    0.641966 0.517953 0.870473 0.079645
O14   O     O_2   0.573582 0.662861 0.934487 -0.630958
O15   O     O_3   0.376303 0.625968 0.138500 -0.569081
C33   C     C_3   0.339510 0.707204 0.040877 -0.287568
H15   H     H_    0.289276 0.661750 0.977924 0.188677
H16   H     H_    0.391734 0.750552 0.975283 0.177179
H17   H     H_    0.303755 0.780626 0.095756 0.189624
O16   O     O_3   0.531755 0.392344 0.103085 -0.561207
C34   C     C_3   0.623381 0.384397 0.129106 -0.088840
H18   H     H_    0.635564 0.330509 0.223859 0.221194
H19   H     H_    0.655967 0.474765 0.132345 0.144145
H20   H     H_    0.655832 0.333539 0.044223 0.103527
C35   C     C_2   0.768890 0.272003 0.535405 0.319990
H21   H     H_    0.804779 0.194598 0.492889 0.120377
O17   O     O_2   0.693960 0.256835 0.581186 -0.564774
C36   C     C_2   0.902462 0.214688 0.725417 0.374161
H22   H     H_    0.850023 0.249672 0.792159 0.071680
O18   O     O_2   0.915582 0.104977 0.721503 -0.471035
C37   C     C_2   0.094328 0.208533 0.719567 0.433284
H23   H     H_    0.138422 0.239079 0.798428 0.050664
O19   O     O_2   0.089100 0.099801 0.697746 -0.483427
C38   C     C_2   0.234899 0.274796 0.545203 0.281437
H24   H     H_    0.207387 0.198967 0.490488 0.122503
O20   O     O_2   0.302907 0.259174 0.609759 -0.520284
C39   C     C_2   0.235781 0.715283 0.428801 0.390362
H25   H     H_    0.213340 0.760992 0.336134 0.095194
O21   O     O_2   0.299703 0.754205 0.489023 -0.521541
C40   C     C_2   0.088078 0.846640 0.519370 0.374272
H26   H     H_    0.135620 0.856337 0.600934 0.143026
O22   O     O_2   0.075434 0.931676 0.439864 -0.543755
C41   C     C_2   0.898559 0.840934 0.532875 0.504305
H27   H     H_    0.915215 0.926178 0.482283 0.150076
O23   O     O_2   0.838536 0.840720 0.618385 -0.556123
O24   O     O_3   0.415162 0.888796 0.323472 -0.553532
C42   C     C_3   0.352397 0.980161 0.287231 -0.235645
H28   H     H_    0.328818 0.032095 0.378240 0.181610
H29   H     H_    0.293094 0.936987 0.244554 0.173305
H30   H     H_    0.379955 0.042223 0.206834 0.158733

loop_
_geom_bond_atom_site_label_1
_geom_bond_atom_site_label_2
_ccdc_geom_bond_type
C7    C13   A    
C33   H16   S    
C39   H25   S    
C41   H27   S    
Cu1   N1    S    
C11   C13   A    
C28   H2    S    
C37   H23   S    
O13   C31   S    
C7    C8    A    
C27   O9    D    
C30   H8    S    
Cu1   O3    S    
C19   N2    D    
C38   O20   D    
C5    C6    A    
C36   O18   D    
C33   H17   S    
C31   H12   S    
C1    O1    A    
C17   O12   S    
C18   C19   S    
C10   C38   S    
C32   O14   D    
C42   H29   S    
C20   O5    A    
C29   H7    S    
C21   O8    A    
C16   C17   D    
C2    C22   A    
C23   C24   A    
O16   C34   S    
N2    O16   S    
C31   H13   S    
C29   H6    S    
C33   H15   S    
Cu2   O4    S    
C41   O23   D    
C16   O11   S    
C14   O24   S    
C37   O19   D    
C42   H28   S    
C30   H9    S    
C15   C20   S    
C4    C37   S    
Cu1   O1    S    
Cu2   O2    S    
C24   C25   A    
C27   H1    S    
C34   H19   S    
C36   H22   S    
C8    C9    A    
Cu1   O5    S    
C31   H11   S    
C1    O2    A    
C35   H21   S    
C32   H14   S    
C28   H3    S    
C18   O13   S    
C40   O22   D    
O11   C29   S    
Cu2   O8    S    
O24   C42   S    
C13   C39   S    
C2    C26   A    
C18   N1    D    
C38   H24   S    
C35   O17   D    
C29   H5    S    
C21   C23   S    
C14   C16   S    
C8    C40   S    
O10   C28   S    
C12   O4    A    
C3    C4    A    
C9    C41   S    
C42   H30   S    
O12   C30   S    
C30   H10   S    
N1    C32   S    
C14   C15   D    
C15   O10   S    
C4    C5    A    
C34   H20   S    
C11   C12   S    
C24   C35   S    
C6    C7    A    
C1    C17   S    
C39   O21   D    
C25   C26   A    
C34   H18   S    
C2    C9    A    
C40   H26   S    
C6    C26   A    
Cu1   O7    S    
C22   C27   S    
Cu2   N2    S    
C19   O15   S    
C28   H4    S    
C10   C11   A    
C20   O6    A    
C5    C10   A    
C3    C25   A    
C21   O7    A    
Cu2   O6    S    
O15   C33   S    
Cu1   Cu2   S    
C22   C23   A    
C12   O3    A    
C3    C36   S    
