data_mof_unit_17749.cif
_audit_creation_date              2012-12-10T19:06:30-0500
_audit_creation_method            fapswitch 2.2
_symmetry_space_group_name_H-M    P1
_symmetry_Int_Tables_number       1
_space_group_crystal_system       triclinic
_cell_length_a                    23.505933
_cell_length_b                    10.855088
_cell_length_c                    9.55008
_cell_angle_alpha                 90.206298
_cell_angle_beta                  90.016254
_cell_angle_gamma                 90.180859
_cell_volume                      2436.76054648

loop_
_atom_site_label
_atom_site_type_symbol
_atom_type_description
_atom_site_fract_x
_atom_site_fract_y
_atom_site_fract_z
_atom_type_partial_charge
C1    C     C_R   0.499577 0.262789 0.499699 0.827534
C2    C     C_R   0.968643 0.297194 0.372450 -0.233561
C3    C     C_R   0.028234 0.296109 0.368778 0.255425
C4    C     C_R   0.059430 0.394645 0.430429 -0.054480
C5    C     C_R   0.029520 0.495438 0.488755 -0.066843
C6    C     C_R   0.059516 0.596102 0.546915 -0.007988
C7    C     C_R   0.029462 0.696234 0.603502 -0.163588
C8    C     C_R   0.970214 0.696381 0.604029 -0.165612
C9    C     C_R   0.119467 0.395796 0.438204 0.521184
C10   C     C_R   0.119056 0.594310 0.547202 0.576122
C11   C     C_R   0.238378 0.488299 0.627000 0.306395
C12   C     C_R   0.390913 0.499724 0.500024 0.834812
C13   C     C_R   0.297991 0.491779 0.626581 -0.262663
C14   C     C_R   0.328250 0.498406 0.499920 -0.065078
C15   C     C_R   0.298186 0.502926 0.373045 -0.217551
C16   C     C_R   0.238983 0.501170 0.372693 -0.160505
C17   C     C_R   0.208733 0.494073 0.498747 0.332996
C18   C     C_R   0.760848 0.411351 0.579382 -0.165232
C19   C     C_R   0.701242 0.408828 0.580386 0.209119
C20   C     C_R   0.671010 0.494715 0.498516 -0.056956
C21   C     C_R   0.700659 0.577651 0.412937 -0.290316
C22   C     C_R   0.759890 0.578289 0.411471 -0.092869
C23   C     C_R   0.500525 0.737338 0.500136 0.796059
C24   C     C_R   0.790168 0.495649 0.495101 0.317734
C25   C     C_R   0.499629 0.063076 0.621361 0.075802
C26   C     C_R   0.499126 0.130266 0.498123 -0.070738
C27   C     C_R   0.498876 0.064105 0.370716 -0.202375
C28   C     C_R   0.499565 0.935030 0.371284 -0.177366
C29   C     C_R   0.500787 0.870107 0.499055 -0.100024
C30   C     C_R   0.501571 0.938879 0.622027 -0.050509
C31   C     C_3   0.504682 0.930961 0.778551 0.193722
C32   C     C_3   0.502161 0.074880 0.777450 -0.248611
C33   C     C_R   0.546288 0.460795 0.073719 0.248245
C34   C     C_R   0.608796 0.498537 0.499820 0.815740
C35   C     C_R   0.452673 0.532798 0.074288 -0.098098
C36   C     C_R   0.452682 0.532848 0.925793 -0.041406
C37   C     C_R   0.546299 0.460592 0.926233 0.245619
C38   C     C_3   0.604679 0.514985 0.921823 -0.467530
C39   C     C_3   0.604523 0.515236 0.080126 -0.483871
C40   C     C_R   0.880040 0.594426 0.548396 0.534912
C41   C     C_R   0.879297 0.397980 0.435022 0.555286
C42   C     C_R   0.939000 0.396018 0.432250 -0.051556
C43   C     C_R   0.969409 0.495982 0.489361 -0.018714
C44   C     C_R   0.939723 0.596544 0.547637 -0.004449
Cu1   Cu    Cu3+1 0.500000 0.499980 0.640670 0.973635
Cu2   Cu    Cu3+1 0.500000 0.500020 0.359330 0.941594
H1    H     H_    0.945637 0.220723 0.325786 0.189252
H2    H     H_    0.677869 0.643035 0.348557 0.162588
H3    H     H_    0.782361 0.642969 0.345288 0.156098
H4    H     H_    0.498341 0.111264 0.270960 0.164132
H5    H     H_    0.499394 0.886718 0.272040 0.171344
H6    H     H_    0.541995 0.121666 0.811582 0.139725
H7    H     H_    0.414837 0.561994 0.129126 0.140262
H8    H     H_    0.414860 0.562127 0.871119 0.146618
H9    H     H_    0.636364 0.450316 0.877396 0.215031
H10   H     H_    0.605558 0.608901 0.876205 0.213207
H11   H     H_    0.635983 0.450526 0.125835 0.207972
H12   H     H_    0.604947 0.609532 0.126117 0.221506
H13   H     H_    0.051616 0.774647 0.648308 0.187483
H14   H     H_    0.948426 0.774865 0.649054 0.188092
H15   H     H_    0.320525 0.487706 0.725426 0.155504
H16   H     H_    0.320338 0.508286 0.273846 0.156519
H17   H     H_    0.216384 0.505913 0.274020 0.150023
H18   H     H_    0.784547 0.346344 0.642208 0.146679
N1    N     N_R   0.851177 0.496014 0.492856 -0.462185
N2    N     N_R   0.147625 0.494604 0.495256 -0.464159
N3    N     N_R   0.500360 0.500930 0.147930 -0.185638
N4    N     N_R   0.500360 0.500890 0.852020 -0.187169
O1    O     O_R   0.500000 0.319640 0.618810 -0.553987
O2    O     O_2   0.849523 0.303181 0.379469 -0.538226
O3    O     O_2   0.149752 0.298316 0.392440 -0.500576
O4    O     O_2   0.148320 0.691576 0.598750 -0.530948
O5    O     O_R   0.500010 0.319680 0.381230 -0.592158
O6    O     O_R   0.417880 0.499940 0.618820 -0.579032
O7    O     O_R   0.417880 0.499980 0.381240 -0.593421
O8    O     O_R   0.499990 0.680320 0.618770 -0.578066
O9    O     O_R   0.500000 0.680360 0.381190 -0.584798
O10   O     O_R   0.582120 0.500020 0.618760 -0.568554
O11   O     O_R   0.582120 0.500060 0.381180 -0.591890
O12   O     O_2   0.851043 0.689342 0.605224 -0.536275
N5    N     N_2   0.672180 0.317668 0.660123 -0.441858
H19   H     H_    0.694007 0.290405 0.748438 0.251228
C45   C     C_3   0.652383 0.213232 0.578894 -0.636841
H20   H     H_    0.689153 0.161819 0.535045 0.238304
H21   H     H_    0.624455 0.243586 0.491948 0.214365
H22   H     H_    0.627541 0.150405 0.647171 0.220834
N6    N     N_2   0.455048 0.867550 0.835841 -0.414611
H23   H     H_    0.416577 0.892479 0.792355 0.274226
C46   C     C_3   0.452808 0.852074 0.986339 -0.649132
H24   H     H_    0.412618 0.804657 0.015451 0.208870
H25   H     H_    0.454350 0.942599 0.040319 0.211973
H26   H     H_    0.488736 0.794200 0.022499 0.249033
C47   C     C_2   0.560856 0.878027 0.825458 0.365048
H27   H     H_    0.579110 0.800257 0.770131 0.074177
O13   O     O_2   0.585675 0.920606 0.927079 -0.567769
C48   C     C_2   0.449751 0.132378 0.841447 0.428552
H28   H     H_    0.448236 0.147457 0.953678 0.053574
O14   O     O_2   0.409339 0.163700 0.769552 -0.533686
N7    N     N_2   0.055944 0.196226 0.300426 -0.369483
H29   H     H_    0.036007 0.112434 0.315054 0.248425
C49   C     C_3   0.068275 0.218700 0.154255 -0.593915
H30   H     H_    0.028076 0.227743 0.093866 0.202199
H31   H     H_    0.092996 0.140373 0.110876 0.230933
H32   H     H_    0.093990 0.304075 0.142089 0.236525
N8    N     N_2   0.208459 0.481386 0.756341 -0.416004
H33   H     H_    0.229892 0.521247 0.839305 0.250518
C50   C     C_3   0.187345 0.359837 0.790401 -0.650577
H34   H     H_    0.162999 0.364013 0.889951 0.221407
H35   H     H_    0.223389 0.294840 0.803489 0.236447
H36   H     H_    0.158444 0.325067 0.707256 0.248838

loop_
_geom_bond_atom_site_label_1
_geom_bond_atom_site_label_2
_ccdc_geom_bond_type
N6    H23   S    
C49   H30   S    
C12   O6    A    
C35   H7    S    
C41   C42   A    
C19   C20   A    
C23   O8    A    
N5    H19   S    
C7    C8    A    
Cu1   Cu2   S    
N8    C50   S    
C17   N2    S    
C47   H27   S    
C45   H20   S    
C18   C24   A    
C23   C29   S    
C28   C29   A    
C37   C38   S    
C30   C31   S    
C28   H5    S    
C15   C16   A    
C39   H11   S    
C37   N4    A    
C18   C19   A    
C9    N2    A    
C32   H6    S    
Cu2   O11   S    
C31   C32   S    
C16   C17   A    
C48   O14   D    
C11   N8    S    
C50   H34   S    
C40   O12   S    
Cu1   O10   S    
C16   H17   S    
C46   H25   S    
C27   H4    S    
C21   H2    S    
C20   C34   S    
C25   C32   S    
C5    C43   A    
C47   O13   D    
C21   C22   A    
C50   H35   S    
C7    H13   S    
Cu2   O7    S    
N5    C45   S    
C10   N2    A    
C38   C39   S    
C31   N6    S    
C38   H9    S    
Cu1   O1    S    
C8    C44   A    
C41   N1    A    
C25   C26   A    
C31   C47   S    
C39   H12   S    
C1    O1    A    
Cu1   O6    S    
C35   C36   A    
C43   C44   A    
C29   C30   A    
C34   O11   A    
N7    H29   S    
C35   N3    A    
C48   H28   S    
Cu1   N4    S    
C26   C27   A    
C13   H15   S    
C33   C39   S    
C23   O9    A    
C46   H26   S    
C24   N1    S    
C22   H3    S    
N7    C49   S    
C12   C14   S    
C49   H32   S    
C40   N1    A    
N6    C46   S    
C1    C26   S    
C50   H36   S    
C22   C24   A    
C42   C43   A    
C3    C4    A    
C33   N3    A    
C25   C30   A    
C11   C17   A    
C45   H21   S    
C9    O3    S    
C4    C5    A    
C6    C10   A    
Cu2   O9    S    
C36   N4    A    
C6    C7    A    
C2    H1    S    
N8    H33   S    
C1    O5    A    
C2    C3    A    
C4    C9    A    
Cu2   N3    S    
C32   C48   S    
C19   N5    S    
C34   O10   A    
C11   C13   A    
C18   H18   S    
C5    C6    A    
C2    C42   A    
Cu1   O8    S    
C15   H16   S    
C33   C37   A    
C36   H8    S    
C3    N7    S    
C40   C44   A    
C45   H22   S    
C38   H10   S    
C20   C21   A    
C49   H31   S    
C12   O7    A    
C27   C28   A    
C14   C15   A    
C46   H24   S    
C13   C14   A    
Cu2   O5    S    
C8    H14   S    
C41   O2    S    
C10   O4    S    
