data_mof_unit_27332.cif
_audit_creation_date              2012-12-10T18:35:45-0500
_audit_creation_method            fapswitch 2.2
_symmetry_space_group_name_H-M    P1
_symmetry_Int_Tables_number       1
_space_group_crystal_system       triclinic
_cell_length_a                    13.454287
_cell_length_b                    13.902924
_cell_length_c                    15.143183
_cell_angle_alpha                 89.802673
_cell_angle_beta                  91.861228
_cell_angle_gamma                 72.443452
_cell_volume                      2698.96352415

loop_
_atom_site_label
_atom_site_type_symbol
_atom_type_description
_atom_site_fract_x
_atom_site_fract_y
_atom_site_fract_z
_atom_type_partial_charge
C1    C     C_R   0.495564 0.501400 0.670460 0.884109
C2    C     C_R   0.967029 0.470208 0.520431 -0.025871
C3    C     C_R   0.873802 0.466933 0.476684 -0.118599
C4    C     C_R   0.027647 0.525589 0.481486 -0.135953
C5    C     C_R   0.984139 0.593696 0.410260 -0.252590
C6    C     C_R   0.890652 0.589681 0.366980 0.435023
C7    C     C_R   0.842388 0.519162 0.395199 0.378935
C8    C     C_R   0.133622 0.509524 0.507156 0.394753
C9    C     C_R   0.131269 0.661797 0.426651 0.272520
C10   C     C_R   0.811848 0.414913 0.517526 -0.134901
C11   C     C_R   0.514350 0.421836 0.911335 -0.318736
C12   C     C_R   0.699528 0.446001 0.500982 0.907446
C13   C     C_R   0.511930 0.416252 0.819600 0.416976
C14   C     C_R   0.485187 0.505845 0.767779 -0.282854
C15   C     C_R   0.446596 0.600438 0.810160 0.227530
C16   C     C_R   0.436128 0.602967 0.902758 0.401479
C17   C     C_R   0.476398 0.514065 0.952806 -0.037930
C18   C     C_R   0.532996 0.568424 0.096334 0.471362
C19   C     C_R   0.536833 0.565110 0.188356 -0.406152
C20   C     C_R   0.487614 0.505688 0.233951 -0.277005
C21   C     C_R   0.426771 0.454635 0.187500 0.421038
C22   C     C_R   0.419961 0.459521 0.095119 0.314076
C23   C     C_R   0.497091 0.501148 0.330134 0.904995
C24   C     C_R   0.474382 0.515755 0.049429 -0.096457
C25   C     C_R   0.416846 0.915391 0.458162 0.301478
C26   C     C_R   0.426489 0.811581 0.450378 0.436006
C27   C     C_R   0.577505 0.767851 0.545359 0.480678
C28   C     C_R   0.583067 0.868778 0.539315 0.246145
C29   C     C_R   0.499068 0.945541 0.497932 -0.165710
C30   C     C_R   0.532385 0.097119 0.572221 -0.436385
C31   C     C_R   0.545596 0.194192 0.568206 0.654497
C32   C     C_R   0.460281 0.222470 0.427742 -0.181535
C33   C     C_R   0.464154 0.120060 0.422391 0.442990
C34   C     C_R   0.299330 0.553434 0.497601 0.874464
C35   C     C_R   0.496385 0.055847 0.497698 0.049186
C36   C     C_R   0.037552 0.661391 0.382617 0.366192
C37   C     C_R   0.184896 0.579804 0.481833 -0.301331
C38   C     C_R   0.849081 0.355749 0.593387 -0.312567
C39   C     C_R   0.941379 0.357881 0.636363 0.512322
C40   C     C_R   0.994388 0.421602 0.604049 -0.185857
Cu1   Cu    Cu3+1 0.500000 0.403570 0.500010 1.006569
Cu2   Cu    Cu3+1 0.500000 0.596430 0.499990 1.037861
H1    H     H_    0.581087 0.606840 0.224157 0.214343
H2    H     H_    0.553596 0.053223 0.632695 0.213634
H3    H     H_    0.428664 0.271965 0.371940 0.221337
H4    H     H_    0.800562 0.317620 0.625280 0.173370
H5    H     H_    0.055873 0.433040 0.646294 0.204489
H6    H     H_    0.542706 0.352956 0.950496 0.198240
N1    N     N_R   0.500000 0.741310 0.499980 -0.295457
N2    N     N_R   0.500060 0.258650 0.499980 -0.236120
O1    O     O_R   0.499990 0.418570 0.628550 -0.507989
O2    O     O_R   0.499990 0.581440 0.628540 -0.527382
O3    O     O_R   0.650980 0.378820 0.499990 -0.583256
O4    O     O_R   0.650980 0.541690 0.499970 -0.543713
O5    O     O_R   0.500010 0.418560 0.371460 -0.576097
O6    O     O_R   0.500010 0.581430 0.371450 -0.561375
O7    O     O_R   0.349020 0.458310 0.500030 -0.565229
O8    O     O_R   0.349020 0.621180 0.500010 -0.510102
O9    O     O_3   0.177266 0.734233 0.404319 -0.525873
C41   C     C_3   0.127617 0.823267 0.449861 -0.177707
H7    H     H_    0.041353 0.848105 0.438589 0.139368
H8    H     H_    0.155868 0.884862 0.424653 0.207147
H9    H     H_    0.147799 0.813340 0.521838 0.135790
O10   O     O_3   0.539814 0.322379 0.781507 -0.515424
C42   C     C_3   0.456265 0.281238 0.789081 -0.205368
H10   H     H_    0.438816 0.271286 0.859261 0.146825
H11   H     H_    0.478390 0.205253 0.759388 0.181263
H12   H     H_    0.385029 0.328534 0.752530 0.158090
O11   O     O_3   0.406281 0.688155 0.760281 -0.576364
C43   C     C_3   0.469913 0.751755 0.772909 0.146464
H13   H     H_    0.548781 0.715460 0.747694 0.194005
H14   H     H_    0.478994 0.770071 0.843483 0.177499
C44   C     C_3   0.419996 0.850784 0.723176 -0.798605
H15   H     H_    0.346105 0.892853 0.754252 0.225533
H16   H     H_    0.473733 0.897749 0.724990 0.210452
H17   H     H_    0.402172 0.836145 0.653401 0.243852
O12   O     O_3   0.390315 0.692252 0.946054 -0.556170
C45   C     C_3   0.281463 0.724753 0.927879 0.095885
H18   H     H_    0.248138 0.661548 0.915080 0.099509
H19   H     H_    0.263436 0.776450 0.869474 0.187358
C46   C     C_3   0.227516 0.782315 0.006940 -0.829178
H20   H     H_    0.256908 0.847503 0.020734 0.261933
H21   H     H_    0.142056 0.810625 0.992892 0.201226
H22   H     H_    0.243026 0.731824 0.066131 0.235118
O13   O     O_3   0.584184 0.625420 0.051662 -0.542493
C47   C     C_3   0.692410 0.574963 0.055932 0.050442
H23   H     H_    0.709569 0.496152 0.031689 0.138531
H24   H     H_    0.724685 0.573691 0.124709 0.175295
C48   C     C_3   0.747259 0.630782 0.997540 -0.764230
H25   H     H_    0.733336 0.709218 0.020968 0.246672
H26   H     H_    0.832513 0.591684 0.000092 0.201490
H27   H     H_    0.717221 0.632875 0.928115 0.242781
O14   O     O_3   0.375138 0.397719 0.231612 -0.537435
C49   C     C_3   0.277029 0.461785 0.255537 -0.311817
H28   H     H_    0.285370 0.518708 0.304224 0.134304
H29   H     H_    0.233301 0.415528 0.286768 0.174725
H30   H     H_    0.229619 0.500273 0.196996 0.139124
O15   O     O_3   0.365600 0.402716 0.051103 -0.545950
C50   C     C_3   0.273133 0.466524 0.009982 0.082181
H31   H     H_    0.288097 0.481562 0.940410 0.141162
H32   H     H_    0.241395 0.540027 0.044024 0.110768
C51   C     C_3   0.189803 0.413021 0.008814 -0.769443
H33   H     H_    0.172726 0.396163 0.077414 0.250129
H34   H     H_    0.117111 0.461935 0.975811 0.194579
H35   H     H_    0.217006 0.341313 0.972100 0.252126
O16   O     O_3   0.326023 0.985714 0.426841 -0.509378
C52   C     C_3   0.262241 0.022504 0.499012 -0.319304
H36   H     H_    0.296393 0.069155 0.542846 0.156562
H37   H     H_    0.247858 0.960219 0.537997 0.137291
H38   H     H_    0.185583 0.071634 0.473165 0.172960
O17   O     O_3   0.356564 0.780593 0.397975 -0.496046
C53   C     C_3   0.372814 0.797127 0.308237 -0.172178
H39   H     H_    0.332087 0.753855 0.266985 0.173939
H40   H     H_    0.456938 0.770255 0.292215 0.116473
H41   H     H_    0.338927 0.878013 0.289523 0.190143
O18   O     O_3   0.639447 0.698774 0.606229 -0.552616
C54   C     C_3   0.746742 0.678380 0.591625 -0.214664
H42   H     H_    0.787617 0.601778 0.618139 0.170079
H43   H     H_    0.763971 0.678980 0.520342 0.122065
H44   H     H_    0.779579 0.730233 0.629815 0.195713
O19   O     O_3   0.854096 0.643188 0.289237 -0.542890
C55   C     C_3   0.765267 0.724914 0.306540 -0.266570
H45   H     H_    0.704493 0.701372 0.341226 0.158668
H46   H     H_    0.729732 0.759989 0.242581 0.173125
H47   H     H_    0.787886 0.783297 0.344946 0.161389
O20   O     O_3   0.663425 0.893394 0.583723 -0.565502
C56   C     C_3   0.734325 0.908451 0.522221 -0.371724
H48   H     H_    0.696664 0.967195 0.471562 0.166838
H49   H     H_    0.775288 0.837190 0.489307 0.146006
H50   H     H_    0.794432 0.934118 0.558506 0.180221
O21   O     O_3   0.601459 0.226689 0.633640 -0.509711
C57   C     C_3   0.701682 0.156876 0.647448 -0.293768
H51   H     H_    0.748010 0.191184 0.692098 0.192051
H52   H     H_    0.743446 0.138493 0.584467 0.130619
H53   H     H_    0.698186 0.087272 0.681614 0.168917
O22   O     O_3   0.434143 0.085306 0.343709 -0.521675
C58   C     C_3   0.523958 0.043132 0.294772 -0.298618
H54   H     H_    0.578600 0.976332 0.329470 0.125765
H55   H     H_    0.564393 0.100113 0.279997 0.160077
H56   H     H_    0.499783 0.016951 0.230792 0.193785
O23   O     O_3   0.996834 0.730722 0.315009 -0.540858
C59   C     C_3   0.049653 0.694429 0.236941 0.150944
H57   H     H_    0.047192 0.616675 0.221959 0.134202
H58   H     H_    0.132407 0.694243 0.242531 0.143689
C60   C     C_3   0.996835 0.762902 0.159666 -0.785943
H59   H     H_    0.036615 0.733752 0.097800 0.184492
H60   H     H_    0.913770 0.765065 0.152385 0.265028
H61   H     H_    0.001035 0.840521 0.170772 0.244971
O24   O     O_3   0.189830 0.423179 0.554254 -0.579709
C61   C     C_3   0.207295 0.337843 0.499285 -0.231400
H62   H     H_    0.135639 0.315190 0.488183 0.148281
H63   H     H_    0.266218 0.273476 0.532848 0.172320
H64   H     H_    0.238375 0.350293 0.434517 0.158778
O25   O     O_3   0.972425 0.309576 0.716970 -0.572867
C62   C     C_3   0.013191 0.205081 0.702527 -0.335894
H65   H     H_    0.079174 0.188258 0.656613 0.150233
H66   H     H_    0.951646 0.172851 0.677223 0.146782
H67   H     H_    0.044006 0.166951 0.766544 0.192721
O26   O     O_3   0.760980 0.505471 0.343710 -0.581761
C63   C     C_3   0.801424 0.422233 0.288673 -0.352868
H68   H     H_    0.836809 0.351716 0.328044 0.161297
H69   H     H_    0.859304 0.436112 0.243327 0.175197
H70   H     H_    0.736442 0.410883 0.247318 0.181861

loop_
_geom_bond_atom_site_label_1
_geom_bond_atom_site_label_2
_ccdc_geom_bond_type
C40   H5    S    
O14   C49   S    
C22   O15   S    
C46   H22   S    
C62   H66   S    
C34   C37   S    
C44   H16   S    
Cu1   Cu2   S    
O17   C53   S    
C45   C46   S    
C4    C8    A    
Cu2   O8    S    
C53   H40   S    
C60   H59   S    
O24   C61   S    
C23   O6    A    
O12   C45   S    
C58   H55   S    
O20   C56   S    
C30   C35   A    
C41   H9    S    
C18   C24   A    
C28   C29   A    
C16   O12   S    
C3    C7    A    
O11   C43   S    
C54   H43   S    
C5    C6    A    
C47   H24   S    
C7    O26   S    
O16   C52   S    
C15   C16   A    
C5    C36   A    
O18   C54   S    
C51   H35   S    
C41   H8    S    
C18   C19   A    
C44   H15   S    
Cu1   O5    S    
C31   O21   S    
C46   H21   S    
C19   C20   A    
C28   O20   S    
C16   C17   A    
C42   H11   S    
C61   H64   S    
C9    C36   A    
C52   H36   S    
C56   H48   S    
C43   H13   S    
C48   H26   S    
C12   O3    A    
C49   H29   S    
Cu2   O6    S    
C27   O18   S    
O9    C41   S    
C13   C14   A    
C62   H67   S    
C52   H37   S    
C59   C60   S    
C30   H2    S    
C11   H6    S    
C49   H28   S    
C53   H39   S    
C60   H60   S    
C19   H1    S    
C25   O16   S    
C46   H20   S    
C25   C29   A    
C38   C39   A    
C15   O11   S    
C58   H56   S    
C18   O13   S    
C59   H57   S    
C39   O25   S    
C17   C24   S    
C63   H70   S    
C26   N1    A    
C39   C40   A    
C47   H23   S    
C57   H51   S    
C49   H30   S    
C25   C26   A    
O13   C47   S    
C32   C33   A    
C41   H7    S    
C9    O9    S    
C63   H69   S    
C2    C4    A    
C36   O23   S    
C56   H49   S    
C34   O7    A    
O26   C63   S    
C20   C23   S    
C42   H12   S    
Cu1   O3    S    
C43   C44   S    
C9    C37   A    
O19   C55   S    
C45   H19   S    
C32   H3    S    
C48   H27   S    
C51   H34   S    
C1    O1    A    
C32   N2    A    
O25   C62   S    
C10   C12   S    
C50   H32   S    
O15   C50   S    
C44   H17   S    
C22   C24   A    
C54   H44   S    
C8    C37   A    
C31   N2    A    
C55   H46   S    
O21   C57   S    
Cu1   N2    S    
C62   H65   S    
C59   H58   S    
C60   H61   S    
C52   H38   S    
C11   C17   A    
C45   H18   S    
O22   C58   S    
C47   C48   S    
C23   O5    A    
C6    C7    A    
C58   H54   S    
C29   C35   S    
C54   H42   S    
C61   H62   S    
C50   H31   S    
C10   C38   A    
C63   H68   S    
C55   H47   S    
C2    C3    A    
C55   H45   S    
C56   H50   S    
Cu1   O7    S    
C3    C10   A    
O23   C59   S    
Cu2   O4    S    
C11   C13   A    
C33   O22   S    
C30   C31   A    
C13   O10   S    
C21   O14   S    
C57   H53   S    
O10   C42   S    
C33   C35   A    
C8    O24   S    
C61   H63   S    
C51   H33   S    
C1    O2    A    
C38   H4    S    
Cu2   N1    S    
C2    C40   A    
C4    C5    A    
C50   C51   S    
C20   C21   A    
C57   H52   S    
C42   H10   S    
C27   C28   A    
C34   O8    A    
C14   C15   A    
C43   H14   S    
C1    C14   S    
C6    O19   S    
C48   H25   S    
C21   C22   A    
C26   O17   S    
Cu1   O1    S    
C53   H41   S    
C12   O4    A    
C27   N1    A    
Cu2   O2    S    
