data_mof_unit_62778.cif
_audit_creation_date              2012-12-10T17:27:34-0500
_audit_creation_method            fapswitch 2.2
_symmetry_space_group_name_H-M    P1
_symmetry_Int_Tables_number       1
_space_group_crystal_system       triclinic
_cell_length_a                    18.244688
_cell_length_b                    18.243468
_cell_length_c                    43.020444
_cell_angle_alpha                 90.00013
_cell_angle_beta                  89.999973
_cell_angle_gamma                 89.997634
_cell_volume                      14319.1991122

loop_
_atom_site_label
_atom_site_type_symbol
_atom_type_description
_atom_site_fract_x
_atom_site_fract_y
_atom_site_fract_z
_atom_type_partial_charge
C1    C     C_R   0.987172 0.565294 0.885215 0.546571
C2    C     C_R   0.513434 0.934830 0.614789 0.546458
C3    C     C_R   0.644244 0.863852 0.747524 0.868627
C4    C     C_R   0.136163 0.644237 0.252472 0.868144
C5    C     C_R   0.863844 0.355756 0.747531 0.869207
C6    C     C_R   0.644249 0.863861 0.252478 0.867962
C7    C     C_R   0.355756 0.136148 0.747524 0.868622
C8    C     C_R   0.500000 1.000000 0.531531 0.437834
C9    C     C_R   0.500000 0.000000 0.468467 0.438075
C10   C     C_R   1.000000 0.500000 0.531561 0.427330
C11   C     C_R   1.000000 0.500000 0.468437 0.427356
C12   C     C_R   0.000000 0.500000 0.031531 0.441424
C13   C     C_R   0.936762 0.520577 0.385052 0.548066
C14   C     C_R   0.000000 0.500000 0.968470 0.441369
C15   C     C_R   0.500000 0.000000 0.031532 0.437029
C16   C     C_R   0.500000 0.000000 0.968468 0.437049
C17   C     C_R   1.000000 0.500000 0.868612 -0.540817
C18   C     C_R   1.000000 0.500000 0.131387 -0.540589
C19   C     C_R   0.500000 0.000000 0.868609 -0.540904
C20   C     C_R   0.500000 1.000000 0.131391 -0.540882
C21   C     C_R   0.500000 0.000000 0.368610 -0.541484
C22   C     C_R   0.500000 1.000000 0.631390 -0.540788
C23   C     C_R   1.000000 0.500000 0.368506 -0.519648
C24   C     C_R   0.063121 0.520919 0.614946 0.545780
C25   C     C_R   1.000000 0.500000 0.631492 -0.541874
C26   C     C_R   0.253193 0.655737 0.698046 0.500008
C27   C     C_R   0.746573 0.344490 0.301895 0.490618
C28   C     C_R   0.344309 0.253218 0.698043 0.498306
C29   C     C_R   0.655788 0.746904 0.301997 0.499870
C30   C     C_R   0.746808 0.344262 0.698046 0.500002
C31   C     C_R   0.253427 0.655510 0.301895 0.490620
C32   C     C_R   0.655679 0.746768 0.698047 0.498308
C33   C     C_R   0.344212 0.253097 0.301997 0.499870
C34   C     C_R   0.293083 0.384333 0.276922 0.471748
C35   C     C_R   0.513470 0.934837 0.385211 0.546689
C36   C     C_R   0.706859 0.615587 0.723155 0.469062
C37   C     C_R   0.384519 0.706792 0.276751 0.468466
C38   C     C_R   0.615602 0.293136 0.723134 0.469638
C39   C     C_R   0.706917 0.615668 0.276922 0.471748
C40   C     C_R   0.293135 0.384406 0.723147 0.469072
C41   C     C_R   0.615481 0.293208 0.276752 0.468467
C42   C     C_R   0.384398 0.706864 0.723134 0.469637
C43   C     C_R   0.753276 0.155620 0.198055 0.498332
C44   C     C_R   0.246871 0.844272 0.801989 0.497937
C45   C     C_R   0.844264 0.753163 0.198029 0.497151
C46   C     C_R   0.486566 0.065170 0.614789 0.546462
C47   C     C_R   0.155694 0.246794 0.801964 0.497672
C48   C     C_R   0.246724 0.844380 0.198055 0.498333
C49   C     C_R   0.753128 0.155729 0.801989 0.497931
C50   C     C_R   0.155735 0.246836 0.198029 0.497152
C51   C     C_R   0.844318 0.753221 0.801960 0.497676
C52   C     C_R   0.793132 0.884404 0.776855 0.469732
C53   C     C_R   0.206882 0.115615 0.223114 0.470151
C54   C     C_R   0.884336 0.206886 0.776909 0.469873
C55   C     C_R   0.115593 0.793160 0.223184 0.470295
C56   C     C_R   0.206874 0.115604 0.776863 0.469742
C57   C     C_R   0.063238 0.479423 0.385051 0.548065
C58   C     C_R   0.793118 0.884384 0.223114 0.470152
C59   C     C_R   0.115663 0.793114 0.776908 0.469870
C60   C     C_R   0.884407 0.206840 0.223184 0.470295
C61   C     C_R   0.319834 0.636116 0.684496 0.535676
C62   C     C_R   0.679863 0.364129 0.315383 0.532169
C63   C     C_R   0.363932 0.319881 0.684511 0.535507
C64   C     C_R   0.636192 0.680268 0.315560 0.542746
C65   C     C_R   0.680167 0.363883 0.684496 0.535677
C66   C     C_R   0.320137 0.635871 0.315383 0.532166
C67   C     C_R   0.636053 0.680101 0.684519 0.535527
C68   C     C_R   0.936879 0.479081 0.614946 0.545779
C69   C     C_R   0.363809 0.319733 0.315560 0.542749
C70   C     C_R   0.341587 0.385268 0.301995 0.503374
C71   C     C_R   0.658301 0.614594 0.698101 0.493534
C72   C     C_R   0.385596 0.658171 0.301781 0.499460
C73   C     C_R   0.614644 0.341664 0.698068 0.495960
C74   C     C_R   0.658413 0.614733 0.301995 0.503374
C75   C     C_R   0.341687 0.385392 0.698091 0.493543
C76   C     C_R   0.614405 0.341829 0.301781 0.499458
C77   C     C_R   0.385356 0.658335 0.698069 0.495950
C78   C     C_R   0.819959 0.135988 0.184545 0.536395
C79   C     C_R   0.316880 0.733355 0.735042 -0.240973
C80   C     C_R   0.180228 0.863888 0.815539 0.536327
C81   C     C_R   0.863882 0.819810 0.184481 0.536331
C82   C     C_R   0.136080 0.180132 0.815499 0.536085
C83   C     C_R   0.180041 0.864012 0.184545 0.536395
C84   C     C_R   0.819770 0.136113 0.815539 0.536328
C85   C     C_R   0.136118 0.180189 0.184481 0.536330
C86   C     C_R   0.863938 0.819887 0.815490 0.536107
C87   C     C_R   0.841685 0.885395 0.801910 0.495673
C88   C     C_R   0.158349 0.114662 0.198051 0.495746
C89   C     C_R   0.885292 0.158350 0.801971 0.496138
C90   C     C_R   0.683054 0.266699 0.264909 -0.242030
C91   C     C_R   0.114560 0.841744 0.198139 0.496118
C92   C     C_R   0.158329 0.114620 0.801921 0.495684
C93   C     C_R   0.841651 0.885337 0.198051 0.495745
C94   C     C_R   0.114707 0.841651 0.801971 0.496128
C95   C     C_R   0.885440 0.158255 0.198139 0.496119
C96   C     C_R   0.000000 0.500000 0.934176 -0.431289
C97   C     C_R   0.000000 0.500000 0.065824 -0.431312
C98   C     C_R   0.500000 0.000000 0.934172 -0.430294
C99   C     C_R   0.500000 0.000000 0.065827 -0.430272
C100  C     C_R   0.500000 0.000000 0.434173 -0.431264
C101  C     C_R   0.266638 0.316871 0.735037 -0.241061
C102  C     C_R   0.500000 1.000000 0.565826 -0.430384
C103  C     C_R   1.000000 0.500000 0.434072 -0.427728
C104  C     C_R   1.000000 0.500000 0.565925 -0.425711
C105  C     C_R   0.012739 0.434688 0.114783 0.546558
C106  C     C_R   0.733401 0.683178 0.265001 -0.238850
C107  C     C_R   0.683120 0.266644 0.735042 -0.240975
C108  C     C_R   0.316946 0.733301 0.264909 -0.242028
C109  C     C_R   0.733358 0.683125 0.735041 -0.241057
C110  C     C_R   0.266599 0.316822 0.265001 -0.238850
C111  C     C_R   0.301872 0.251655 0.274342 -0.253860
C112  C     C_R   0.698068 0.748273 0.725689 -0.253349
C113  C     C_R   0.251829 0.697976 0.274272 -0.245972
C114  C     C_R   0.748274 0.301920 0.725699 -0.254685
C115  C     C_R   0.698128 0.748345 0.274342 -0.253860
C116  C     C_R   0.434868 0.986409 0.885209 0.546261
C117  C     C_R   0.301926 0.251720 0.725687 -0.253345
C118  C     C_R   0.748171 0.302024 0.274272 -0.245970
C119  C     C_R   0.251726 0.698079 0.725699 -0.254691
C120  C     C_R   0.816853 0.233357 0.235047 -0.242298
C121  C     C_R   0.183179 0.766615 0.765001 -0.240992
C122  C     C_R   0.766630 0.816865 0.235023 -0.240022
C123  C     C_R   0.233368 0.183138 0.764970 -0.241218
C124  C     C_R   0.183146 0.766643 0.235047 -0.242298
C125  C     C_R   0.816820 0.233385 0.765001 -0.240995
C126  C     C_R   0.233370 0.183135 0.235023 -0.240022
C127  C     C_R   0.565133 0.013586 0.114791 0.546180
C128  C     C_R   0.766636 0.816866 0.764966 -0.241215
C129  C     C_R   0.801928 0.751718 0.774317 -0.253243
C130  C     C_R   0.198094 0.248298 0.225681 -0.253443
C131  C     C_R   0.751663 0.198102 0.774342 -0.253482
C132  C     C_R   0.248272 0.801953 0.225687 -0.253650
C133  C     C_R   0.198077 0.248288 0.774320 -0.253241
C134  C     C_R   0.801906 0.751701 0.225681 -0.253442
C135  C     C_R   0.248336 0.801899 0.774342 -0.253488
C136  C     C_R   0.751728 0.198046 0.225687 -0.253648
C137  C     C_R   0.312437 0.793003 0.756061 0.116434
C138  C     C_R   0.012828 0.434706 0.885215 0.546577
C139  C     C_R   0.687574 0.206985 0.243930 0.115572
C140  C     C_R   0.206983 0.312411 0.756052 0.116227
C141  C     C_R   0.793019 0.687601 0.243964 0.115426
C142  C     C_R   0.687563 0.206997 0.756061 0.116434
C143  C     C_R   0.312426 0.793015 0.243930 0.115573
C144  C     C_R   0.793018 0.687590 0.756053 0.116226
C145  C     C_R   0.206981 0.312399 0.243964 0.115426
C146  C     C_R   0.292999 0.187566 0.256053 0.116764
C147  C     C_R   0.706979 0.812403 0.743952 0.116158
C148  C     C_R   0.187648 0.706944 0.256040 0.116263
C149  C     C_R   0.987262 0.565312 0.114784 0.546559
C150  C     C_R   0.812384 0.293023 0.743973 0.116506
C151  C     C_R   0.707001 0.812434 0.256053 0.116764
C152  C     C_R   0.293019 0.187596 0.743953 0.116156
C153  C     C_R   0.812352 0.293056 0.256040 0.116263
C154  C     C_R   0.187616 0.706977 0.743973 0.116506
C155  C     C_R   0.987151 0.565252 0.917616 0.557624
C156  C     C_R   0.012760 0.434731 0.082383 0.557585
C157  C     C_R   0.434900 0.986425 0.917611 0.557631
C158  C     C_R   0.565101 0.013570 0.082389 0.557613
C159  C     C_R   0.012849 0.434748 0.917616 0.557625
C160  C     C_R   0.565132 0.013591 0.885209 0.546261
C161  C     C_R   0.987241 0.565269 0.082383 0.557584
C162  C     C_R   0.565100 0.013575 0.917611 0.557631
C163  C     C_R   0.434899 0.986429 0.082389 0.557612
C164  C     C_R   0.486549 0.065131 0.417613 0.558313
C165  C     C_R   0.513416 0.934862 0.582386 0.557960
C166  C     C_R   0.936781 0.520741 0.417447 0.564620
C167  C     C_R   0.063100 0.521093 0.582550 0.557737
C168  C     C_R   0.513451 0.934869 0.417613 0.558311
C169  C     C_R   0.486584 0.065138 0.582387 0.557958
C170  C     C_R   0.063219 0.479258 0.417447 0.564620
C171  C     C_R   0.434867 0.986413 0.114791 0.546179
C172  C     C_R   0.936900 0.478906 0.582550 0.557737
C173  C     C_R   0.000000 0.500000 0.665754 0.980961
C174  C     C_R   1.000000 0.500000 0.334245 0.983856
C175  C     C_R   0.500000 1.000000 0.665717 0.976804
C176  C     C_R   0.500000 1.000000 0.334282 0.977260
C177  C     C_R   0.500000 1.000000 0.165718 0.976497
C178  C     C_R   0.500000 1.000000 0.834282 0.976630
C179  C     C_R   1.000000 0.500000 0.165716 0.975662
C180  C     C_R   0.000000 0.500000 0.834283 0.976065
C181  C     C_R   0.855755 0.636145 0.752477 0.868616
C182  C     C_R   0.486531 0.065163 0.385211 0.546688
C183  C     C_R   0.144244 0.363850 0.247527 0.871380
C184  C     C_R   0.363863 0.855750 0.752479 0.868689
C185  C     C_R   0.636141 0.144246 0.247520 0.869058
C186  C     C_R   0.144245 0.363855 0.752477 0.868615
C187  C     C_R   0.855756 0.636150 0.247527 0.871379
C188  C     C_R   0.636137 0.144250 0.752479 0.868692
C189  C     C_R   0.363859 0.855754 0.247520 0.869057
C190  C     C_R   0.863837 0.355763 0.252472 0.868146
C191  C     C_R   0.136156 0.644244 0.747530 0.869204
C192  C     C_R   0.355751 0.136139 0.252478 0.867963
F1    F     F_    0.190592 0.638837 0.682536 -0.533153
F2    F     F_    0.722810 0.550916 0.737272 -0.590050
F3    F     F_    0.449145 0.722818 0.262617 -0.590752
F4    F     F_    0.550916 0.277207 0.737238 -0.589766
F5    F     F_    0.722806 0.550967 0.262817 -0.590722
F6    F     F_    0.277190 0.449080 0.737262 -0.590040
F7    F     F_    0.550855 0.277182 0.262617 -0.590752
F8    F     F_    0.449084 0.722793 0.737239 -0.589773
F9    F     F_    0.690723 0.138632 0.182523 -0.538640
F10   F     F_    0.309472 0.861238 0.817491 -0.538791
F11   F     F_    0.861216 0.690560 0.182522 -0.540267
F12   F     F_    0.809091 0.361504 0.317450 -0.560572
F13   F     F_    0.138722 0.309381 0.817479 -0.539803
F14   F     F_    0.309277 0.861368 0.182523 -0.538640
F15   F     F_    0.690527 0.138763 0.817491 -0.538794
F16   F     F_    0.138784 0.309439 0.182522 -0.540267
F17   F     F_    0.861292 0.690639 0.817478 -0.539787
F18   F     F_    0.777187 0.949076 0.762738 -0.589694
F19   F     F_    0.222805 0.050924 0.237219 -0.589384
F20   F     F_    0.949022 0.222793 0.762800 -0.589454
F21   F     F_    0.050948 0.777196 0.237315 -0.589123
F22   F     F_    0.222812 0.050928 0.762748 -0.589682
F23   F     F_    0.361272 0.190633 0.682524 -0.538910
F24   F     F_    0.777195 0.949076 0.237218 -0.589383
F25   F     F_    0.050977 0.777206 0.762799 -0.589461
F26   F     F_    0.949052 0.222804 0.237315 -0.589123
F27   F     F_    0.974081 0.629511 0.870239 -0.484383
F28   F     F_    0.025732 0.370449 0.129759 -0.484418
F29   F     F_    0.370974 0.971892 0.870223 -0.483988
F30   F     F_    0.629027 0.028099 0.129776 -0.484053
F31   F     F_    0.025919 0.370489 0.870238 -0.484379
F32   F     F_    0.974269 0.629550 0.129760 -0.484418
F33   F     F_    0.629025 0.028108 0.870223 -0.483991
F34   F     F_    0.638829 0.809523 0.317492 -0.537003
F35   F     F_    0.370973 0.971901 0.129776 -0.484053
F36   F     F_    0.472138 0.129092 0.370226 -0.483436
F37   F     F_    0.527790 0.870893 0.629773 -0.484023
F38   F     F_    0.874995 0.542109 0.369974 -0.514663
F39   F     F_    0.124773 0.542763 0.630020 -0.482871
F40   F     F_    0.527863 0.870909 0.370226 -0.483436
F41   F     F_    0.472210 0.129107 0.629773 -0.484019
F42   F     F_    0.125005 0.457890 0.369974 -0.514664
F43   F     F_    0.875227 0.457237 0.630020 -0.482873
F44   F     F_    0.975912 0.629690 0.932685 -0.510410
F45   F     F_    0.809408 0.361161 0.682536 -0.533156
F46   F     F_    0.023904 0.370278 0.067313 -0.510412
F47   F     F_    0.371255 0.971360 0.932681 -0.510805
F48   F     F_    0.628747 0.028631 0.067319 -0.510832
F49   F     F_    0.024087 0.370310 0.932684 -0.510408
F50   F     F_    0.976097 0.629722 0.067313 -0.510411
F51   F     F_    0.628745 0.028640 0.932681 -0.510806
F52   F     F_    0.371253 0.971368 0.067318 -0.510831
F53   F     F_    0.471606 0.128808 0.432684 -0.509495
F54   F     F_    0.528323 0.871175 0.567316 -0.510578
F55   F     F_    0.875019 0.542756 0.432384 -0.513673
F56   F     F_    0.190909 0.638496 0.317450 -0.560572
F57   F     F_    0.124735 0.543456 0.567613 -0.513492
F58   F     F_    0.528394 0.871192 0.432684 -0.509495
F59   F     F_    0.471676 0.128824 0.567316 -0.510575
F60   F     F_    0.124980 0.457243 0.432384 -0.513673
F61   F     F_    0.875265 0.456543 0.567613 -0.513493
F62   F     F_    0.049932 0.865691 0.813604 -0.459256
F63   F     F_    0.950251 0.134209 0.186544 -0.459499
F64   F     F_    0.134298 0.049828 0.813543 -0.459683
F65   F     F_    0.865691 0.950113 0.186418 -0.459437
F66   F     F_    0.950067 0.134309 0.813605 -0.459261
F67   F     F_    0.638715 0.809348 0.682526 -0.538894
F68   F     F_    0.049749 0.865791 0.186544 -0.459499
F69   F     F_    0.865719 0.950191 0.813527 -0.459713
F70   F     F_    0.134309 0.049885 0.186418 -0.459437
F71   F     F_    0.094208 0.179255 0.158440 -0.431042
F72   F     F_    0.905863 0.820858 0.841526 -0.430936
F73   F     F_    0.179028 0.905959 0.158515 -0.430730
F74   F     F_    0.820706 0.094196 0.841579 -0.430823
F75   F     F_    0.905792 0.820744 0.158440 -0.431043
F76   F     F_    0.094160 0.179169 0.841537 -0.430947
F77   F     F_    0.820972 0.094040 0.158515 -0.430731
F78   F     F_    0.361171 0.190478 0.317492 -0.537003
F79   F     F_    0.179292 0.905806 0.841578 -0.430813
F80   F     F_    0.549573 0.365869 0.313359 -0.461251
F81   F     F_    0.450131 0.634300 0.686433 -0.459469
F82   F     F_    0.634378 0.549966 0.313639 -0.457787
F83   F     F_    0.365724 0.450185 0.686473 -0.460773
F84   F     F_    0.450427 0.634131 0.313358 -0.461252
F85   F     F_    0.549870 0.365699 0.686433 -0.459473
F86   F     F_    0.365623 0.450035 0.313638 -0.457788
F87   F     F_    0.634261 0.549798 0.686487 -0.460799
F88   F     F_    0.594127 0.679128 0.658483 -0.431567
F89   F     F_    0.277194 0.449033 0.262817 -0.590722
F90   F     F_    0.405700 0.320649 0.341606 -0.428205
F91   F     F_    0.679235 0.405771 0.658448 -0.431851
F92   F     F_    0.321198 0.593897 0.341405 -0.440321
F93   F     F_    0.405852 0.320847 0.658473 -0.431578
F94   F     F_    0.594300 0.679353 0.341606 -0.428205
F95   F     F_    0.320766 0.594227 0.658448 -0.431841
F96   F     F_    0.678802 0.406103 0.341405 -0.440321
N1    N     N_R   0.037748 0.448346 0.984547 -0.045314
N2    N     N_R   0.514859 0.062227 0.515453 -0.043033
N3    N     N_R   0.063920 0.500203 0.484548 -0.037537
N4    N     N_R   0.936079 0.499876 0.515450 -0.038116
N5    N     N_R   0.514859 0.062227 0.484545 -0.043254
N6    N     N_R   0.485140 0.937773 0.515453 -0.043034
N7    N     N_R   0.936079 0.499796 0.484548 -0.037537
N8    N     N_R   0.063921 0.500123 0.515450 -0.038116
N9    N     N_R   0.962253 0.551655 0.015454 -0.045362
N10   N     N_R   0.562267 0.985321 0.984546 -0.043121
N11   N     N_R   0.437733 0.014679 0.015454 -0.043123
N12   N     N_R   0.962253 0.551654 0.984547 -0.045314
N13   N     N_R   0.037747 0.448345 0.015454 -0.045362
N14   N     N_R   0.437733 0.014679 0.984546 -0.043120
N15   N     N_R   0.562267 0.985321 0.015454 -0.043123
N16   N     N_R   0.485141 0.937773 0.484545 -0.043254
O1    O     O_3   1.000000 0.500000 0.750000 -0.585074
O2    O     O_R   0.060770 0.500000 0.319330 -0.559615
O3    O     O_R   0.500000 0.939230 0.680670 -0.562094
O4    O     O_R   0.500000 0.060770 0.319330 -0.562309
O5    O     O_R   0.560770 0.000000 0.180670 -0.562222
O6    O     O_R   0.439230 0.000000 0.819330 -0.562203
O7    O     O_R   0.000000 0.560770 0.180670 -0.562035
O8    O     O_R   0.000000 0.439230 0.819330 -0.561826
O9    O     O_R   0.439230 0.000000 0.180670 -0.562221
O10   O     O_R   0.560770 0.000000 0.819330 -0.562203
O11   O     O_R   0.000000 0.439230 0.180670 -0.562036
O12   O     O_3   0.000000 0.500000 0.250000 -0.587584
O13   O     O_R   0.000000 0.560770 0.819330 -0.561827
O14   O     O_R   0.853860 0.585440 0.731810 -0.605019
O15   O     O_R   0.146140 0.414560 0.268190 -0.596460
O16   O     O_R   0.414560 0.853860 0.731810 -0.603640
O17   O     O_R   0.585440 0.146140 0.268190 -0.603953
O18   O     O_R   0.146140 0.414560 0.731810 -0.605019
O19   O     O_R   0.853860 0.585440 0.268190 -0.596460
O20   O     O_R   0.585440 0.146140 0.731810 -0.603642
O21   O     O_R   0.414560 0.853860 0.268190 -0.603953
O22   O     O_R   0.853860 0.414560 0.268190 -0.573087
O23   O     O_3   0.500000 1.000000 0.750000 -0.585487
O24   O     O_R   0.146140 0.585440 0.731810 -0.571235
O25   O     O_R   0.414560 0.146140 0.268190 -0.571718
O26   O     O_R   0.585440 0.853860 0.731810 -0.571115
O27   O     O_R   0.146140 0.585440 0.268190 -0.573086
O28   O     O_R   0.853860 0.414560 0.731810 -0.571233
O29   O     O_R   0.585440 0.853860 0.268190 -0.571718
O30   O     O_R   0.414560 0.146140 0.731810 -0.571114
O31   O     O_R   0.353860 0.085440 0.231810 -0.603713
O32   O     O_R   0.646140 0.914560 0.768190 -0.603774
O33   O     O_R   0.914560 0.353860 0.231810 -0.603555
O34   O     O_3   0.500000 0.000000 0.250000 -0.585233
O35   O     O_R   0.085440 0.646140 0.768190 -0.603495
O36   O     O_R   0.646140 0.914560 0.231810 -0.603713
O37   O     O_R   0.353860 0.085440 0.768190 -0.603772
O38   O     O_R   0.085440 0.646140 0.231810 -0.603554
O39   O     O_R   0.914560 0.353860 0.768190 -0.603497
O40   O     O_R   0.353860 0.914560 0.768190 -0.571154
O41   O     O_R   0.646140 0.085440 0.231810 -0.571112
O42   O     O_R   0.914560 0.646140 0.768190 -0.570953
O43   O     O_R   0.085440 0.353860 0.231810 -0.571981
O44   O     O_R   0.646140 0.085440 0.768190 -0.571153
O45   O     O_R   0.060770 0.500000 0.680670 -0.564595
O46   O     O_R   0.353860 0.914560 0.231810 -0.571112
O47   O     O_R   0.085440 0.353860 0.768190 -0.570952
O48   O     O_R   0.914560 0.646140 0.231810 -0.571981
O49   O     O_R   0.939230 0.500000 0.319330 -0.559615
O50   O     O_R   0.500000 0.060770 0.680670 -0.562093
O51   O     O_R   0.500000 0.939230 0.319330 -0.562309
O52   O     O_R   0.939230 0.500000 0.680670 -0.564596
Zn1   Zn    Zn3+2 0.000000 0.586740 0.775960 1.126254
Zn2   Zn    Zn3+2 0.500000 0.913260 0.724040 1.125940
Zn3   Zn    Zn3+2 0.913260 0.500000 0.275960 1.131667
Zn4   Zn    Zn3+2 0.086740 0.500000 0.724040 1.124666
Zn5   Zn    Zn3+2 0.500000 0.913260 0.275960 1.125432
Zn6   Zn    Zn3+2 0.500000 0.086740 0.724040 1.125938
Zn7   Zn    Zn3+2 0.086740 0.500000 0.275960 1.131667
Zn8   Zn    Zn3+2 0.913260 0.500000 0.724040 1.124664
Zn9   Zn    Zn3+2 1.000000 0.413260 0.224040 1.125620
Zn10  Zn    Zn3+2 0.413260 0.000000 0.775960 1.125667
Zn11  Zn    Zn3+2 0.586740 0.000000 0.224040 1.125769
Zn12  Zn    Zn3+2 1.000000 0.413260 0.775960 1.126252
Zn13  Zn    Zn3+2 0.000000 0.586740 0.224040 1.125620
Zn14  Zn    Zn3+2 0.586740 0.000000 0.775960 1.125665
Zn15  Zn    Zn3+2 0.413260 0.000000 0.224040 1.125769
Zn16  Zn    Zn3+2 0.500000 0.086740 0.275960 1.125433

loop_
_geom_bond_atom_site_label_1
_geom_bond_atom_site_label_2
_ccdc_geom_bond_type
C154  C191  S    
N2    N5    A    
C137  C184  S    
C49   C131  A    
O38   Zn13  S    
O47   Zn12  S    
C94   F62   S    
C4    C148  S    
C160  F33   S    
C118  C153  A    
C39   C74   A    
C116  F29   S    
C110  C111  A    
C91   F68   S    
C2    F37   S    
C66   C72   A    
C2    C22   A    
C103  C170  A    
C141  C187  S    
C110  C145  A    
O35   Zn1   S    
C36   C71   A    
C33   C69   A    
C153  C190  S    
C173  O45   A    
C44   C135  A    
C29   C64   A    
C15   N11   A    
O28   Zn8   S    
C52   F18   S    
C175  O50   A    
C85   F71   S    
C86   F72   S    
C98   C162  A    
O4    Zn16  S    
O51   Zn5   S    
C54   C125  A    
C58   C122  A    
O36   Zn11  S    
C121  C154  A    
C47   F13   S    
C5    O39   A    
C56   C123  A    
C77   F81   S    
C83   F73   S    
C37   C108  A    
C59   F25   S    
C10   N4    A    
O7    Zn13  S    
C73   F85   S    
C74   F82   S    
C183  O15   A    
C108  C113  A    
O42   Zn1   S    
O18   Zn4   S    
C51   F17   S    
C98   C157  A    
C45   F11   S    
C24   C25   A    
C2    C165  A    
C12   C97   S    
C93   F65   S    
C6    C151  S    
C79   C137  A    
O32   Zn14  S    
C188  O44   A    
O17   Zn16  S    
C114  C150  A    
O15   Zn7   S    
C135  C137  A    
C123  C152  A    
C4    O27   A    
C75   F83   S    
C26   C61   A    
C45   C81   A    
C128  C147  A    
C20   C177  S    
C21   C35   A    
C83   C91   A    
O41   Zn11  S    
C70   F86   S    
C106  C115  A    
O43   Zn9   S    
O29   Zn5   S    
C134  C141  A    
C169  F59   S    
C13   C166  A    
C109  C144  A    
C69   C70   A    
C192  O31   A    
C36   F2    S    
C6    O36   A    
C63   F93   S    
C7    C152  S    
C60   C95   A    
C25   C173  S    
C115  C151  A    
O8    Zn12  S    
C41   C76   A    
C50   F16   S    
C3    C147  S    
C12   N9    A    
C24   F39   S    
C16   C98   S    
C128  C129  A    
C9    N5    A    
C22   C175  S    
C51   C129  A    
C88   F70   S    
C129  C144  A    
C11   N7    A    
O6    Zn10  S    
C177  O5    A    
C19   C160  A    
C37   F3    S    
C49   C84   A    
C68   F43   S    
C179  O7    A    
O14   Zn8   S    
C16   N10   A    
C176  O4    A    
C124  C132  A    
C14   N12   A    
C35   F40   S    
O34   Zn5   S    
C38   C107  A    
C122  C134  A    
C40   C101  A    
C61   C77   A    
C56   F22   S    
C50   C85   A    
C21   C176  S    
C54   F20   S    
C29   C115  A    
C42   C79   A    
C44   F10   S    
O12   Zn13  S    
C7    O37   A    
O20   Zn6   S    
C29   F34   S    
O45   Zn4   S    
C62   F96   S    
C21   C182  A    
C184  O40   A    
C170  F60   S    
C24   C167  A    
C177  O9    A    
C20   C127  A    
C1    F27   S    
C111  C146  A    
C183  O43   A    
O39   Zn12  S    
C187  O19   A    
C71   F87   S    
C160  C162  A    
C192  O25   A    
C184  O16   A    
C43   F9    S    
C27   C62   A    
C60   F26   S    
C125  C131  A    
C69   F90   S    
C15   N15   A    
C35   C168  A    
C143  C189  S    
C84   F74   S    
C164  F53   S    
O49   Zn3   S    
C32   C67   A    
C33   C111  A    
C149  F32   S    
O23   Zn2   S    
C9    C100  S    
C97   C161  A    
C34   C110  A    
C99   C163  A    
C31   F56   S    
C37   C72   A    
C10   N8    A    
C57   C170  A    
C85   C88   A    
C23   C57   A    
C3    O26   A    
C87   F69   S    
C144  C181  S    
C165  F54   S    
C191  O35   A    
C55   F21   S    
C186  O47   A    
C168  F58   S    
C145  C183  S    
C1    C17   A    
O50   Zn6   S    
C48   C83   A    
C140  C186  S    
O34   Zn11  S    
C104  C167  A    
C182  F36   S    
C8    N6    A    
C19   C116  A    
C132  C143  A    
C174  O49   A    
C38   F4    S    
N10   N15   A    
C43   C136  A    
N11   N14   A    
C30   C65   A    
C187  O48   A    
C96   C159  A    
C42   C77   A    
O23   Zn6   S    
C81   F75   S    
C6    O29   A    
C82   F76   S    
O44   Zn14  S    
C31   C113  A    
C173  O52   A    
C39   C106  A    
O27   Zn7   S    
O31   Zn15  S    
C33   F78   S    
N1    N13   A    
C41   F7    S    
O1    Zn4   S    
C57   F42   S    
C52   C128  A    
C43   C78   A    
O16   Zn2   S    
C124  C148  A    
O25   Zn16  S    
C123  C133  A    
C7    O30   A    
C90   C118  A    
C58   C93   A    
O34   Zn15  S    
C126  C130  A    
C82   C92   A    
C191  O24   A    
C188  O20   A    
C181  O42   A    
C55   C91   A    
C127  F30   S    
C12   N13   A    
C79   C119  A    
C59   C94   A    
O12   Zn3   S    
C163  C171  A    
C34   C70   A    
N6    N16   A    
C97   C156  A    
C104  C172  A    
C28   F23   S    
C11   N3    A    
C39   F5    S    
C47   C133  A    
C130  C145  A    
C62   C76   A    
C178  O6    A    
C25   C68   A    
C185  O41   A    
C136  C139  A    
C51   C86   A    
C14   C96   S    
O1    Zn8   S    
C52   C87   A    
C172  F61   S    
C89   F66   S    
C44   C80   A    
C9    N16   A    
O37   Zn10  S    
C23   C174  S    
O21   Zn5   S    
C86   C87   A    
C156  F46   S    
C5    C150  S    
C120  C136  A    
C107  C114  A    
C78   C95   A    
C14   N1    A    
C100  C164  A    
C127  C158  A    
C161  F50   S    
O12   Zn7   S    
C92   F64   S    
C22   C46   A    
C171  F35   S    
C119  C154  A    
O2    Zn7   S    
C149  C161  A    
C80   C94   A    
C178  O10   A    
C113  C148  A    
C106  C141  A    
C30   C114  A    
C27   C118  A    
C55   C124  A    
C175  O3    A    
C32   C112  A    
C72   F84   S    
O46   Zn15  S    
C112  C147  A    
C142  C188  S    
C181  O14   A    
C40   C75   A    
O30   Zn6   S    
C80   F79   S    
C101  C117  A    
O22   Zn3   S    
N3    N8    A    
C68   C172  A    
C138  F31   S    
C76   F80   S    
C42   F8    S    
O11   Zn9   S    
C60   C120  A    
C67   C71   A    
C164  C182  A    
C125  C150  A    
C20   C171  A    
C133  C140  A    
C34   F89   S    
C189  O21   A    
C176  O51   A    
C64   C74   A    
C48   C132  A    
C26   F1    S    
C159  F49   S    
C108  C143  A    
C185  O17   A    
C59   C121  A    
C31   C66   A    
C174  O2    A    
C90   C139  A    
C126  C146  A    
O19   Zn3   S    
O9    Zn15  S    
C8    N2    A    
O3    Zn2   S    
C13   C23   A    
C45   C134  A    
C40   F6    S    
C166  F55   S    
C155  F44   S    
C28   C117  A    
O1    Zn1   S    
C78   F77   S    
C96   C155  A    
C32   F67   S    
O23   Zn10  S    
C65   C73   A    
C47   C82   A    
C1    C155  A    
O12   Zn9   S    
C50   C130  A    
C138  C159  A    
C157  F47   S    
C180  O8    A    
C17   C138  A    
C53   C88   A    
C18   C149  A    
O26   Zn2   S    
O40   Zn10  S    
O5    Zn11  S    
C102  C169  A    
C41   C90   A    
C13   F38   S    
C146  C192  S    
C101  C140  A    
C180  O13   A    
O52   Zn8   S    
C27   F12   S    
C46   F41   S    
C49   F15   S    
C26   C119  A    
C190  O22   A    
C54   C89   A    
C109  C112  A    
O24   Zn4   S    
C186  O18   A    
C121  C135  A    
O23   Zn14  S    
O13   Zn1   S    
C81   C93   A    
C53   F19   S    
C105  F28   S    
C163  F52   S    
C65   F91   S    
C107  C142  A    
C66   F92   S    
C19   C178  S    
C131  C142  A    
O1    Zn12  S    
C17   C180  S    
O33   Zn9   S    
C18   C179  S    
C102  C165  A    
N9    N12   A    
O48   Zn13  S    
C4    O38   A    
C84   C89   A    
C30   F45   S    
C48   F14   S    
C95   F63   S    
C63   C75   A    
C64   F94   S    
C189  O46   A    
N4    N7    A    
C15   C99   S    
C167  F57   S    
C46   C169  A    
C100  C168  A    
C122  C151  A    
C10   C104  S    
C162  F51   S    
C18   C105  A    
O34   Zn16  S    
C116  C157  A    
C5    O28   A    
C3    O32   A    
C120  C153  A    
C190  O33   A    
C117  C152  A    
C61   F95   S    
C179  O11   A    
C53   C126  A    
C56   C92   A    
C105  C156  A    
C103  C166  A    
C99   C158  A    
C16   N14   A    
C36   C109  A    
O10   Zn14  S    
C28   C63   A    
C11   C103  S    
C67   F88   S    
C139  C185  S    
C8    C102  S    
C158  F48   S    
C38   C73   A    
C58   F24   S    
