data_mof_unit_37713.cif
_audit_creation_date              2012-12-11T14:54:38-0500
_audit_creation_method            fapswitch 2.2
_symmetry_space_group_name_H-M    P1
_symmetry_Int_Tables_number       1
_space_group_crystal_system       triclinic
_cell_length_a                    18.988188
_cell_length_b                    10.91892
_cell_length_c                    18.771919
_cell_angle_alpha                 90.313147
_cell_angle_beta                  90.369519
_cell_angle_gamma                 89.292107
_cell_volume                      3891.5570251

loop_
_atom_site_label
_atom_site_type_symbol
_atom_type_description
_atom_site_fract_x
_atom_site_fract_y
_atom_site_fract_z
_atom_type_partial_charge
C1    C     C_R   0.730544 0.377429 0.646075 0.566559
C2    C     C_R   0.292340 0.842742 0.459286 -0.036257
C3    C     C_R   0.934547 0.555017 0.481121 -0.155797
C4    C     C_2   0.627012 0.828036 0.568287 0.316307
C5    C     C_2   0.337158 0.753760 0.419677 0.232875
C6    C     C_2   0.127041 0.327937 0.568314 0.316445
C7    C     C_2   0.837137 0.253736 0.419666 0.232646
C8    C     C_2   0.882651 0.970574 0.580774 0.245162
C9    C     C_2   0.130704 0.054679 0.438479 0.224863
C10   C     C_2   0.382663 0.470525 0.580797 0.245486
C11   C     C_2   0.630712 0.554710 0.438484 0.225160
C12   C     C_2   0.408106 0.000601 0.889733 0.295600
C13   C     C_R   0.193856 0.370287 0.536905 -0.015399
C14   C     C_2   0.432791 0.932911 0.040264 0.285549
C15   C     C_2   0.922302 0.478110 0.891367 0.291270
C16   C     C_2   0.938360 0.428685 0.044283 0.280625
C17   C     C_R   0.792330 0.342727 0.459280 -0.036006
C18   C     C_R   0.697572 0.869380 0.462837 -0.152846
C19   C     C_R   0.294007 0.838026 0.533579 -0.175143
C20   C     C_R   0.197592 0.369305 0.462857 -0.153188
C21   C     C_R   0.793998 0.338004 0.533574 -0.175329
C22   C     C_R   0.758810 0.905545 0.429130 -0.002913
C23   C     C_R   0.248954 0.913074 0.574152 -0.021611
C24   C     C_R   0.258826 0.405488 0.429147 -0.004219
C25   C     C_R   0.271038 0.375624 0.354976 0.573581
C26   C     C_R   0.748953 0.413065 0.574150 -0.022100
C27   C     C_R   0.816963 0.943467 0.469287 -0.104327
C28   C     C_R   0.204214 0.996506 0.540821 -0.111735
C29   C     C_R   0.316981 0.443402 0.469303 -0.104907
C30   C     C_R   0.704222 0.496514 0.540822 -0.111901
C31   C     C_R   0.816256 0.940661 0.542459 -0.025891
C32   C     C_R   0.195817 0.994283 0.467758 -0.021608
C33   C     C_R   0.316273 0.440603 0.542477 -0.025720
C34   C     C_R   0.695821 0.494296 0.467759 -0.021387
C35   C     C_R   0.752685 0.912711 0.577451 -0.005004
C36   C     C_R   0.230545 0.877434 0.646077 0.566334
C37   C     C_R   0.245187 0.925936 0.425592 0.003964
C38   C     C_R   0.252701 0.412661 0.577468 -0.004543
C39   C     C_R   0.745184 0.425937 0.425591 0.004053
C40   C     C_R   0.448723 0.077509 0.941056 0.032419
C41   C     C_R   0.443337 0.059000 0.014696 -0.063896
C42   C     C_R   0.953043 0.568375 0.942167 0.028027
C43   C     C_R   0.947053 0.553608 0.016053 -0.055037
C44   C     C_R   0.458114 0.157520 0.062282 -0.012537
C45   C     C_R   0.490202 0.173795 0.917422 0.037328
C46   C     C_R   0.955754 0.657181 0.061731 -0.013701
C47   C     C_R   0.771032 0.875643 0.354968 0.567777
C48   C     C_R   0.987955 0.671303 0.916581 0.035105
C49   C     C_R   0.488975 0.263599 0.035353 -0.142241
C50   C     C_R   0.507096 0.269763 0.963975 -0.162665
C51   C     C_R   0.979328 0.767373 0.032486 -0.147831
C52   C     C_R   0.997528 0.773079 0.961016 -0.164080
C53   C     C_R   0.530719 0.154836 0.646877 0.540508
C54   C     C_R   0.433860 0.150849 0.360488 0.550077
C55   C     C_R   0.030722 0.654835 0.646874 0.538098
C56   C     C_R   0.933858 0.650849 0.360488 0.549152
C57   C     C_R   0.815778 0.918275 0.955497 -0.134293
C58   C     C_3   0.522986 0.350177 0.447898 -0.250400
C59   C     C_R   0.178585 0.945717 0.044131 -0.155944
C60   C     C_R   0.323069 0.410341 0.950332 -0.129582
C61   C     C_R   0.682765 0.458537 0.041472 -0.168506
C62   C     C_R   0.820010 0.915970 0.028566 -0.126172
C63   C     C_R   0.170658 0.918994 0.973003 -0.170693
C64   C     C_R   0.330594 0.391949 0.022676 -0.146063
C65   C     C_R   0.674666 0.430710 0.970855 -0.180804
C66   C     C_R   0.760023 0.895147 0.070001 0.007335
C67   C     C_R   0.220568 0.846000 0.937772 -0.031735
C68   C     C_R   0.274175 0.351103 0.063232 -0.017982
C69   C     C_3   0.549200 0.348896 0.524369 -0.233656
C70   C     C_R   0.722121 0.351124 0.937004 -0.013654
C71   C     C_R   0.695315 0.869743 0.036581 0.232203
C72   C     C_R   0.273905 0.785827 0.978806 0.210857
C73   C     C_R   0.210088 0.319313 0.028528 0.240507
C74   C     C_R   0.774084 0.288790 0.978545 0.217345
C75   C     C_R   0.691240 0.870628 0.962225 0.236426
C76   C     C_R   0.278135 0.806668 0.052571 0.222733
C77   C     C_R   0.202898 0.337858 0.955093 0.243374
C78   C     C_R   0.777546 0.309210 0.052212 0.217872
C79   C     C_R   0.750592 0.908292 0.922265 -0.004544
C80   C     C_3   0.022957 0.850204 0.447906 -0.250312
C81   C     C_R   0.236568 0.899721 0.082668 -0.015708
C82   C     C_R   0.257332 0.396571 0.917718 -0.004283
C83   C     C_R   0.737590 0.404994 0.081473 -0.010447
C84   C     C_R   0.741998 0.966053 0.648290 0.531433
C85   C     C_R   0.257664 0.968100 0.352599 0.570968
C86   C     C_R   0.242002 0.466040 0.648296 0.531447
C87   C     C_R   0.757663 0.468099 0.352598 0.570842
C88   C     C_R   0.711686 0.331803 0.860205 0.580257
C89   C     C_R   0.287004 0.334018 0.139751 0.554059
C90   C     C_R   0.211276 0.830600 0.860142 0.576314
C91   C     C_3   0.049174 0.848922 0.524375 -0.233514
C92   C     C_R   0.771696 0.874236 0.145627 0.595562
C93   C     C_R   0.529988 0.158893 0.851711 0.587383
C94   C     C_R   0.438779 0.152511 0.138294 0.507475
C95   C     C_R   0.029360 0.658620 0.851396 0.573657
C96   C     C_R   0.938008 0.652439 0.138347 0.525708
C97   C     C_R   0.741656 0.967077 0.853056 0.563391
C98   C     C_R   0.256210 0.964420 0.148390 0.558540
C99   C     C_R   0.242803 0.465171 0.852065 0.567963
C100  C     C_R   0.756399 0.465338 0.148212 0.567339
C101  C     C_R   0.444968 0.157605 0.437651 0.004475
C102  C     C_R   0.693835 0.870364 0.536885 -0.015634
C103  C     C_R   0.488276 0.162230 0.581738 0.004550
C104  C     C_R   0.944962 0.657605 0.437652 0.005017
C105  C     C_R   0.988275 0.662226 0.581737 0.004115
C106  C     C_R   0.466542 0.265885 0.470220 0.014556
C107  C     C_R   0.489344 0.267166 0.540300 0.010142
C108  C     C_R   0.966523 0.765890 0.470225 0.014709
C109  C     C_R   0.989328 0.767169 0.540305 0.010251
C110  C     C_R   0.455310 0.057577 0.553062 -0.147219
C111  C     C_R   0.434543 0.055025 0.481124 -0.156169
C112  C     C_R   0.955318 0.557566 0.553058 -0.147842
Cl1   Cl    Cl    0.618180 0.843314 0.086592 -0.460911
Cl2   Cl    Cl    0.340821 0.695245 0.940716 -0.519661
Cl3   Cl    Cl    0.135039 0.266841 0.074566 -0.458581
Cl4   Cl    Cl    0.840647 0.196814 0.941188 -0.548626
Cl5   Cl    Cl    0.611766 0.821336 0.921684 -0.442478
Cl6   Cl    Cl    0.331300 0.711303 0.107430 -0.479456
Cl7   Cl    Cl    0.125200 0.286036 0.911875 -0.462038
Cl8   Cl    Cl    0.828578 0.211613 0.107776 -0.507605
Cr1   Cr    Cr6+3 0.771950 0.169480 0.750100 1.103106
Cr2   Cr    Cr6+3 0.383410 0.010620 0.249390 1.103185
Cr3   Cr    Cr6+3 0.116590 0.510620 0.750610 1.145173
Cr4   Cr    Cr6+3 0.883410 0.510620 0.249390 1.105171
Cr5   Cr    Cr6+3 0.228050 0.169480 0.249900 1.081236
Cr6   Cr    Cr6+3 0.271950 0.669480 0.750100 1.104840
Cr7   Cr    Cr6+3 0.728050 0.669480 0.249900 1.075089
Cr8   Cr    Cr6+3 0.614930 0.323340 0.749170 1.062195
Cr9   Cr    Cr6+3 0.385070 0.323340 0.250830 1.070549
Cr10  Cr    Cr6+3 0.114930 0.823340 0.749170 1.065131
Cr11  Cr    Cr6+3 0.885070 0.823340 0.250830 1.070622
Cr12  Cr    Cr6+3 0.616590 0.010620 0.750610 1.151238
H1    H     H_    0.451649 0.974327 0.583858 0.157905
H2    H     H_    0.127173 0.962349 0.944930 0.190727
H3    H     H_    0.380188 0.414816 0.047602 0.183320
H4    H     H_    0.633029 0.478274 0.942165 0.188436
H5    H     H_    0.000334 0.939960 0.431199 0.178441
H6    H     H_    0.101062 0.801730 0.530738 0.134932
H7    H     H_    0.500371 0.439935 0.431187 0.178393
H8    H     H_    0.601083 0.301689 0.530736 0.134776
H9    H     H_    0.560682 0.307165 0.409846 0.145590
H10   H     H_    0.544564 0.438745 0.551913 0.226110
H11   H     H_    0.060657 0.807208 0.409851 0.145720
H12   H     H_    0.415543 0.970556 0.458328 0.135427
H13   H     H_    0.044530 0.938766 0.551924 0.226037
H14   H     H_    0.653500 0.836899 0.431324 0.167860
H15   H     H_    0.326915 0.769472 0.559489 0.167871
H16   H     H_    0.153520 0.336820 0.431345 0.167690
H17   H     H_    0.826898 0.269437 0.559481 0.167742
H18   H     H_    0.865775 0.967970 0.443758 0.181348
H19   H     H_    0.168063 0.051008 0.572536 0.222824
H20   H     H_    0.365793 0.467905 0.443773 0.181118
H21   H     H_    0.668078 0.551028 0.572540 0.222718
H22   H     H_    0.502437 0.339492 0.070033 0.162629
H23   H     H_    0.951669 0.474310 0.583850 0.157090
H24   H     H_    0.536589 0.347332 0.945749 0.143214
H25   H     H_    0.987867 0.847336 0.065645 0.161693
H26   H     H_    0.021757 0.855117 0.941258 0.146053
H27   H     H_    0.577350 0.848354 0.541614 0.130601
H28   H     H_    0.383391 0.713934 0.445287 0.139459
H29   H     H_    0.077375 0.348216 0.541637 0.130582
H30   H     H_    0.883371 0.213903 0.445269 0.139605
H31   H     H_    0.894907 0.927479 0.631422 0.135148
H32   H     H_    0.108771 0.027055 0.387560 0.147455
H33   H     H_    0.394912 0.427448 0.631451 0.135533
H34   H     H_    0.915553 0.470543 0.458324 0.135448
H35   H     H_    0.608773 0.527093 0.387566 0.147276
H36   H     H_    0.379516 0.922569 0.908111 0.180468
H37   H     H_    0.404593 0.915911 0.088053 0.182788
H38   H     H_    0.919900 0.382513 0.904248 0.216866
H39   H     H_    0.903926 0.412727 0.087819 0.182866
H40   H     H_    0.862608 0.939257 0.925430 0.194054
H41   H     H_    0.141054 0.009132 0.067528 0.219679
H42   H     H_    0.367364 0.445822 0.921206 0.202393
H43   H     H_    0.648003 0.528586 0.063174 0.206193
H44   H     H_    0.870971 0.931713 0.052603 0.190698
O1    O     O_R   0.787510 0.042610 0.670410 -0.531204
O2    O     O_R   0.454250 0.051070 0.169440 -0.472260
O3    O     O_R   0.045750 0.551070 0.830560 -0.446006
O4    O     O_R   0.954250 0.551070 0.169440 -0.483554
O5    O     O_R   0.681210 0.959150 0.825320 -0.453786
O6    O     O_R   0.318790 0.959150 0.174680 -0.501682
O7    O     O_R   0.181210 0.459150 0.825320 -0.448074
O8    O     O_R   0.818790 0.459150 0.174680 -0.497369
O9    O     O_3   0.667820 0.167810 0.749960 -0.312648
O10   O     O_3   0.332180 0.167810 0.250040 -0.345558
O11   O     O_3   0.167820 0.667810 0.749960 -0.310304
O12   O     O_R   0.212490 0.042610 0.329590 -0.548450
O13   O     O_3   0.832180 0.667810 0.250040 -0.328935
O14   O     O_R   0.765670 0.292090 0.675090 -0.487952
O15   O     O_R   0.234330 0.292090 0.324910 -0.496082
O16   O     O_R   0.265670 0.792090 0.675090 -0.487922
O17   O     O_R   0.734330 0.792090 0.324910 -0.497926
O18   O     O_R   0.670220 0.409020 0.668560 -0.506188
O19   O     O_R   0.329780 0.409020 0.331440 -0.498013
O20   O     O_R   0.170220 0.909020 0.668560 -0.505883
O21   O     O_R   0.829780 0.909020 0.331440 -0.500380
O22   O     O_R   0.556580 0.251590 0.674980 -0.505045
O23   O     O_R   0.287510 0.542610 0.670410 -0.531479
O24   O     O_R   0.443420 0.251590 0.325020 -0.497739
O25   O     O_R   0.056580 0.751590 0.674980 -0.505155
O26   O     O_R   0.943420 0.751590 0.325020 -0.497533
O27   O     O_R   0.545890 0.049670 0.670030 -0.498906
O28   O     O_R   0.454110 0.049670 0.329970 -0.487775
O29   O     O_R   0.045890 0.549670 0.670030 -0.500928
O30   O     O_R   0.954110 0.549670 0.329970 -0.489679
O31   O     O_R   0.681340 0.957860 0.676500 -0.458059
O32   O     O_R   0.318660 0.957860 0.323500 -0.466239
O33   O     O_R   0.181340 0.457860 0.676500 -0.457183
O34   O     O_R   0.712490 0.542610 0.329590 -0.548217
O35   O     O_R   0.818660 0.457860 0.323500 -0.467247
O36   O     O_R   0.787380 0.044010 0.830940 -0.477731
O37   O     O_R   0.212620 0.044010 0.169060 -0.499659
O38   O     O_R   0.287380 0.544010 0.830940 -0.480357
O39   O     O_R   0.712620 0.544010 0.169060 -0.507940
O40   O     O_R   0.765540 0.293390 0.823910 -0.424167
O41   O     O_R   0.234460 0.293390 0.176090 -0.427096
O42   O     O_R   0.265540 0.793390 0.823910 -0.433159
O43   O     O_R   0.734460 0.793390 0.176090 -0.456018
O44   O     O_R   0.670090 0.410410 0.829090 -0.498670
O45   O     O_R   0.556450 0.252890 0.823790 -0.542292
O46   O     O_R   0.329910 0.410410 0.170910 -0.451279
O47   O     O_R   0.170090 0.910410 0.829090 -0.490941
O48   O     O_R   0.829910 0.910410 0.170910 -0.484517
O49   O     O_2   0.626960 0.764080 0.621446 -0.466722
O50   O     O_2   0.321301 0.719390 0.359753 -0.456666
O51   O     O_2   0.126998 0.264016 0.621487 -0.465610
O52   O     O_2   0.821270 0.219370 0.359743 -0.458708
O53   O     O_2   0.923300 0.045576 0.556887 -0.534082
O54   O     O_2   0.097257 0.130075 0.472913 -0.544087
O55   O     O_2   0.423318 0.545515 0.556905 -0.533844
O56   O     O_R   0.443550 0.252890 0.176210 -0.502795
O57   O     O_2   0.597273 0.630113 0.472921 -0.543868
O58   O     O_2   0.402117 0.028476 0.827032 -0.488076
O59   O     O_2   0.459418 0.845734 0.009068 -0.350468
O60   O     O_2   0.898496 0.511457 0.833960 -0.490094
O61   O     O_2   0.972888 0.342703 0.020734 -0.370142
O62   O     O_R   0.056450 0.752890 0.823790 -0.537769
O63   O     O_R   0.943550 0.752890 0.176210 -0.490740
O64   O     O_R   0.545750 0.051070 0.830560 -0.420900

loop_
_geom_bond_atom_site_label_1
_geom_bond_atom_site_label_2
_ccdc_geom_bond_type
C3    C104  A    
C11   O57   D    
C21   C26   A    
C100  O39   A    
C12   C40   S    
C48   C95   S    
C72   Cl2   S    
C87   O34   A    
C92   O43   A    
C60   H42   S    
C82   C99   S    
C57   C79   A    
C54   C101  S    
C19   C23   A    
C84   O31   A    
C86   O33   A    
C91   H13   S    
C72   C76   A    
C35   C102  A    
C45   C93   S    
C70   C88   S    
C69   C107  S    
Cr7   O43   S    
C57   C62   A    
C5    O50   D    
C12   O58   D    
Cr9   O56   S    
Cr3   O29   S    
C53   O27   A    
C55   C105  S    
C103  C110  A    
C106  C107  A    
C53   O22   A    
C64   C68   A    
C37   C85   S    
Cr6   O11   S    
C97   O36   A    
Cr8   O18   S    
Cr4   O8    S    
Cr10  O20   S    
Cr7   O17   S    
C94   O2    A    
Cr2   O10   S    
C4    H27   S    
C56   O26   A    
C7    O52   D    
C93   O64   A    
C80   H5    S    
C55   O25   A    
C29   C33   A    
C54   O24   A    
C108  C109  A    
C71   Cl1   S    
C67   C72   A    
C18   C102  A    
Cr1   O36   S    
Cr2   O28   S    
Cr11  O26   S    
C17   C39   A    
C110  C111  A    
Cr4   O13   S    
Cr3   O7    S    
Cr6   O38   S    
C9    C32   S    
C24   C29   A    
Cr2   O6    S    
Cr5   O37   S    
C78   C83   A    
C30   H21   S    
C20   C24   A    
Cr11  O63   S    
C7    C17   S    
C112  H23   S    
C4    C102  S    
C15   O60   D    
C70   C74   A    
Cr6   O42   S    
C20   H16   S    
C16   H39   S    
Cr11  O48   S    
C21   H17   S    
C93   O45   A    
Cr8   O44   S    
C99   O7    A    
C25   O19   A    
C86   O23   A    
C57   H40   S    
Cr4   O30   S    
C1    O14   A    
C80   H11   S    
C69   H8    S    
C75   Cl5   S    
C22   C47   S    
C64   H3    S    
C62   H44   S    
C18   C22   A    
Cr9   O10   S    
C53   C103  S    
C11   H35   S    
C60   C82   A    
C14   H37   S    
C11   C34   S    
C14   O59   D    
Cr9   O19   S    
C61   H43   S    
Cr8   O22   S    
Cr11  O13   S    
C52   H26   S    
C40   C45   A    
C55   O29   A    
C7    H30   S    
C63   C67   A    
Cr4   O4    S    
C62   C66   A    
C27   C31   A    
C34   C39   A    
Cr9   O24   S    
Cr1   O40   S    
Cr2   O32   S    
C49   H22   S    
C28   C32   A    
C24   C25   S    
C56   C104  S    
Cr3   O3    S    
C94   O56   A    
C25   O15   A    
C50   H24   S    
C89   O46   A    
C30   C34   A    
Cr10  O11   S    
C66   C92   S    
C18   H14   S    
C59   H41   S    
C68   C73   A    
C4    O49   D    
C89   O41   A    
C46   C51   A    
C51   H25   S    
C44   C49   A    
C76   Cl6   S    
C51   C52   A    
C15   H38   S    
C9    O54   D    
C58   C106  S    
C95   O62   A    
C63   H2    S    
C98   O6    A    
C9    H32   S    
C78   Cl8   S    
C36   O20   A    
C61   C65   A    
Cr12  O5    S    
C91   H6    S    
C8    O53   D    
Cr7   O34   S    
C66   C71   A    
C6    H29   S    
C92   O48   A    
C3    C112  A    
C5    H28   S    
C74   Cl4   S    
C6    O51   D    
Cr12  O64   S    
C68   C89   S    
C56   O30   A    
Cr5   O15   S    
C42   C48   A    
C32   C37   A    
C96   O4    A    
Cr6   O16   S    
C16   C43   S    
C13   C38   A    
Cr10  O25   S    
C58   H7    S    
Cr12  O31   S    
C14   C41   S    
C111  H12   S    
C95   O3    A    
C40   C41   A    
C99   O38   A    
C98   O37   A    
C38   C86   S    
C16   O61   D    
C49   C50   A    
C27   H18   S    
C22   C27   A    
Cr5   O12   S    
C61   C83   A    
C1    C26   S    
C96   O63   A    
C31   C35   A    
C2    C5    S    
C23   C28   A    
C42   C43   A    
C105  C112  A    
C104  C108  A    
C101  C106  A    
Cr2   O2    S    
C105  C109  A    
Cr10  O62   S    
Cr12  O27   S    
C88   O40   A    
C13   C20   A    
Cr11  O21   S    
C2    C19   A    
C36   O16   A    
C8    C31   S    
C87   O35   A    
C47   O17   A    
Cr6   O23   S    
C47   O21   A    
Cr1   O14   S    
C59   C81   A    
C15   C42   S    
Cr9   O46   S    
C77   Cl7   S    
C8    H31   S    
C76   C81   A    
C12   H36   S    
Cr1   O1    S    
C35   C84   S    
C58   C69   S    
C79   C97   S    
Cr4   O35   S    
C101  C111  A    
C80   C108  S    
C59   C63   A    
C33   C38   A    
C73   Cl3   S    
C60   C64   A    
C83   C100  S    
C91   C109  S    
C80   C91   S    
C19   H15   S    
C1    O18   A    
C69   H10   S    
Cr8   O45   S    
C90   O47   A    
C6    C13   S    
C71   C75   A    
C2    C37   A    
Cr7   O39   S    
C77   C82   A    
C85   O12   A    
C10   H33   S    
C54   O28   A    
Cr3   O33   S    
C74   C78   A    
C10   O55   D    
C41   C44   A    
C10   C33   S    
C67   C90   S    
Cr10  O47   S    
Cr3   O11   S    
C84   O1    A    
C100  O8    A    
C43   C46   A    
C17   C21   A    
C90   O42   A    
C65   H4    S    
C44   C94   S    
Cr1   O9    S    
C88   O44   A    
C48   C52   A    
C46   C96   S    
C85   O32   A    
C28   H19   S    
C23   C36   S    
C81   C98   S    
Cr12  O9    S    
Cr8   O9    S    
Cr7   O13   S    
C73   C77   A    
Cr5   O10   S    
C110  H1    S    
C103  C107  A    
C45   C50   A    
C75   C79   A    
C58   H9    S    
C39   C87   S    
C65   C70   A    
C3    H34   S    
C97   O5    A    
C29   H20   S    
C26   C30   A    
Cr5   O41   S    
