data_mof_unit_63095.cif
_audit_creation_date              2013-03-05T16:19:38-0500
_audit_creation_method            fapswitch 2.2
_symmetry_space_group_name_H-M    P1
_symmetry_Int_Tables_number       1
_space_group_crystal_system       triclinic
_cell_length_a                    23.549844
_cell_length_b                    22.208136
_cell_length_c                    27.844813
_cell_angle_alpha                 90.000457
_cell_angle_beta                  89.757085
_cell_angle_gamma                 90.000012
_cell_volume                      14562.6544795

loop_
_atom_site_label
_atom_site_type_symbol
_atom_site_description
_atom_site_fract_x
_atom_site_fract_y
_atom_site_fract_z
_atom_type_partial_charge
O1    O     O_R   0.417880 0.550320 0.500010 -0.538951
O2    O     O_R   0.582120 0.449680 0.499990 -0.592335
O3    O     O_R   0.582120 0.550320 0.499990 -0.538945
O4    O     O_R   0.417880 0.449680 0.500010 -0.592339
C1    C     C_R   0.390663 0.500022 0.500764 0.847181
C2    C     C_R   0.609336 0.500022 0.499236 0.847185
O5    O     O_R   0.500010 0.550300 0.430260 -0.589452
O6    O     O_R   0.499990 0.449700 0.569740 -0.590844
O7    O     O_R   0.499990 0.550300 0.569740 -0.589458
O8    O     O_R   0.500010 0.449700 0.430260 -0.590843
O9    O     O_2   0.401915 0.839396 0.488091 -0.436165
O10   O     O_2   0.596065 0.160159 0.520674 -0.456937
O11   O     O_2   0.598091 0.839396 0.511906 -0.436180
O12   O     O_2   0.403937 0.160150 0.479345 -0.456940
C3    C     C_R   0.500137 0.500027 0.407296 0.838972
C4    C     C_R   0.499863 0.500028 0.592704 0.838970
Cu1   Cu    Cu3+1 0.500000 0.559570 0.500000 1.019980
Cu2   Cu    Cu3+1 0.500000 0.440430 0.500000 0.968319
C5    C     C_R   0.465486 0.257132 0.532096 -0.195561
C6    C     C_R   0.527271 0.742976 0.463296 -0.167725
C7    C     C_R   0.534513 0.257126 0.467913 -0.195555
C8    C     C_R   0.472729 0.742971 0.536712 -0.167734
H1    H     H_    0.438520 0.233669 0.557519 0.170409
H2    H     H_    0.548583 0.766521 0.434338 0.178296
H3    H     H_    0.561479 0.233657 0.442494 0.170390
H4    H     H_    0.451417 0.766513 0.565672 0.178308
C9    C     C_R   0.451708 0.492798 0.179007 0.627003
C10   C     C_R   0.548294 0.492791 0.820993 0.627004
O13   O     O_2   0.404117 0.485034 0.205384 -0.443252
O14   O     O_2   0.595883 0.485016 0.794615 -0.443248
N1    N     N_R   0.502213 0.499238 0.202133 -0.463985
N2    N     N_R   0.497790 0.499244 0.797867 -0.463985
C11   C     C_R   0.552476 0.503398 0.177873 0.642006
C12   C     C_R   0.447528 0.503416 0.822127 0.642014
C13   C     C_R   0.511713 0.447552 0.278880 -0.128904
C14   C     C_R   0.488287 0.447556 0.721120 -0.128899
C15   C     C_R   0.510664 0.446977 0.328844 -0.180408
C16   C     C_R   0.489336 0.446980 0.671156 -0.180398
C17   C     C_R   0.491355 0.554154 0.329248 -0.240242
C18   C     C_R   0.508649 0.554156 0.670752 -0.240239
C19   C     C_R   0.492047 0.555469 0.278838 0.375253
C20   C     C_R   0.507958 0.555473 0.721162 0.375247
C21   C     C_R   0.502507 0.501173 0.253635 0.230129
C22   C     C_R   0.497496 0.501177 0.746365 0.230126
C23   C     C_R   0.501271 0.497769 0.102192 -0.116028
C24   C     C_R   0.498732 0.497773 0.897808 -0.116027
C25   C     C_R   0.449574 0.493499 0.128376 -0.121377
C26   C     C_R   0.550429 0.493490 0.871624 -0.121378
C27   C     C_R   0.397823 0.488609 0.103107 0.353797
C28   C     C_R   0.602178 0.488586 0.896892 0.353798
C29   C     C_R   0.553563 0.502923 0.127150 -0.083489
C30   C     C_R   0.446441 0.502941 0.872850 -0.083488
C31   C     C_R   0.500625 0.500285 0.354436 -0.097165
C32   C     C_R   0.499376 0.500287 0.645564 -0.097167
H5    H     H_    0.483668 0.595421 0.348952 0.199356
H6    H     H_    0.516336 0.595423 0.651047 0.199360
C33   C     C_R   0.447674 0.498845 0.975133 0.028534
C34   C     C_R   0.552329 0.498830 0.024867 0.028534
C35   C     C_R   0.551693 0.494472 0.973851 0.019841
C36   C     C_R   0.448309 0.494484 0.026149 0.019840
C37   C     C_R   0.499365 0.496968 0.949021 0.085256
C38   C     C_R   0.500638 0.496966 0.050978 0.085256
C39   C     C_R   0.396776 0.506519 0.949440 -0.208842
C40   C     C_R   0.603229 0.506490 0.050560 -0.208842
C41   C     C_R   0.395473 0.508360 0.899603 0.316562
C42   C     C_R   0.604533 0.508329 0.100397 0.316561
O15   O     O_2   0.399240 0.508111 0.796666 -0.447624
O16   O     O_2   0.600766 0.508081 0.203334 -0.447629
C43   C     C_R   0.397980 0.487767 0.053171 -0.230347
C44   C     C_R   0.602021 0.487742 0.946829 -0.230347
H7    H     H_    0.481977 0.404863 0.652581 0.170054
H8    H     H_    0.518021 0.404860 0.347420 0.170053
H9    H     H_    0.480604 0.406036 0.740483 0.167404
H10   H     H_    0.519395 0.406030 0.259518 0.167402
H11   H     H_    0.356667 0.513460 0.967277 0.183180
H12   H     H_    0.643340 0.513420 0.032724 0.183180
H13   H     H_    0.357245 0.481347 0.036494 0.183319
H14   H     H_    0.642755 0.481311 0.963505 0.183318
C45   C     C_R   0.880820 0.488297 0.457069 0.561152
C46   C     C_R   0.119180 0.488301 0.542931 0.561156
N3    N     N_R   0.852133 0.489498 0.499983 -0.466166
N4    N     N_R   0.147866 0.489499 0.500017 -0.466165
C47   C     C_R   0.880350 0.488832 0.542912 0.566109
C48   C     C_R   0.119650 0.488829 0.457088 0.566107
C49   C     C_R   0.939903 0.487493 0.543808 -0.025968
C50   C     C_R   0.060096 0.487489 0.456192 -0.025964
C51   C     C_R   0.970032 0.487198 0.499999 -0.010648
C52   C     C_R   0.029967 0.487198 0.500001 -0.010648
C53   C     C_R   0.940375 0.487371 0.456187 -0.023959
C54   C     C_R   0.059625 0.487375 0.543813 -0.023962
C55   C     C_R   0.969918 0.487146 0.587303 -0.123100
C56   C     C_R   0.030082 0.487138 0.412697 -0.123105
C57   C     C_R   0.029161 0.487023 0.587305 -0.123359
C58   C     C_R   0.970839 0.487015 0.412695 -0.123365
C59   C     C_R   0.466055 0.320369 0.531455 0.061080
C60   C     C_R   0.526698 0.679745 0.463926 0.107676
C61   C     C_R   0.533944 0.320362 0.468548 0.061064
C62   C     C_R   0.473301 0.679741 0.536076 0.107695
O17   O     O_2   0.851747 0.487842 0.415408 -0.498527
O18   O     O_2   0.148252 0.487850 0.584592 -0.498522
O19   O     O_2   0.850866 0.490299 0.584559 -0.495836
O20   O     O_2   0.149133 0.490293 0.415441 -0.495843
H15   H     H_    0.947765 0.487254 0.621470 0.206123
H16   H     H_    0.052235 0.487243 0.378530 0.206121
H17   H     H_    0.050963 0.487042 0.621476 0.205628
H18   H     H_    0.949036 0.487031 0.378524 0.205625
C63   C     C_R   0.241082 0.444776 0.482525 -0.071842
C64   C     C_R   0.758918 0.444776 0.517476 -0.071843
H19   H     H_    0.220398 0.404864 0.468702 0.173181
H20   H     H_    0.779602 0.404865 0.531300 0.173182
C65   C     C_R   0.300140 0.447948 0.482951 -0.233594
C66   C     C_R   0.699860 0.447949 0.517050 -0.233593
H21   H     H_    0.324107 0.410153 0.468935 0.188966
H22   H     H_    0.675892 0.410155 0.531067 0.188968
C67   C     C_R   0.327983 0.499266 0.500884 -0.119230
C68   C     C_R   0.672017 0.499266 0.499116 -0.119228
C69   C     C_R   0.295046 0.547702 0.518884 0.244785
C70   C     C_R   0.704953 0.547700 0.481114 0.244787
C71   C     C_R   0.235854 0.544021 0.518107 -0.092820
C72   C     C_R   0.764145 0.544020 0.481892 -0.092821
H23   H     H_    0.210624 0.580993 0.531922 0.187206
H24   H     H_    0.789376 0.580991 0.468075 0.187202
C73   C     C_R   0.208730 0.492783 0.500087 0.276422
C74   C     C_R   0.791269 0.492782 0.499912 0.276424
N5    N     N_R   0.500000 0.350920 0.500000 -0.178280
N6    N     N_R   0.500000 0.649080 0.500000 -0.188602
C75   C     C_R   0.450082 0.871409 0.493590 0.612344
C76   C     C_R   0.549293 0.128386 0.509145 0.604702
C77   C     C_R   0.549918 0.871408 0.506443 0.612398
C78   C     C_R   0.450707 0.128383 0.490892 0.604729
N7    N     N_R   0.500000 0.840942 0.500011 -0.468183
N8    N     N_R   0.500000 0.158964 0.500013 -0.465762
C79   C     C_R   0.551181 0.935520 0.507521 -0.149581
C80   C     C_R   0.448864 0.064312 0.492470 -0.146216
C81   C     C_R   0.448813 0.935520 0.492545 -0.149596
C82   C     C_R   0.551132 0.064313 0.507593 -0.146242
C83   C     C_R   0.499998 0.967724 0.500032 -0.073757
C84   C     C_R   0.499998 0.032093 0.500031 -0.075715
C85   C     C_R   0.602117 0.968256 0.515097 0.246713
C86   C     C_R   0.397738 0.031644 0.485717 0.250503
C87   C     C_R   0.397871 0.968257 0.485010 0.246750
C88   C     C_R   0.602250 0.031644 0.514383 0.250505
H25   H     H_    0.439303 0.345060 0.556235 0.136595
H26   H     H_    0.547721 0.655259 0.435411 0.166826
H27   H     H_    0.560697 0.345050 0.443765 0.136587
H28   H     H_    0.452278 0.655252 0.564589 0.166830
C89   C     C_R   0.500000 0.224582 0.500007 0.324974
C90   C     C_R   0.500000 0.775420 0.500006 0.305290
Br1   Br    Br    0.326975 0.618566 0.547624 -0.424851
Br2   Br    Br    0.673025 0.618563 0.452373 -0.424877
N9    N     N_R   0.481748 0.611636 0.254271 0.150809
O21   O     O_R   0.458075 0.656413 0.276918 -0.290903
O22   O     O_R   0.498491 0.619968 0.210193 -0.301212
N10   N     N_R   0.518261 0.611640 0.745728 0.150816
O23   O     O_R   0.541927 0.656419 0.723078 -0.290888
O24   O     O_R   0.501531 0.619971 0.789810 -0.301204
N11   N     N_R   0.343866 0.486650 0.127083 0.170213
O25   O     O_R   0.309223 0.442286 0.118687 -0.287014
O26   O     O_R   0.324564 0.534922 0.148014 -0.236936
N12   N     N_R   0.656134 0.486613 0.872916 0.170213
O27   O     O_R   0.690767 0.442239 0.881311 -0.287009
O28   O     O_R   0.675448 0.534881 0.851987 -0.236934
N13   N     N_R   0.654830 0.937865 0.523515 0.194742
O29   O     O_R   0.665997 0.916891 0.566067 -0.230085
O30   O     O_R   0.694597 0.938892 0.490958 -0.236532
N14   N     N_R   0.344438 0.062095 0.480446 0.192882
O31   O     O_R   0.316938 0.058790 0.440110 -0.236060
O32   O     O_R   0.320002 0.086173 0.517782 -0.254284
N15   N     N_R   0.345137 0.937868 0.476686 0.194759
O33   O     O_R   0.333797 0.917031 0.434125 -0.229980
O34   O     O_R   0.305517 0.938746 0.509373 -0.236658
N16   N     N_R   0.655540 0.062094 0.519722 0.192926
O35   O     O_R   0.682941 0.058835 0.560108 -0.236118
O36   O     O_R   0.680071 0.086117 0.482408 -0.254170
Br3   Br    Br    0.320879 0.519646 0.872638 -0.297055
Br4   Br    Br    0.679130 0.519594 0.127362 -0.297073

loop_
_geom_bond_atom_site_label_1
_geom_bond_atom_site_label_2
_geom_bond_distance
_ccdc_geom_bond_type
C34   C38   1.415874 A    
C51   C52   1.411453 A    
C39   C41   1.388766 A    
C13   H10   1.082990 S    
C59   H25   1.081680 S    
N11   O25   1.300996 A    
C8    C62   1.404404 A    
C44   H14   1.077030 S    
C48   O20   1.349477 S    
N15   O33   1.301021 A    
C43   H13   1.077031 S    
N13   O29   1.301021 A    
C63   C73   1.397532 A    
C10   C26   1.411005 A    
O3    C2    1.287970 A    
C27   N11   1.433530 S    
C66   H22   1.083299 S    
C49   C55   1.404899 A    
C17   C19   1.403989 A    
O2    C2    1.288831 A    
C79   C83   1.417764 A    
C17   C31   1.404308 A    
N1    C21   1.434752 S    
O1    C1    1.287969 A    
C7    C89   1.405495 A    
C45   O17   1.349551 S    
N13   O30   1.300844 A    
O7    C4    1.286605 A    
C75   C81   1.424410 A    
O8    C3    1.287663 A    
C69   C71   1.396616 A    
Cu2   N5    1.987850 S    
C80   C86   1.418897 A    
C85   C88   1.407876 A    
C50   C52   1.408614 A    
Cu1   N6    1.987850 S    
O2    Cu2   1.944792 S    
C23   C29   1.421201 A    
C9    C25   1.411000 A    
C24   C30   1.421200 A    
C23   C38   1.426289 A    
C9    O13   1.348435 S    
C36   C38   1.416655 A    
C53   C58   1.404989 A    
C70   Br2   1.920309 S    
C82   C88   1.418906 A    
C12   C30   1.412541 A    
C57   H17   1.083083 S    
C17   H5    1.082993 S    
C6    H2    1.082610 S    
C72   H24   1.083172 S    
C67   C69   1.416545 A    
N9    O21   1.301666 A    
C6    C90   1.403867 A    
C13   C21   1.400181 A    
N10   O24   1.300765 A    
C15   C31   1.401368 A    
C18   C20   1.403989 A    
C6    C60   1.404421 A    
N11   O26   1.301263 A    
C27   C43   1.390571 A    
C1    C67   1.476192 S    
N14   O32   1.301072 A    
C19   C21   1.416228 A    
C42   Br4   1.929677 S    
C78   C80   1.424220 A    
C20   C22   1.416234 A    
C64   C74   1.397532 A    
C76   N8    1.369610 A    
C56   C58   1.395169 A    
N3    C47   1.370178 A    
N16   O36   1.301075 A    
C33   C39   1.408862 A    
C4    C32   1.471876 S    
C23   C25   1.419607 A    
C34   C40   1.408864 A    
C46   O18   1.349548 S    
C24   C26   1.419606 A    
C35   C37   1.416656 A    
C24   C37   1.426289 A    
C9    N1    1.362450 A    
C10   N2    1.362448 A    
C86   C87   1.407848 A    
C25   C27   1.414009 A    
C45   N3    1.370438 A    
C5    H1    1.082620 S    
C33   C36   1.423973 A    
N3    C74   1.435197 S    
O5    Cu1   1.952777 S    
C34   C35   1.423972 A    
C8    C90   1.403864 A    
C5    C89   1.405490 A    
C64   C66   1.392679 A    
C29   C42   1.415112 A    
C40   C42   1.388767 A    
C78   N8    1.369605 A    
C55   C57   1.395169 A    
C7    C61   1.404550 A    
C63   C65   1.392679 A    
C59   N5    1.364024 A    
C16   C32   1.401364 A    
C81   C87   1.419145 A    
N1    C11   1.363520 A    
Cu1   Cu2   2.645875 S    
C40   H12   1.076415 S    
C60   N6    1.364825 A    
N7    C90   1.455104 S    
C65   H21   1.083298 S    
C18   H6    1.082995 S    
C26   C28   1.414007 A    
C2    C68   1.476192 S    
N10   O23   1.301674 A    
C71   H23   1.083171 S    
C68   C70   1.416542 A    
C77   C79   1.424422 A    
O9    C75   1.347987 S    
C61   N5    1.364029 A    
C47   C49   1.403116 A    
C86   N14   1.433870 S    
C52   C54   1.408287 A    
C79   C85   1.419162 A    
C18   C32   1.404307 A    
C85   N13   1.433171 S    
C51   C53   1.408288 A    
N14   O31   1.300931 A    
C14   C22   1.400183 A    
C11   C29   1.412541 A    
C14   C16   1.391400 A    
C3    C31   1.471879 S    
N4    C73   1.435197 S    
C66   C68   1.407464 A    
C5    C59   1.404540 A    
N16   O35   1.300922 A    
C13   C15   1.391403 A    
C54   C57   1.404991 A    
C88   N16   1.433846 S    
O12   C78   1.348053 S    
O7    Cu1   1.952777 S    
C81   C83   1.417770 A    
C7    H3    1.082619 S    
C16   H7    1.083124 S    
C58   H18   1.083084 S    
C47   O19   1.349478 S    
C20   N10   1.443634 S    
C87   N15   1.433124 S    
N8    C89   1.457262 S    
C61   H27   1.081679 S    
C55   H15   1.083088 S    
O4    C1    1.288834 A    
C12   O15   1.346669 S    
C80   C84   1.417237 A    
C69   Br1   1.920309 S    
C33   C37   1.415876 A    
O10   C76   1.348058 S    
C71   C73   1.399049 A    
O6    Cu2   1.952774 S    
C62   H28   1.080689 S    
C83   C84   1.429498 A    
N4    C48   1.370173 A    
C28   N12   1.433528 S    
N12   O27   1.300995 A    
C75   N7    1.368765 A    
C76   C82   1.424238 A    
C19   N9    1.443629 S    
C28   C44   1.390574 A    
O4    Cu2   1.944794 S    
C10   O14   1.348431 S    
C50   C56   1.404896 A    
N2    C12   1.363518 A    
C63   H19   1.082889 S    
C39   H11   1.076416 S    
C36   C43   1.409127 A    
O8    Cu2   1.952780 S    
O5    C3    1.286604 A    
C46   N4    1.370444 A    
C64   H20   1.082889 S    
O3    Cu1   1.944792 S    
N9    O22   1.300770 A    
C46   C54   1.402780 A    
C70   C72   1.396616 A    
C45   C53   1.402782 A    
C14   H9    1.082992 S    
C56   H16   1.083086 S    
C35   C44   1.409127 A    
C60   H26   1.080691 S    
C49   C51   1.408612 A    
C62   N6    1.364819 A    
O1    Cu1   1.944794 S    
N2    C22   1.434753 S    
O6    C4    1.287666 A    
C8    H4    1.082609 S    
C15   H8    1.083122 S    
C82   C84   1.417243 A    
O11   C77   1.347984 S    
C48   C50   1.403119 A    
C65   C67   1.407465 A    
C41   Br3   1.929678 S    
C30   C41   1.415111 A    
C72   C74   1.399049 A    
C11   O16   1.346669 S    
N12   O28   1.301264 A    
C77   N7    1.368776 A    
N15   O34   1.300834 A    
