data_mof_unit_50618.cif
_audit_creation_date              2012-12-11T15:34:49-0500
_audit_creation_method            fapswitch 2.2
_symmetry_space_group_name_H-M    P1
_symmetry_Int_Tables_number       1
_space_group_crystal_system       triclinic
_cell_length_a                    30.672929
_cell_length_b                    7.280269
_cell_length_c                    25.831024
_cell_angle_alpha                 90.002173
_cell_angle_beta                  111.944827
_cell_angle_gamma                 90.000713
_cell_volume                      5350.30930914

loop_
_atom_site_label
_atom_site_type_symbol
_atom_type_description
_atom_site_fract_x
_atom_site_fract_y
_atom_site_fract_z
_atom_type_partial_charge
O1    O     O_R   0.295360 0.592990 0.320420 -0.532159
O2    O     O_R   0.704640 0.407010 0.679580 -0.530949
O3    O     O_R   0.204640 0.092990 0.179580 -0.532159
O4    O     O_R   0.795360 0.907010 0.820420 -0.530945
O5    O     O_R   0.294060 0.265620 0.213230 -0.540556
O6    O     O_R   0.705940 0.734380 0.786770 -0.535354
O7    O     O_R   0.205940 0.765620 0.286770 -0.540559
O8    O     O_R   0.794060 0.234380 0.713230 -0.535360
C1    C     C_R   0.303129 0.431950 0.198224 0.707469
C2    C     C_R   0.695441 0.567940 0.800442 0.699528
C3    C     C_R   0.196871 0.931953 0.301776 0.707462
C4    C     C_R   0.804561 0.067938 0.699559 0.699531
O9    O     O_R   0.300850 0.263360 0.322080 -0.534042
O10   O     O_R   0.699150 0.736640 0.677920 -0.533058
O11   O     O_R   0.199150 0.763360 0.177920 -0.534041
O12   O     O_R   0.800850 0.236640 0.822080 -0.533066
O13   O     O_R   0.211480 0.091820 0.289210 -0.536912
O14   O     O_R   0.788520 0.908180 0.710790 -0.536720
O15   O     O_R   0.288520 0.591820 0.210790 -0.536910
O16   O     O_R   0.711480 0.408180 0.789210 -0.536721
C5    C     C_R   0.313294 0.432100 0.343117 0.682880
C6    C     C_R   0.686432 0.568359 0.656931 0.679855
C7    C     C_R   0.186705 0.932092 0.156883 0.682868
C8    C     C_R   0.813568 0.068367 0.843069 0.679829
O17   O     O_3   0.220670 0.426670 0.239090 -0.375411
O18   O     O_3   0.779330 0.573330 0.760910 -0.374379
O19   O     O_3   0.279330 0.926670 0.260910 -0.375405
O20   O     O_3   0.720670 0.073330 0.739090 -0.374381
V1    V     V_3+5 0.255440 0.152290 0.252020 1.398550
V2    V     V_3+5 0.744560 0.847710 0.747980 1.396686
V3    V     V_3+5 0.244560 0.652290 0.247980 1.398556
V4    V     V_3+5 0.755440 0.347710 0.752020 1.396683
C9    C     C_R   0.851040 0.061442 0.899407 -0.035519
C10   C     C_R   0.149803 0.943094 0.100485 -0.026684
C11   C     C_R   0.648960 0.561397 0.600593 -0.035510
C12   C     C_R   0.350193 0.443134 0.399517 -0.026689
C13   C     C_R   0.873904 0.088518 0.999446 -0.154297
C14   C     C_R   0.128831 0.965257 0.000700 -0.162338
C15   C     C_R   0.626105 0.588173 0.500549 -0.154288
C16   C     C_R   0.371159 0.465581 0.499296 -0.162335
C17   C     C_R   0.839779 0.099379 0.945919 -0.169483
C18   C     C_R   0.162906 0.957414 0.054432 -0.181324
C19   C     C_R   0.660228 0.599123 0.554075 -0.169505
C20   C     C_R   0.337087 0.457649 0.445564 -0.181341
C21   C     C_R   0.898051 0.022453 0.906975 -0.210694
C22   C     C_R   0.101886 0.948703 0.092634 -0.210728
C23   C     C_R   0.601944 0.522529 0.593030 -0.210687
C24   C     C_R   0.398111 0.448631 0.407373 -0.210724
C25   C     C_R   0.934272 0.020807 0.961355 0.086398
C26   C     C_R   0.066326 0.967203 0.038241 0.086768
C27   C     C_R   0.565726 0.520780 0.538649 0.086401
C28   C     C_R   0.433669 0.467228 0.461763 0.086769
C29   C     C_R   0.920703 0.048289 0.007623 0.134633
C30   C     C_R   0.080869 0.968649 0.992161 0.138042
C31   C     C_R   0.579301 0.548053 0.492378 0.134634
C32   C     C_R   0.419123 0.468875 0.507840 0.138040
C33   C     C_R   0.983327 0.996113 0.971608 0.055678
C34   C     C_R   0.017171 0.987368 0.027923 0.055816
C35   C     C_R   0.516668 0.496173 0.528397 0.055675
C36   C     C_R   0.482827 0.487308 0.472081 0.055816
C37   C     C_R   0.000981 0.006950 0.072048 -0.182742
C38   C     C_R   0.999895 0.987811 0.927545 -0.183087
C39   C     C_R   0.499022 0.506690 0.427956 -0.182742
C40   C     C_R   0.500095 0.488068 0.572458 -0.183084
C41   C     C_R   0.953916 0.038872 0.061946 -0.193699
C42   C     C_R   0.047622 0.976685 0.937775 -0.194571
C43   C     C_R   0.546090 0.538526 0.438054 -0.193699
C44   C     C_R   0.452367 0.477022 0.562226 -0.194570
H1    H     H_    0.943443 0.058260 0.097291 0.132842
H2    H     H_    0.058684 0.976067 0.902515 0.132041
H3    H     H_    0.556568 0.557755 0.402707 0.132844
H4    H     H_    0.441302 0.476556 0.597483 0.132039
H5    H     H_    0.093710 0.938519 0.129637 0.094089
H6    H     H_    0.905099 0.994701 0.869858 0.095761
H7    H     H_    0.406289 0.438304 0.370373 0.094089
H8    H     H_    0.594890 0.494931 0.630152 0.095748
H9    H     H_    0.199715 0.960806 0.060113 0.112052
H10   H     H_    0.804442 0.136864 0.941118 0.111431
H11   H     H_    0.300276 0.461124 0.439878 0.112058
H12   H     H_    0.695570 0.636505 0.558870 0.111438
H13   H     H_    0.863726 0.114288 0.034714 0.119802
H14   H     H_    0.140068 0.971146 0.965627 0.118208
H15   H     H_    0.636288 0.613780 0.465277 0.119802
H16   H     H_    0.359919 0.471621 0.534365 0.118212
H17   H     H_    0.024165 0.005243 0.115272 0.129213
H18   H     H_    0.976851 0.996553 0.884336 0.128956
H19   H     H_    0.475841 0.504884 0.384730 0.129211
H20   H     H_    0.523138 0.496908 0.615666 0.128958
C45   C     C_R   0.091652 0.873877 0.480819 0.568365
C46   C     C_R   0.908214 0.963113 0.520795 0.595162
C47   C     C_R   0.408357 0.373829 0.019190 0.568348
C48   C     C_R   0.591795 0.463170 0.979220 0.595163
N1    N     N_R   0.073448 0.911994 0.424652 -0.544850
N2    N     N_R   0.927713 0.955043 0.578034 -0.540652
N3    N     N_R   0.426558 0.411993 0.075355 -0.544849
N4    N     N_R   0.572298 0.455064 0.921980 -0.540656
C49   C     C_R   0.026306 0.946191 0.397608 0.550461
C50   C     C_R   0.974970 0.924274 0.605274 0.556866
C51   C     C_R   0.473698 0.446240 0.102400 0.550465
C52   C     C_R   0.525042 0.424253 0.894740 0.556866
C53   C     C_R   0.996002 0.948117 0.427329 -0.027125
C54   C     C_R   0.004648 0.907664 0.575010 -0.029585
C55   C     C_R   0.504003 0.448169 0.072681 -0.027122
C56   C     C_R   0.495364 0.407634 0.925002 -0.029590
C57   C     C_R   0.014917 0.920690 0.485506 -0.021758
C58   C     C_R   0.985508 0.929990 0.516624 -0.022861
C59   C     C_R   0.485091 0.420696 0.014505 -0.021752
C60   C     C_R   0.514501 0.430001 0.983388 -0.022867
C61   C     C_R   0.063153 0.883635 0.512621 -0.032190
C62   C     C_R   0.936938 0.959723 0.489212 -0.033875
C63   C     C_R   0.436857 0.383590 0.987390 -0.032190
C64   C     C_R   0.563070 0.459779 0.010801 -0.033878
C65   C     C_R   0.947480 0.979592 0.400485 -0.154699
C66   C     C_R   0.052952 0.871609 0.601676 -0.164624
C67   C     C_R   0.552523 0.479690 0.099525 -0.154701
C68   C     C_R   0.447062 0.371529 0.898336 -0.164623
C69   C     C_R   0.918227 0.983476 0.430986 -0.171728
C70   C     C_R   0.081778 0.858207 0.570795 -0.174966
C71   C     C_R   0.581778 0.483575 0.069026 -0.171722
C72   C     C_R   0.418235 0.358117 0.929217 -0.174958
O21   O     O_2   0.137270 0.826534 0.505887 -0.540594
O22   O     O_2   0.861153 0.974895 0.494529 -0.539609
O23   O     O_2   0.362741 0.326437 0.994123 -0.540596
O24   O     O_2   0.638855 0.474986 0.005487 -0.539607
O25   O     O_2   0.008886 0.981533 0.342343 -0.533941
O26   O     O_2   0.993341 0.912865 0.661454 -0.536213
O27   O     O_2   0.491114 0.481628 0.157663 -0.533942
O28   O     O_2   0.506673 0.412810 0.838560 -0.536208
H21   H     H_    0.931901 0.000654 0.355784 0.167276
H22   H     H_    0.068637 0.853198 0.646481 0.165195
H23   H     H_    0.568100 0.500787 0.144225 0.167275
H24   H     H_    0.431378 0.353084 0.853533 0.165196
H25   H     H_    0.880989 0.007049 0.408861 0.165082
H26   H     H_    0.118830 0.830414 0.592781 0.157219
H27   H     H_    0.619015 0.507184 0.091151 0.165083
H28   H     H_    0.381185 0.330283 0.907231 0.157218
C73   C     C_R   0.890120 0.854347 0.642136 -0.116231
C74   C     C_R   0.099517 0.801155 0.350929 -0.107014
C75   C     C_R   0.609890 0.354351 0.857878 -0.116235
C76   C     C_R   0.400493 0.301191 0.149085 -0.107016
H29   H     H_    0.906695 0.721745 0.644555 0.135758
H30   H     H_    0.072107 0.698024 0.340041 0.140424
H31   H     H_    0.593319 0.221741 0.855463 0.135769
H32   H     H_    0.427910 0.198092 0.159980 0.140433
C77   C     C_R   0.860230 0.884058 0.670728 -0.251713
C78   C     C_R   0.129092 0.809327 0.321198 -0.252556
C79   C     C_R   0.639776 0.384061 0.829281 -0.251700
C80   C     C_R   0.370917 0.309361 0.178813 -0.252549
H33   H     H_    0.854753 0.771112 0.694825 0.145400
H34   H     H_    0.123212 0.713129 0.287246 0.143008
H35   H     H_    0.645251 0.271108 0.805183 0.145397
H36   H     H_    0.376802 0.213197 0.212773 0.142997
C81   C     C_R   0.838106 0.054874 0.669228 -0.083357
C82   C     C_R   0.165976 0.937313 0.334826 -0.069339
C83   C     C_R   0.661899 0.554880 0.830779 -0.083362
C84   C     C_R   0.334024 0.437304 0.165175 -0.069326
C85   C     C_R   0.848843 0.202778 0.639086 0.067220
C86   C     C_R   0.173373 0.060159 0.380558 0.074869
C87   C     C_R   0.651169 0.702787 0.860927 0.067209
C88   C     C_R   0.326620 0.560103 0.119434 0.074875
C89   C     C_R   0.878957 0.168970 0.609159 -0.007500
C90   C     C_R   0.140911 0.058534 0.408418 -0.001919
C91   C     C_R   0.621055 0.668987 0.890855 -0.007488
C92   C     C_R   0.359083 0.558485 0.091576 -0.001909
C93   C     C_R   0.898605 0.992721 0.609971 0.332459
C94   C     C_R   0.104708 0.924581 0.394230 0.320365
C95   C     C_R   0.601406 0.492736 0.890043 0.332447
C96   C     C_R   0.395295 0.424577 0.105774 0.320350
C97   C     C_3   0.831352 0.396910 0.640978 -0.342166
C98   C     C_3   0.779351 0.420711 0.605337 -0.679515
H37   H     H_    0.773860 0.424943 0.560432 0.201396
H38   H     H_    0.757445 0.308588 0.611732 0.225216
H39   H     H_    0.767682 0.553257 0.616896 0.198708
H40   H     H_    0.839269 0.439054 0.684768 0.186790
H41   H     H_    0.850560 0.498432 0.625913 0.170770
C99   C     C_3   0.217579 0.178235 0.402799 -0.367299
C100  C     C_3   0.260894 0.058020 0.431599 -0.734101
H42   H     H_    0.254247 0.959941 0.460763 0.223636
H43   H     H_    0.270370 0.979493 0.400519 0.224837
H44   H     H_    0.291355 0.144131 0.456117 0.216824
H45   H     H_    0.222126 0.262194 0.369500 0.196199
H46   H     H_    0.215845 0.282292 0.433137 0.175469
C101  C     C_3   0.668671 0.896909 0.859046 -0.342195
C102  C     C_3   0.720677 0.920651 0.894678 -0.679402
H47   H     H_    0.726174 0.925018 0.939584 0.201370
H48   H     H_    0.742568 0.808439 0.888299 0.225176
H49   H     H_    0.732365 0.053112 0.883092 0.198692
H50   H     H_    0.660750 0.939067 0.815257 0.186788
H51   H     H_    0.649476 0.998448 0.874125 0.170767
C103  C     C_3   0.282404 0.678106 0.097182 -0.367326
C104  C     C_3   0.239100 0.557813 0.068387 -0.734108
H52   H     H_    0.245759 0.459716 0.039234 0.223645
H53   H     H_    0.229628 0.479300 0.099472 0.224832
H54   H     H_    0.208632 0.643863 0.043859 0.216820
H55   H     H_    0.277846 0.762079 0.130474 0.196195
H56   H     H_    0.284130 0.782145 0.066838 0.175468
C105  C     C_R   0.890440 0.313264 0.575582 0.065633
C106  C     C_R   0.937289 0.370109 0.589856 -0.146506
C107  C     C_R   0.950348 0.470322 0.551844 -0.124326
C108  C     C_R   0.916645 0.517270 0.499882 -0.099297
C109  C     C_R   0.869539 0.470963 0.486717 -0.080298
C110  C     C_R   0.856403 0.368799 0.524335 -0.059714
H57   H     H_    0.964065 0.327574 0.629016 0.138444
H58   H     H_    0.986805 0.506984 0.562036 0.126136
H59   H     H_    0.927061 0.588382 0.469612 0.122526
H60   H     H_    0.843488 0.508306 0.446503 0.121183
H61   H     H_    0.820436 0.322280 0.511889 0.127624
C111  C     C_R   0.143108 0.194805 0.452250 0.087179
C112  C     C_R   0.104586 0.311721 0.443829 -0.150843
C113  C     C_R   0.101878 0.415724 0.487922 -0.071257
C114  C     C_R   0.138349 0.409475 0.540271 -0.032650
C115  C     C_R   0.177457 0.297906 0.548687 -0.127483
C116  C     C_R   0.179670 0.189289 0.505110 -0.072331
H62   H     H_    0.075642 0.315670 0.403765 0.128639
H63   H     H_    0.071119 0.498986 0.481627 0.106256
H64   H     H_    0.136156 0.490048 0.574410 0.110129
H65   H     H_    0.205500 0.291935 0.589388 0.111581
H66   H     H_    0.208970 0.096199 0.513104 0.134407
C117  C     C_R   0.609577 0.813290 0.924435 0.065649
C118  C     C_R   0.562728 0.870116 0.910172 -0.146501
C119  C     C_R   0.549675 0.970345 0.948188 -0.124334
C120  C     C_R   0.583384 0.017330 0.000143 -0.099285
C121  C     C_R   0.630490 0.971041 0.013299 -0.080297
C122  C     C_R   0.643619 0.868861 0.975676 -0.059724
H67   H     H_    0.535947 0.827555 0.871017 0.138437
H68   H     H_    0.513218 0.006992 0.938004 0.126137
H69   H     H_    0.572974 0.088456 0.030417 0.122527
H70   H     H_    0.656546 0.008414 0.053508 0.121184
H71   H     H_    0.679587 0.822361 0.988115 0.127625
C123  C     C_R   0.356878 0.694724 0.047736 0.087187
C124  C     C_R   0.395394 0.811675 0.056151 -0.150839
C125  C     C_R   0.398096 0.915652 0.012052 -0.071188
C126  C     C_R   0.361625 0.909347 0.959704 -0.032675
C127  C     C_R   0.322523 0.797740 0.951294 -0.127519
C128  C     C_R   0.320317 0.689145 0.994876 -0.072327
H72   H     H_    0.424338 0.815671 0.096214 0.128634
H73   H     H_    0.428851 0.998938 0.018342 0.106268
H74   H     H_    0.363813 0.989904 0.925561 0.110121
H75   H     H_    0.294480 0.791724 0.910593 0.111585
H76   H     H_    0.291022 0.596025 0.986887 0.134410

loop_
_geom_bond_atom_site_label_1
_geom_bond_atom_site_label_2
_ccdc_geom_bond_type
O17   V3    S    
C51   C55   A    
C25   C29   A    
O1    C5    A    
C103  C104  S    
N1    C49   A    
O19   V1    S    
C53   C65   A    
C128  H76   S    
C16   H16   S    
O3    C7    A    
C121  C122  A    
C10   C18   A    
O1    V3    S    
C4    C81   S    
C126  H74   S    
O4    V2    S    
C11   C23   A    
N3    C96   S    
C76   C80   A    
O11   V3    S    
C73   C93   A    
C25   C33   A    
C33   C38   A    
C5    C12   S    
C67   H23   S    
O18   V4    S    
C6    C11   S    
C38   H18   S    
C75   C79   A    
C35   C40   A    
C111  C116  A    
C65   H21   S    
C36   C39   A    
C88   C92   A    
C73   C77   A    
C66   C70   A    
C23   H8    S    
C82   C86   A    
C48   O24   S    
C58   C62   A    
O4    C8    A    
N3    C51   A    
C44   H4    S    
C115  H65   S    
N2    C50   A    
C76   C96   A    
C108  H59   S    
C45   C61   A    
C48   N4    A    
O13   V1    S    
C102  H47   S    
N2    C93   S    
O2    V4    S    
C97   C98   S    
C47   C63   A    
O3    V1    S    
C57   C61   A    
C28   C36   A    
C3    C82   S    
C85   C97   S    
C117  C122  A    
C90   C94   A    
C90   C111  S    
C75   H31   S    
C1    O15   A    
C52   C56   A    
C15   C31   A    
C1    C84   S    
C2    O16   A    
C108  C109  A    
C16   C32   A    
C68   H24   S    
O2    C6    A    
C97   H40   S    
C54   C58   A    
C106  C107  A    
C10   C22   A    
C87   C91   A    
C21   C25   A    
C42   H2    S    
C11   C19   A    
C126  C127  A    
C43   H3    S    
C70   H26   S    
C103  H56   S    
C13   C29   A    
C7    C10   S    
C34   C37   A    
O11   C7    A    
C114  H64   S    
O15   V3    S    
C107  C108  A    
O12   C8    A    
C47   O23   S    
C14   H14   S    
C13   C17   A    
C46   O22   S    
C24   H7    S    
C13   H13   S    
C105  C106  A    
O10   V2    S    
C101  H51   S    
C62   C69   A    
C118  C119  A    
C22   C26   A    
C61   C70   A    
C46   N2    A    
O5    V1    S    
C53   C57   A    
C99   H45   S    
C39   C43   A    
O7    V3    S    
C38   C42   A    
C83   C87   A    
C104  H52   S    
C26   C34   A    
C76   H32   S    
C92   C96   A    
C49   O25   S    
C74   H30   S    
C17   H10   S    
C86   C90   A    
C121  H70   S    
C111  C112  A    
C15   C19   A    
C100  H43   S    
C19   H12   S    
C32   C44   A    
C119  H68   S    
C45   N1    A    
C71   H27   S    
C68   C72   A    
C21   H6    S    
C72   H28   S    
O8    V4    S    
O7    C3    A    
C101  C102  S    
C104  H53   S    
C35   C36   A    
O5    C1    A    
C55   C67   A    
C54   C66   A    
C8    C9    S    
C9    C21   A    
C119  C120  A    
C123  C128  A    
C114  C115  A    
C78   C82   A    
C24   C28   A    
C91   C95   A    
O8    C4    A    
C100  H44   S    
C69   H25   S    
C112  C113  A    
C97   H41   S    
N4    C95   S    
O9    C5    A    
C105  C110  A    
C26   C30   A    
C115  C116  A    
C75   C95   A    
C124  H72   S    
C37   H17   S    
C103  H55   S    
C51   O27   S    
C86   C99   S    
C99   C100  S    
O6    V2    S    
N1    C94   S    
C100  H42   S    
C67   C71   A    
C110  H61   S    
C107  H58   S    
C65   C69   A    
C12   C20   A    
C27   C35   A    
C127  C128  A    
C46   C62   A    
C59   C60   A    
C40   C44   A    
C85   C89   A    
C56   C60   A    
C124  C125  A    
C29   C41   A    
C28   C32   A    
C88   C103  S    
O16   V4    S    
C50   O26   S    
O9    V1    S    
C117  C118  A    
C73   H29   S    
C3    O13   A    
C92   C123  S    
C39   H19   S    
C52   O28   S    
C59   C63   A    
C20   H11   S    
C48   C64   A    
C80   H36   S    
C2    C83   S    
O6    C2    A    
C64   C71   A    
C23   C27   A    
C116  H66   S    
C78   H34   S    
C30   C42   A    
C84   C88   A    
C79   C83   A    
O12   V4    S    
C80   C84   A    
C57   C58   A    
C66   H22   S    
C112  H62   S    
C102  H49   S    
C89   C105  S    
C74   C94   A    
C14   C30   A    
C9    C17   A    
C56   C68   A    
O10   C6    A    
O20   V2    S    
C104  H54   S    
C77   C81   A    
C31   C43   A    
C50   C54   A    
C101  H50   S    
C33   C34   A    
C125  H73   S    
C45   O21   S    
C120  H69   S    
C74   C78   A    
C41   H1    S    
C79   H35   S    
N4    C52   A    
C125  C126  A    
C102  H48   S    
C118  H67   S    
C12   C24   A    
C109  H60   S    
C27   C31   A    
C127  H75   S    
C37   C41   A    
C81   C85   A    
C123  C124  A    
C89   C93   A    
C15   H15   S    
C99   H46   S    
O14   V2    S    
C47   N3    A    
C14   C18   A    
C60   C64   A    
C16   C20   A    
C109  C110  A    
C18   H9    S    
C113  C114  A    
C98   H37   S    
C4    O14   A    
C106  H57   S    
C77   H33   S    
C63   C72   A    
C55   C59   A    
C98   H38   S    
C87   C101  S    
C122  H71   S    
C120  C121  A    
C40   H20   S    
C22   H5    S    
C49   C53   A    
C113  H63   S    
C98   H39   S    
C91   C117  S    
