data_mof_unit_27724.cif
_audit_creation_date              2012-10-26T19:09:54-0400
_audit_creation_method            fapswitch 2.2
_symmetry_space_group_name_H-M    P1
_symmetry_Int_Tables_number       1
_space_group_crystal_system       triclinic
_cell_length_a                    15.729127
_cell_length_b                    14.785481
_cell_length_c                    9.857969
_cell_angle_alpha                 91.66726
_cell_angle_beta                  90.950855
_cell_angle_gamma                 90.334043
_cell_volume                      2291.26412338

loop_
_atom_site_label
_atom_site_type_symbol
_atom_type_description
_atom_site_fract_x
_atom_site_fract_y
_atom_site_fract_z
_atom_type_partial_charge
C1    C     C_R   0.117241 0.377575 0.499736 0.563855
C2    C     C_R   0.884436 0.623319 0.501174 0.569091
C3    C     C_R   0.380016 0.881248 0.498120 0.545911
C4    C     C_R   0.384440 0.123322 0.501174 0.569097
C5    C     C_3   0.841397 0.224311 0.558457 -0.219616
C6    C     C_3   0.776051 0.289760 0.350802 -0.265717
C7    C     C_3   0.821690 0.759509 0.627510 -0.260578
C8    C     C_3   0.815102 0.749645 0.375293 -0.228777
C9    C     C_3   0.341387 0.724325 0.558520 -0.219617
C10   C     C_3   0.276075 0.789731 0.350798 -0.265686
C11   C     C_3   0.321714 0.259532 0.627488 -0.260582
C12   C     C_R   0.118155 0.621017 0.501520 0.591213
C13   C     C_3   0.315097 0.249638 0.375278 -0.228796
C14   C     C_3   0.271498 0.650614 0.550699 -0.254343
C15   C     C_3   0.199666 0.725430 0.355330 -0.244327
C16   C     C_3   0.241541 0.319300 0.634556 -0.244905
C17   C     C_3   0.249996 0.325951 0.385248 -0.260279
C18   C     C_3   0.771505 0.150602 0.550627 -0.254340
C19   C     C_3   0.699634 0.225470 0.355345 -0.244308
C20   C     C_3   0.741526 0.819292 0.634563 -0.244900
C21   C     C_3   0.749995 0.825952 0.385252 -0.260278
C22   C     C_3   0.732754 0.351867 0.576053 -0.146793
C23   C     C_R   0.617239 0.877574 0.499735 0.563859
C24   C     C_3   0.729534 0.640641 0.512013 -0.144446
C25   C     C_3   0.232737 0.851882 0.575999 -0.146824
C26   C     C_3   0.229543 0.140649 0.512053 -0.144425
C27   C     C_3   0.809258 0.313403 0.495917 -0.043330
C28   C     C_3   0.814811 0.692061 0.503958 -0.035195
C29   C     C_3   0.309258 0.813403 0.495918 -0.043344
C30   C     C_3   0.314819 0.192067 0.503958 -0.035187
C31   C     C_3   0.186263 0.692177 0.502732 0.035504
C32   C     C_3   0.187075 0.307735 0.501200 0.030423
C33   C     C_3   0.686262 0.192179 0.502732 0.035499
C34   C     C_R   0.618154 0.121018 0.501520 0.591204
C35   C     C_3   0.687069 0.807732 0.501198 0.030445
C36   C     C_3   0.165029 0.776930 0.596140 0.424853
C37   C     C_3   0.153999 0.205582 0.489803 0.401972
C38   C     C_3   0.665052 0.276909 0.596198 0.424860
C39   C     C_3   0.653990 0.705582 0.489795 0.401957
C40   C     C_3   0.930614 0.558801 0.083473 0.090027
C41   C     C_3   0.940624 0.571454 0.918231 0.032457
C42   C     C_3   0.002194 0.403473 0.078484 0.063299
C43   C     C_3   0.980917 0.405220 0.914321 0.052754
C44   C     C_3   0.430622 0.058810 0.083473 0.090061
C45   C     C_3   0.081129 0.540726 0.083467 -0.087044
C46   C     C_3   0.440638 0.071470 0.918234 0.032449
C47   C     C_3   0.502177 0.903474 0.078483 0.063321
C48   C     C_3   0.480894 0.905224 0.914328 0.052740
C49   C     C_2   0.929552 0.655805 0.144368 0.362546
C50   C     C_2   0.974511 0.666500 0.876341 0.287719
C51   C     C_2   0.088962 0.357745 0.111525 0.349104
C52   C     C_2   0.026003 0.329832 0.834072 0.380752
C53   C     C_2   0.429565 0.155809 0.144380 0.362584
C54   C     C_2   0.474547 0.166506 0.876339 0.287725
C55   C     C_2   0.588946 0.857733 0.111492 0.349007
C56   C     C_3   0.086095 0.524869 0.920200 -0.106458
C57   C     C_2   0.525955 0.829802 0.834119 0.380568
C58   C     C_2   0.842626 0.518557 0.118425 0.259342
C59   C     C_2   0.849605 0.573194 0.858116 0.135806
C60   C     C_2   0.939085 0.338999 0.142351 0.289006
C61   C     C_2   0.888448 0.371192 0.885518 0.148152
C62   C     C_2   0.342634 0.018564 0.118410 0.259338
C63   C     C_2   0.349614 0.073248 0.858136 0.135786
C64   C     C_2   0.439065 0.839011 0.142361 0.289214
C65   C     C_2   0.388422 0.871216 0.885515 0.148193
C66   C     C_3   0.581137 0.040707 0.083465 -0.087112
C67   C     C_3   0.586098 0.024855 0.920198 -0.106511
C68   C     C_R   0.880016 0.381248 0.498120 0.545878
Cl1   Cl    Cl    0.166615 0.750720 0.772577 -0.512259
Cl2   Cl    Cl    0.061132 0.819995 0.557956 -0.561459
Cl3   Cl    Cl    0.074776 0.178985 0.609209 -0.539952
Cl4   Cl    Cl    0.105551 0.174995 0.330085 -0.487217
Cl5   Cl    Cl    0.666681 0.250657 0.772614 -0.512336
Cl6   Cl    Cl    0.561150 0.319983 0.558104 -0.561528
Cl7   Cl    Cl    0.574783 0.678986 0.609227 -0.539943
Cl8   Cl    Cl    0.605521 0.675009 0.330089 -0.487121
Cu1   Cu    Cu3+1 0.000100 0.500000 0.642410 0.905882
Cu2   Cu    Cu3+1 0.000100 0.500000 0.357590 0.993403
Cu3   Cu    Cu3+1 0.500100 0.000000 0.642410 0.905807
Cu4   Cu    Cu3+1 0.500100 0.000000 0.357590 0.993420
H1    H     H_    0.861258 0.236453 0.665467 0.222433
H2    H     H_    0.826365 0.253769 0.294457 0.200365
H3    H     H_    0.879265 0.802810 0.619120 0.197357
H4    H     H_    0.879148 0.779291 0.359574 0.198710
H5    H     H_    0.398186 0.699470 0.503299 0.205037
H6    H     H_    0.326403 0.753741 0.294487 0.200426
H7    H     H_    0.379279 0.302843 0.619050 0.197386
H8    H     H_    0.379142 0.279279 0.359533 0.198659
H9    H     H_    0.290530 0.595597 0.478042 0.130282
H10   H     H_    0.211462 0.667331 0.283731 0.150770
H11   H     H_    0.261336 0.391231 0.651681 0.139674
H12   H     H_    0.757461 0.351840 0.296705 0.169407
H13   H     H_    0.283406 0.391819 0.404748 0.139175
H14   H     H_    0.790520 0.095606 0.477928 0.130283
H15   H     H_    0.711401 0.167393 0.283702 0.150802
H16   H     H_    0.761333 0.891220 0.651683 0.139680
H17   H     H_    0.783400 0.891821 0.404756 0.139165
H18   H     H_    0.265286 0.619126 0.651171 0.187613
H19   H     H_    0.141787 0.760300 0.317778 0.226082
H20   H     H_    0.203456 0.300268 0.723420 0.230239
H21   H     H_    0.218135 0.331152 0.285740 0.189390
H22   H     H_    0.765313 0.119088 0.651080 0.187605
H23   H     H_    0.827304 0.724199 0.723403 0.189699
H24   H     H_    0.641752 0.260361 0.317858 0.226082
H25   H     H_    0.703430 0.800272 0.723424 0.230088
H26   H     H_    0.718139 0.831152 0.285738 0.189299
H27   H     H_    0.753683 0.382239 0.674952 0.161355
H28   H     H_    0.704916 0.408860 0.519169 0.152327
H29   H     H_    0.726210 0.609471 0.613257 0.164942
H30   H     H_    0.727217 0.582771 0.437391 0.192463
H31   H     H_    0.253650 0.882271 0.674894 0.161320
H32   H     H_    0.204912 0.908867 0.519080 0.152351
H33   H     H_    0.226223 0.109509 0.613319 0.164937
H34   H     H_    0.796163 0.706517 0.286793 0.211446
H35   H     H_    0.227222 0.082757 0.437466 0.192449
H36   H     H_    0.088602 0.613511 0.106021 0.206455
H37   H     H_    0.113137 0.585898 0.875054 0.205570
H38   H     H_    0.139446 0.517452 0.136105 0.154254
H39   H     H_    0.134145 0.474492 0.889366 0.181107
H40   H     H_    0.588623 0.113491 0.106027 0.206464
H41   H     H_    0.613145 0.085884 0.875060 0.205564
H42   H     H_    0.639450 0.017404 0.136086 0.154163
H43   H     H_    0.634143 0.974478 0.889346 0.181070
H44   H     H_    0.879458 0.700641 0.111299 0.148814
H45   H     H_    0.361228 0.736493 0.665536 0.222423
H46   H     H_    0.962934 0.691513 0.776595 0.190623
H47   H     H_    0.092890 0.311581 0.191534 0.223036
H48   H     H_    0.006286 0.317807 0.730703 0.197297
H49   H     H_    0.379470 0.200648 0.111326 0.148842
H50   H     H_    0.463027 0.191487 0.776555 0.190710
H51   H     H_    0.592895 0.811625 0.191574 0.223036
H52   H     H_    0.506331 0.817854 0.730700 0.197286
H53   H     H_    0.814812 0.463880 0.059384 0.100877
H54   H     H_    0.827742 0.531547 0.773306 0.160422
H55   H     H_    0.875631 0.359641 0.161394 0.107057
H56   H     H_    0.257481 0.851799 0.296676 0.169415
H57   H     H_    0.837046 0.411396 0.855977 0.113094
H58   H     H_    0.314814 0.963896 0.059318 0.100858
H59   H     H_    0.327724 0.031623 0.773322 0.160410
H60   H     H_    0.375600 0.859653 0.161351 0.107043
H61   H     H_    0.337048 0.911431 0.855835 0.113094
H62   H     H_    0.327365 0.224240 0.723395 0.189710
H63   H     H_    0.296143 0.206505 0.286790 0.211470
H64   H     H_    0.898186 0.199467 0.503199 0.205021
N1    N     N_3   0.001260 0.500000 0.143650 -0.325082
N2    N     N_3   0.001260 0.500000 0.856350 -0.352177
N3    N     N_3   0.501260 0.000000 0.143650 -0.325089
N4    N     N_3   0.501260 0.000000 0.856350 -0.352196
O1    O     O_R   0.091250 0.408820 0.620260 -0.543319
O2    O     O_R   0.908940 0.408800 0.379740 -0.509143
O3    O     O_R   0.908940 0.591200 0.620260 -0.573037
O4    O     O_R   0.908940 0.591200 0.379740 -0.426944
O5    O     O_R   0.408940 0.908800 0.620260 -0.567460
O6    O     O_R   0.408940 0.908800 0.379740 -0.509080
O7    O     O_R   0.408940 0.091200 0.620260 -0.573071
O8    O     O_R   0.408940 0.091200 0.379740 -0.426905
O9    O     O_2   0.985382 0.687808 0.219112 -0.475475
O10   O     O_2   0.019905 0.715104 0.949192 -0.454487
O11   O     O_2   0.154722 0.369486 0.050097 -0.538086
O12   O     O_R   0.091250 0.408820 0.379740 -0.533920
O13   O     O_2   0.067792 0.269777 0.884222 -0.380377
O14   O     O_2   0.485401 0.187805 0.219117 -0.475495
O15   O     O_2   0.519902 0.215130 0.949222 -0.454448
O16   O     O_2   0.654672 0.869390 0.049940 -0.538135
O17   O     O_2   0.567488 0.769582 0.884368 -0.379966
O18   O     O_2   0.796228 0.551467 0.204152 -0.486406
O19   O     O_2   0.797210 0.625978 0.904591 -0.497881
O20   O     O_2   0.953567 0.258277 0.154193 -0.424721
O21   O     O_2   0.868551 0.291805 0.899939 -0.457378
O22   O     O_2   0.296262 0.051433 0.204223 -0.486394
O23   O     O_R   0.091250 0.591180 0.620260 -0.480823
O24   O     O_2   0.297242 0.126051 0.904631 -0.497903
O25   O     O_2   0.453566 0.758297 0.154298 -0.424664
O26   O     O_2   0.368492 0.791845 0.900037 -0.457340
O27   O     O_R   0.091250 0.591180 0.379740 -0.491001
O28   O     O_R   0.591250 0.908820 0.620260 -0.543393
O29   O     O_R   0.591250 0.908820 0.379740 -0.533954
O30   O     O_R   0.591250 0.091180 0.620260 -0.480829
O31   O     O_R   0.591250 0.091180 0.379740 -0.490995
O32   O     O_R   0.908940 0.408800 0.620260 -0.567458

loop_
_geom_bond_atom_site_label_1
_geom_bond_atom_site_label_2
_ccdc_geom_bond_type
C45   H38   S    
C7    H3    S    
C6    H2    S    
C65   O26   D    
C2    C28   S    
C56   H37   S    
C57   H52   S    
C10   C29   S    
C14   C31   S    
Cu1   O3    S    
C52   H48   S    
Cu2   O4    S    
C48   C57   S    
Cu1   Cu2   S    
C50   O10   D    
C6    C19   S    
Cu2   O2    S    
C60   O20   D    
C40   N1    S    
C11   C30   S    
C45   N1    S    
C14   H18   S    
C10   H56   S    
C55   O16   D    
C10   C15   S    
C38   Cl6   S    
C6    H12   S    
C53   O14   D    
C57   O17   D    
C22   H27   S    
C22   C38   S    
C3    O5    A    
C24   C39   S    
C5    H1    S    
C13   H8    S    
C18   H22   S    
C17   H13   S    
C3    C29   S    
C17   H21   S    
C26   H35   S    
C27   C68   S    
C25   H32   S    
C9    H5    S    
C5    C27   S    
C20   C35   S    
C44   C53   S    
Cu4   N3    S    
C46   N4    S    
C41   N2    S    
C47   C48   S    
C45   C56   S    
C44   C46   S    
C66   H42   S    
C1    O1    A    
C50   H46   S    
C39   Cl7   S    
C54   O15   D    
C18   H14   S    
C21   H26   S    
Cu2   N1    S    
C9    C29   S    
C52   O13   D    
C13   H63   S    
C66   C67   S    
C20   H16   S    
C66   H40   S    
C25   C29   S    
C49   O9    D    
C34   O31   A    
C54   H50   S    
C67   H41   S    
C11   H62   S    
C36   Cl2   S    
Cu4   O8    S    
C12   O23   A    
C58   H53   S    
C2    O4    A    
C62   O22   D    
C47   N3    S    
Cu1   O32   S    
C40   C58   S    
Cu4   O31   S    
C13   C30   S    
C43   C52   S    
C24   H30   S    
C41   C59   S    
C65   H61   S    
C19   C33   S    
Cu1   O1    S    
C47   C64   S    
C16   H20   S    
C5    H64   S    
C23   O28   A    
C44   C62   S    
C39   Cl8   S    
C49   H44   S    
C68   O32   A    
C3    O6    A    
C9    H45   S    
C7    C28   S    
C35   C39   S    
C9    C14   S    
C14   H9    S    
Cu3   O5    S    
C21   H17   S    
C19   H24   S    
C6    C27   S    
Cu1   O23   S    
C46   C54   S    
C8    C21   S    
Cu3   O30   S    
C32   C37   S    
C62   H58   S    
Cu4   O6    S    
C60   H55   S    
C66   N3    S    
C48   C65   S    
C12   O27   A    
C21   C35   S    
Cu2   O12   S    
C40   C41   S    
C4    O8    A    
C26   C30   S    
C23   C35   S    
C22   C27   S    
C37   Cl3   S    
C12   C31   S    
Cu2   O27   S    
C8    C28   S    
C56   H39   S    
C34   O30   A    
C53   H49   S    
C42   C43   S    
C42   C60   S    
C41   C50   S    
C19   H15   S    
C36   Cl1   S    
C43   C61   S    
C47   C55   S    
C20   H25   S    
C64   H60   S    
C2    O3    A    
C10   H6    S    
C8    H4    S    
C63   H59   S    
Cu3   O28   S    
C1    O12   A    
C24   H29   S    
C24   C28   S    
C15   H19   S    
C67   H43   S    
C44   N3    S    
C11   H7    S    
C26   C37   S    
C15   C31   S    
Cu3   N4    S    
C5    C18   S    
C8    H34   S    
C16   C32   S    
C42   C51   S    
C59   H54   S    
C55   H51   S    
C33   C38   S    
C13   C17   S    
C46   C63   S    
C51   H47   S    
Cu4   O29   S    
C26   H33   S    
C43   N2    S    
C15   H10   S    
C45   H36   S    
C61   H57   S    
C63   O24   D    
C22   H28   S    
C48   N4    S    
C59   O19   D    
C51   O11   D    
C33   C34   S    
C1    C32   S    
C56   N2    S    
C58   O18   D    
C18   C33   S    
C23   O29   A    
C11   C16   S    
C68   O2    A    
C25   H31   S    
C25   C36   S    
Cu3   O7    S    
Cu3   Cu4   S    
C4    O7    A    
C61   O21   D    
C16   H11   S    
C7    C20   S    
C37   Cl4   S    
C67   N4    S    
C17   C32   S    
C31   C36   S    
C7    H23   S    
C64   O25   D    
C42   N1    S    
Cu1   N2    S    
C4    C30   S    
C40   C49   S    
C38   Cl5   S    
