data_mof_unit_42656.cif
_audit_creation_date              2012-12-11T15:49:30-0500
_audit_creation_method            fapswitch 2.2
_symmetry_space_group_name_H-M    P1
_symmetry_Int_Tables_number       1
_space_group_crystal_system       triclinic
_cell_length_a                    8.340071
_cell_length_b                    18.982178
_cell_length_c                    26.958392
_cell_angle_alpha                 94.399658
_cell_angle_beta                  93.548489
_cell_angle_gamma                 85.18878
_cell_volume                      4233.67483524

loop_
_atom_site_label
_atom_site_type_symbol
_atom_type_description
_atom_site_fract_x
_atom_site_fract_y
_atom_site_fract_z
_atom_type_partial_charge
Ba1   Ba    Ba6+2 0.854000 0.466860 0.523710 1.813034
Ba2   Ba    Ba6+2 0.335820 0.533080 0.476290 1.835745
C1    C     C_3   0.743279 0.212805 0.670792 0.541844
C2    C     C_3   0.695843 0.281311 0.645884 0.276727
C3    C     C_3   0.435263 0.723532 0.629126 0.241688
C4    C     C_3   0.381139 0.700855 0.678241 -0.277350
C5    C     C_3   0.061433 0.691799 0.344621 0.298694
C6    C     C_3   0.040792 0.718675 0.292551 0.449077
C7    C     C_3   0.528152 0.727097 0.369196 0.763724
C8    C     C_3   0.486719 0.803065 0.355304 0.606877
C9    C     C_R   0.981483 0.441859 0.179287 0.668382
C10   C     C_R   0.921913 0.567074 0.176817 0.599713
C11   C     C_2   0.751719 0.545875 0.270124 -0.160555
C12   C     C_3   0.191588 0.297312 0.659088 0.937263
C13   C     C_3   0.734435 0.569701 0.324364 0.000756
C14   C     C_1   0.977965 0.492165 0.343832 -0.027228
C15   C     C_2   0.013425 0.486245 0.295853 -0.169436
C16   C     C_2   0.892949 0.512116 0.255732 0.188892
C17   C     C_R   0.017034 0.498760 0.102444 -0.086430
C18   C     C_R   0.021666 0.437024 0.128552 -0.137175
C19   C     C_R   0.063290 0.371560 0.103134 -0.049867
C20   C     C_R   0.969172 0.564215 0.127194 -0.036899
C21   C     C_2   0.849190 0.531114 0.360284 0.305221
C22   C     C_2   0.362966 0.498504 0.647726 -0.104550
C23   C     C_3   0.268078 0.248693 0.697811 0.503521
C24   C     C_R   0.159900 0.426415 0.976816 0.033829
C25   C     C_R   0.067869 0.552416 0.973085 0.008011
C26   C     C_R   0.131544 0.487744 0.949468 0.061890
C27   C     C_R   0.240293 0.365690 0.952952 -0.037525
C28   C     C_R   0.276394 0.363237 0.902927 -0.067251
C29   C     C_R   0.238016 0.421899 0.874563 -0.036968
C30   C     C_R   0.166713 0.484504 0.897931 -0.086135
C31   C     C_R   0.130159 0.543922 0.869818 -0.029609
C32   C     C_R   0.172252 0.541102 0.819546 0.610716
C33   C     C_R   0.271165 0.419309 0.823488 0.621063
C34   C     C_3   0.167043 0.311518 0.414069 0.251951
C35   C     C_2   0.425537 0.446254 0.728476 -0.141404
C36   C     C_3   0.448755 0.437102 0.673022 -0.011746
C37   C     C_1   0.214021 0.517682 0.659452 -0.017908
C38   C     C_2   0.166040 0.509277 0.704935 -0.036793
C39   C     C_2   0.281814 0.476741 0.744003 0.262840
C40   C     C_R   0.109096 0.428522 0.026883 -0.060096
C41   C     C_R   0.059035 0.495131 0.051543 0.003816
C42   C     C_R   0.050945 0.558276 0.025787 -0.015124
C43   C     C_R   0.102798 0.366774 0.053298 0.573272
C44   C     C_R   0.976988 0.626422 0.102956 -0.010342
C45   C     C_3   0.141209 0.234154 0.399091 0.453598
C46   C     C_R   0.015318 0.608036 0.942505 -0.121685
C47   C     C_R   0.049662 0.604694 0.892387 -0.019228
C48   C     C_R   0.027511 0.624626 0.054209 -0.077933
C49   C     C_R   0.397472 0.298646 0.521801 -0.383202
C50   C     C_R   0.536265 0.276035 0.496655 0.032957
C51   C     C_R   0.588676 0.203831 0.493025 -0.162730
C52   C     C_R   0.501982 0.153877 0.514071 -0.022813
C53   C     C_R   0.357815 0.177448 0.537470 0.678370
C54   C     C_R   0.304234 0.249645 0.540368 -0.051020
C55   C     C_R   0.558254 0.035952 0.550940 0.050450
C56   C     C_3   0.942555 0.685573 0.634818 0.166970
C57   C     C_R   0.609145 0.963766 0.546889 0.003807
C58   C     C_R   0.662045 0.930849 0.501636 0.089739
C59   C     C_R   0.666334 0.972202 0.460760 -0.050284
C60   C     C_R   0.615084 0.044577 0.464792 -0.041086
C61   C     C_R   0.559076 0.077189 0.509849 0.075742
C62   C     C_R   0.856298 0.827586 0.475608 -0.177947
C63   C     C_R   0.905707 0.754951 0.473940 0.068669
C64   C     C_R   0.669680 0.733366 0.516985 -0.095293
C65   C     C_R   0.615645 0.805222 0.516491 0.492927
C66   C     C_R   0.711787 0.853562 0.497584 -0.056909
C67   C     C_3   0.954895 0.682316 0.692391 -0.245115
C68   C     C_R   0.813825 0.708636 0.495393 -0.281938
C69   C     C_3   0.673482 0.381777 0.375550 0.161024
C70   C     C_3   0.669357 0.365482 0.318888 -0.265396
H1    H     H_    0.751212 0.278138 0.609250 0.075763
H2    H     H_    0.211941 0.215504 0.366350 0.054718
H3    H     H_    0.011418 0.228434 0.389185 0.036593
H4    H     H_    0.832791 0.663484 0.617712 0.008574
H5    H     H_    0.952018 0.736335 0.711679 0.148214
H6    H     H_    0.071167 0.654706 0.704603 0.093097
H7    H     H_    0.797859 0.391954 0.389147 0.024152
H8    H     H_    0.592520 0.430167 0.384111 0.079088
H9    H     H_    0.875527 0.206753 0.678975 0.064434
H10   H     H_    0.712625 0.411243 0.301851 0.067269
H11   H     H_    0.562550 0.286090 0.639800 -0.045833
H12   H     H_    0.326133 0.730248 0.603649 0.102233
H13   H     H_    0.483531 0.696915 0.706488 0.146819
H14   H     H_    0.285769 0.739569 0.693254 0.129558
H15   H     H_    0.333533 0.648188 0.672345 0.071362
H16   H     H_    0.682077 0.213486 0.706281 0.056042
H17   H     H_    0.356718 0.277113 0.722479 0.017881
H18   H     H_    0.173030 0.655894 0.347016 0.058833
H19   H     H_    0.958047 0.661157 0.350403 -0.020050
H20   H     H_    0.040621 0.672098 0.265248 0.044187
H21   H     H_    0.482657 0.721991 0.406497 0.018240
H22   H     H_    0.562544 0.839211 0.378989 -0.066381
H23   H     H_    0.510262 0.807809 0.315652 0.084274
H24   H     H_    0.130809 0.463014 0.285278 0.178701
H25   H     H_    0.061609 0.322868 0.121542 0.171433
H26   H     H_    0.516430 0.423387 0.754402 0.118225
H27   H     H_    0.336740 0.314979 0.886617 0.140489
H28   H     H_    0.283526 0.319920 0.972529 0.177851
H29   H     H_    0.661251 0.565228 0.242671 0.155188
H30   H     H_    0.953838 0.677304 0.123448 0.181874
H31   H     H_    0.943364 0.654382 0.956537 0.090912
H32   H     H_    0.291034 0.318737 0.640788 -0.243471
H33   H     H_    0.011169 0.649934 0.871172 0.155298
H34   H     H_    0.043342 0.525620 0.714188 0.123085
H35   H     H_    0.430129 0.533621 0.628405 0.054201
H36   H     H_    0.608336 0.933614 0.579377 0.114664
H37   H     H_    0.519400 0.059664 0.586449 0.194848
H38   H     H_    0.696545 0.186690 0.473594 0.114780
H39   H     H_    0.706298 0.948240 0.425426 0.085487
H40   H     H_    0.174027 0.231702 0.720715 0.047326
H41   H     H_    0.616365 0.074778 0.432355 0.089036
H42   H     H_    0.929831 0.863530 0.459714 0.127765
H43   H     H_    0.854212 0.652909 0.494707 0.130426
H44   H     H_    0.297254 0.316455 0.422677 -0.055976
H45   H     H_    0.095540 0.328323 0.446862 0.015167
N1    N     N_R   0.932033 0.506630 0.203137 -0.418870
N2    N     N_R   0.241621 0.479044 0.796445 -0.424970
O1    O     O_2   0.913240 0.537010 0.617740 -0.477936
O2    O     O_3   0.624391 0.323701 0.398149 -0.664533
O3    O     O_3   0.087895 0.258981 0.626036 -0.589341
O4    O     O_2   0.276450 0.462960 0.382230 -0.479907
O5    O     O_3   0.044470 0.462980 0.442430 -0.439774
O6    O     O_3   0.519740 0.589470 0.411120 -0.428963
O7    O     O_3   0.116452 0.350868 0.373542 -0.656071
O8    O     O_3   0.632420 0.583650 0.524140 -0.418975
O9    O     O_3   0.111040 0.625070 0.435230 -0.457510
O10   O     O_2   0.237428 0.749297 0.463347 -0.416249
O11   O     O_3   0.069814 0.749380 0.380249 -0.543916
O12   O     O_3   0.145240 0.536960 0.557560 -0.422776
O13   O     O_3   0.557280 0.416300 0.475860 -0.475705
O14   O     O_2   0.376710 0.670070 0.522470 -0.436603
O15   O     O_3   0.549506 0.670600 0.610190 -0.676063
O16   O     O_2   0.398730 0.544364 0.321467 -0.496473
O17   O     O_3   0.457313 0.679178 0.333214 -0.582364
O18   O     O_2   0.988484 0.388222 0.201869 -0.514953
O19   O     O_2   0.324499 0.363363 0.803032 -0.600638
O20   O     O_2   0.872167 0.623950 0.196636 -0.562068
O21   O     O_2   0.149589 0.594522 0.796706 -0.580829
O22   O     O_3   0.669960 0.410470 0.588880 -0.437487
O23   O     O_2   0.767513 0.475177 0.676297 -0.462479
O24   O     O_3   0.077285 0.650727 0.612182 -0.653313
O25   O     O_3   0.751484 0.338628 0.676480 -0.596500
O26   O     O_2   0.812980 0.329910 0.477500 -0.473822
O27   O     O_3   0.078660 0.374870 0.564770 -0.477175
O28   O     O_2   0.966696 0.248746 0.534505 -0.435937
P1    P     P_3+3 0.082480 0.557670 0.610090 1.029362
P2    P     P_3+3 0.635220 0.340300 0.462910 1.004287
P3    P     P_3+3 0.107428 0.282010 0.565319 1.114349
P4    P     P_3+3 0.107220 0.442270 0.389900 1.041524
P5    P     P_3+3 0.082264 0.718399 0.439929 1.099993
P6    P     P_3+3 0.659952 0.417035 0.653968 1.051139
P7    P     P_3+3 0.555685 0.669156 0.544910 1.007570
P8    P     P_3+3 0.526168 0.592376 0.346638 1.068411
F1    F     F_    0.189684 0.192513 0.437884 -0.735832
C71   C     C_2   0.934100 0.761458 0.621578 0.593968
H46   H     H_    0.829442 0.784112 0.601028 -0.066936
O29   O     O_2   0.045219 0.798344 0.633551 -0.576780
C72   C     C_2   0.820837 0.645277 0.711163 0.526147
H47   H     H_    0.736627 0.618256 0.685698 0.038893
O30   O     O_2   0.807269 0.644152 0.755901 -0.534854
C73   C     C_2   0.777800 0.300336 0.305558 0.530150
H48   H     H_    0.752781 0.249335 0.317703 0.000264
O31   O     O_2   0.894854 0.304157 0.281175 -0.502600
C74   C     C_2   0.500426 0.355028 0.298471 0.538903
H49   H     H_    0.434663 0.313623 0.311458 0.021591
O32   O     O_2   0.435855 0.392905 0.267185 -0.546229
F2    F     F_    0.698108 0.155733 0.639639 -0.685067
C75   C     C_2   0.506517 0.793768 0.639355 0.459143
H50   H     H_    0.449804 0.840233 0.622488 0.090630
O33   O     O_2   0.622610 0.800154 0.668734 -0.593031
C76   C     C_2   0.887097 0.765245 0.286691 0.608334
H51   H     H_    0.871104 0.814846 0.309349 0.025730
O34   O     O_2   0.779320 0.747928 0.256701 -0.538293
F3    F     F_    0.169260 0.756574 0.283685 -0.627745
F4    F     F_    0.694273 0.715344 0.372037 -0.827893
F5    F     F_    0.327036 0.823807 0.363025 -0.632758
F6    F     F_    0.102620 0.353265 0.682800 -0.730754
F7    F     F_    0.121261 0.300441 0.030915 -0.693747
C77   C     C_2   0.079880 0.691608 0.037615 0.518130
H52   H     H_    0.168538 0.690018 0.009669 0.010235
O35   O     O_2   0.026995 0.749298 0.055571 -0.520823
F8    F     F_    0.842817 0.554560 0.409064 -0.690250
F9    F     F_    0.467565 0.827590 0.532399 -0.726196
F10   F     F_    0.265167 0.130200 0.554771 -0.652720
C78   C     C_2   0.341352 0.373640 0.524506 0.585523
H53   H     H_    0.271120 0.396038 0.493811 -0.006838
O36   O     O_2   0.372104 0.411600 0.561501 -0.596785
F11   F     F_    0.347024 0.189437 0.674454 -0.672147

loop_
_geom_bond_atom_site_label_1
_geom_bond_atom_site_label_2
_ccdc_geom_bond_type
C25   C46   A    
C51   H38   S    
C53   C54   A    
C71   H46   S    
C12   O3    S    
C7    H21   S    
C67   H5    S    
C17   C18   A    
Ba1   O13   S    
C67   C72   S    
C69   H7    S    
Ba1   O27   S    
C56   H4    S    
C5    C6    S    
O15   P7    S    
C76   H51   S    
C55   C61   A    
C44   H30   S    
C60   C61   A    
C4    H13   S    
C11   C16   D    
C3    C4    S    
O3    P3    S    
C73   O31   D    
C35   C36   S    
Ba1   Ba2   S    
C34   O7    S    
C23   F11   S    
C33   O19   D    
C28   C29   A    
C55   C57   A    
C52   C61   S    
C8    H22   S    
C31   C47   A    
C63   C68   A    
C10   C20   A    
Ba2   P4    S    
C22   C37   D    
O16   P8    D    
C34   C45   S    
C49   C54   A    
C53   F10   S    
O25   P6    S    
C35   H26   S    
C5    O11   S    
C43   F7    S    
O27   P3    S    
C33   N2    Am   
C25   C42   A    
O9    P5    S    
C55   H37   S    
C75   H50   S    
C73   H48   S    
O2    P2    S    
C50   P2    S    
C37   P1    S    
C1    H9    S    
C22   C36   S    
C3    C75   S    
Ba1   P2    S    
C6    H20   S    
C24   C26   A    
C7    C8    S    
C16   N1    S    
C13   P8    S    
C12   F6    S    
C23   H40   S    
Ba2   O8    S    
C13   C21   S    
C64   C65   A    
C57   C58   A    
O23   P6    D    
C74   O32   D    
O13   P2    S    
C67   H6    S    
O24   P1    S    
C56   O24   S    
O8    P7    S    
C69   H8    S    
C17   C41   A    
C15   C16   S    
C19   C43   A    
C77   O35   D    
C3    O15   S    
O4    P4    D    
C9    C18   A    
Ba2   O14   S    
C62   H42   S    
C65   C66   A    
C8    F5    S    
C26   C30   A    
O28   P3    D    
C49   C78   S    
C60   H41   S    
C37   C38   D    
C64   P7    S    
C3    H12   S    
C6    C76   S    
C14   C15   D    
C47   H33   S    
Ba2   O4    S    
C5    H18   S    
C28   H27   S    
C4    H15   S    
C49   C50   A    
C58   C59   A    
C40   C43   A    
C72   O30   D    
C77   H52   S    
C41   C42   A    
C7    O17   S    
C27   C28   A    
Ba1   O26   S    
C19   H25   S    
O7    P4    S    
C12   H32   S    
C29   C30   A    
C5    H19   S    
C17   C20   A    
Ba2   O12   S    
C10   O20   D    
O12   P1    S    
C15   H24   S    
C39   N2    S    
C34   H45   S    
C2    H1    S    
C76   O34   D    
O10   P5    D    
C10   N1    Am   
Ba2   O13   S    
C20   C44   A    
O5    P4    S    
O1    P1    D    
C14   C21   D    
C11   C13   S    
O11   P5    S    
C74   H49   S    
C29   C33   A    
C48   C77   S    
C40   C41   A    
C54   P3    S    
C1    C2    S    
C34   H44   S    
C62   C66   A    
C7    F4    S    
C50   C51   A    
C24   C40   A    
C38   H34   S    
C42   C48   A    
C32   N2    Am   
O17   P8    S    
C52   C53   A    
C38   C39   S    
C27   H28   S    
C1    H16   S    
C70   C74   S    
C69   O2    S    
C1    F2    S    
Ba1   O8    S    
C45   H2    S    
Ba1   O12   S    
C56   C71   S    
C2    O25   S    
C6    F3    S    
C56   C67   S    
C51   C52   A    
Ba2   O5    S    
C68   H43   S    
C44   C48   A    
C23   H17   S    
C57   H36   S    
C4    H14   S    
C62   C63   A    
C63   P5    S    
C22   H35   S    
C9    O18   D    
Ba1   O5    S    
C45   H3    S    
C21   F8    S    
C30   C31   A    
C46   H31   S    
O22   P6    S    
C64   C68   A    
C2    H11   S    
C75   O33   D    
C8    H23   S    
C46   C47   A    
C32   O21   D    
C70   C73   S    
C31   C32   A    
C14   P4    S    
C12   C23   S    
C35   C39   D    
C59   C60   A    
C72   H47   S    
O26   P2    D    
C78   O36   D    
Ba1   O22   S    
Ba2   O6    S    
O6    P8    S    
C78   H53   S    
C69   C70   S    
C18   C19   A    
C58   C66   S    
C24   C27   A    
C71   O29   D    
C45   F1    S    
C25   C26   A    
Ba1   P1    S    
C36   P6    S    
C9    N1    Am   
C11   H29   S    
O14   P7    D    
Ba1   O1    S    
C70   H10   S    
C65   F9    S    
Ba2   O9    S    
C59   H39   S    
