data_mof_unit_33377.cif
_audit_creation_date              2012-12-10T19:09:30-0500
_audit_creation_method            fapswitch 2.2
_symmetry_space_group_name_H-M    P1
_symmetry_Int_Tables_number       1
_space_group_crystal_system       triclinic
_cell_length_a                    15.074642
_cell_length_b                    15.000705
_cell_length_c                    9.692894
_cell_angle_alpha                 90.0
_cell_angle_beta                  89.953362
_cell_angle_gamma                 89.999977
_cell_volume                      2191.85589119

loop_
_atom_site_label
_atom_site_type_symbol
_atom_type_description
_atom_site_fract_x
_atom_site_fract_y
_atom_site_fract_z
_atom_type_partial_charge
C1    C     C_R   0.121671 0.379282 0.500259 0.929002
C2    C     C_R   0.879636 0.622171 0.500349 0.926070
C3    C     C_R   0.379635 0.877830 0.500349 0.926084
C4    C     C_R   0.379636 0.122171 0.500349 0.926066
C5    C     C_3   0.791911 0.278917 0.652498 0.536851
C6    C     C_3   0.843583 0.227444 0.415305 0.531198
C7    C     C_3   0.843580 0.772553 0.415287 0.531198
C8    C     C_3   0.791924 0.721096 0.652497 0.536859
C9    C     C_3   0.291909 0.778918 0.652499 0.536850
C10   C     C_3   0.343584 0.727443 0.415307 0.531197
C11   C     C_3   0.343580 0.272553 0.415289 0.531198
C12   C     C_R   0.121669 0.620720 0.500259 0.928998
C13   C     C_3   0.291923 0.221095 0.652497 0.536857
C14   C     C_3   0.220090 0.707813 0.651873 -0.440190
C15   C     C_3   0.271663 0.654870 0.417802 -0.453015
C16   C     C_3   0.271659 0.345126 0.417785 -0.453001
C17   C     C_3   0.220102 0.292200 0.651871 -0.440206
C18   C     C_3   0.720091 0.207812 0.651872 -0.440193
C19   C     C_3   0.771662 0.154871 0.417801 -0.453013
C20   C     C_3   0.771659 0.845126 0.417782 -0.453003
C21   C     C_3   0.720104 0.792201 0.651871 -0.440204
C22   C     C_3   0.726213 0.346982 0.436969 -0.656867
C23   C     C_R   0.621671 0.879282 0.500259 0.929002
C24   C     C_3   0.726211 0.653016 0.436990 -0.656867
C25   C     C_3   0.226214 0.846982 0.436967 -0.656864
C26   C     C_3   0.226212 0.153016 0.436989 -0.656867
C27   C     C_3   0.812235 0.308879 0.501642 -0.043507
C28   C     C_3   0.812237 0.691123 0.501643 -0.043505
C29   C     C_3   0.312234 0.808880 0.501642 -0.043509
C30   C     C_3   0.312237 0.191122 0.501643 -0.043504
C31   C     C_3   0.190455 0.688204 0.501339 -0.010431
C32   C     C_3   0.190458 0.311798 0.501339 -0.010433
C33   C     C_3   0.690456 0.188204 0.501339 -0.010432
C34   C     C_R   0.621669 0.120720 0.500259 0.928996
C35   C     C_3   0.690458 0.811799 0.501339 -0.010433
C36   C     C_3   0.153955 0.774954 0.436073 -0.371347
C37   C     C_3   0.153953 0.225044 0.436094 -0.371341
C38   C     C_3   0.653955 0.274954 0.436075 -0.371350
C39   C     C_3   0.653953 0.725044 0.436096 -0.371337
C40   C     C_3   0.044606 0.420437 0.081192 -0.233585
C41   C     C_3   0.044625 0.420451 0.918714 -0.228900
C42   C     C_3   0.044267 0.579756 0.918715 -0.228902
C43   C     C_3   0.044247 0.579772 0.081193 -0.233642
C44   C     C_3   0.544668 0.920473 0.081192 -0.233574
C45   C     C_3   0.907187 0.499793 0.081475 -0.231411
C46   C     C_3   0.544687 0.920487 0.918714 -0.228899
C47   C     C_3   0.544206 0.079793 0.918715 -0.228900
C48   C     C_3   0.544184 0.079808 0.081194 -0.233649
C49   C     C_3   0.907194 0.499794 0.918782 -0.236302
C50   C     C_3   0.407186 0.999722 0.081475 -0.231409
C51   C     C_3   0.407193 0.999723 0.918782 -0.236300
C52   C     C_R   0.879635 0.377830 0.500349 0.926083
F1    F     F_    0.867420 0.245668 0.716359 -0.631899
F2    F     F_    0.922552 0.193548 0.466361 -0.650322
F3    F     F_    0.922552 0.806452 0.466324 -0.650335
F4    F     F_    0.867438 0.754349 0.716338 -0.631944
F5    F     F_    0.367418 0.745670 0.716362 -0.631891
F6    F     F_    0.422552 0.693547 0.466365 -0.650321
F7    F     F_    0.422552 0.306452 0.466327 -0.650336
F8    F     F_    0.367436 0.254348 0.716339 -0.631952
H1    H     H_    0.767952 0.336846 0.714086 0.052474
H2    H     H_    0.298291 0.592671 0.464851 0.207895
H3    H     H_    0.298291 0.407329 0.464819 0.207893
H4    H     H_    0.245553 0.354182 0.701294 0.214156
H5    H     H_    0.745538 0.145834 0.701308 0.214171
H6    H     H_    0.798291 0.092671 0.464848 0.207895
H7    H     H_    0.798291 0.907329 0.464814 0.207892
H8    H     H_    0.745556 0.854184 0.701291 0.214153
H9    H     H_    0.162761 0.731671 0.714454 0.153879
H10   H     H_    0.252055 0.638689 0.309940 0.140815
H11   H     H_    0.252044 0.361300 0.309923 0.140799
H12   H     H_    0.855367 0.248015 0.306433 0.070153
H13   H     H_    0.162778 0.268346 0.714467 0.153880
H14   H     H_    0.662762 0.231670 0.714454 0.153877
H15   H     H_    0.752053 0.138691 0.309939 0.140817
H16   H     H_    0.752043 0.861298 0.309920 0.140797
H17   H     H_    0.662780 0.768349 0.714469 0.153880
H18   H     H_    0.702827 0.405779 0.496992 0.200738
H19   H     H_    0.738673 0.369782 0.329343 0.211148
H20   H     H_    0.738663 0.630209 0.329366 0.211155
H21   H     H_    0.702829 0.594223 0.497027 0.200731
H22   H     H_    0.202827 0.905780 0.496988 0.200738
H23   H     H_    0.855357 0.751974 0.306416 0.070148
H24   H     H_    0.238674 0.869781 0.329340 0.211146
H25   H     H_    0.238664 0.130209 0.329365 0.211157
H26   H     H_    0.202829 0.094223 0.497024 0.200731
H27   H     H_    0.095415 0.798912 0.495382 0.256603
H28   H     H_    0.132066 0.762618 0.328049 0.200110
H29   H     H_    0.132058 0.237372 0.328072 0.200113
H30   H     H_    0.095417 0.201091 0.495415 0.256599
H31   H     H_    0.595416 0.298912 0.495385 0.256603
H32   H     H_    0.632065 0.262620 0.328052 0.200111
H33   H     H_    0.632056 0.737371 0.328074 0.200112
H34   H     H_    0.767970 0.663171 0.714100 0.052537
H35   H     H_    0.595418 0.701090 0.495420 0.256599
H36   H     H_    0.012143 0.358718 0.120036 0.156617
H37   H     H_    0.012227 0.358718 0.879888 0.191049
H38   H     H_    0.011597 0.641343 0.879882 0.191313
H39   H     H_    0.011507 0.641343 0.120040 0.156635
H40   H     H_    0.512253 0.858728 0.120036 0.156613
H41   H     H_    0.512336 0.858727 0.879889 0.191003
H42   H     H_    0.511489 0.141354 0.879881 0.191359
H43   H     H_    0.511397 0.141354 0.120040 0.156636
H44   H     H_    0.114286 0.418481 0.118733 0.149826
H45   H     H_    0.267950 0.836849 0.714084 0.052463
H46   H     H_    0.114323 0.418572 0.881117 0.146331
H47   H     H_    0.113958 0.581949 0.881128 0.146361
H48   H     H_    0.113917 0.582046 0.118729 0.149866
H49   H     H_    0.614350 0.918572 0.118734 0.149817
H50   H     H_    0.614387 0.918662 0.881115 0.146325
H51   H     H_    0.613896 0.082040 0.881130 0.146365
H52   H     H_    0.613854 0.082137 0.118728 0.149872
H53   H     H_    0.870511 0.440385 0.119713 0.148850
H54   H     H_    0.870533 0.440387 0.880665 0.160165
H55   H     H_    0.870266 0.559031 0.880652 0.159785
H56   H     H_    0.355369 0.748014 0.306434 0.070153
H57   H     H_    0.870243 0.559030 0.119727 0.148780
H58   H     H_    0.370557 0.940284 0.119710 0.148861
H59   H     H_    0.370579 0.940287 0.880667 0.160229
H60   H     H_    0.370219 0.058931 0.880650 0.159721
H61   H     H_    0.370196 0.058929 0.119730 0.148767
H62   H     H_    0.355357 0.251975 0.306417 0.070147
H63   H     H_    0.267970 0.163169 0.714099 0.052547
H64   H     H_    0.245537 0.645835 0.701310 0.214168
N1    N     N_3   0.998760 0.500000 0.138610 -0.038766
N2    N     N_3   0.998760 0.500000 0.861390 -0.043728
N3    N     N_3   0.498760 1.000000 0.138610 -0.038764
N4    N     N_3   0.498760 1.000000 0.861390 -0.043726
O1    O     O_R   0.092530 0.407440 0.616040 -0.630704
O2    O     O_R   0.907330 0.407420 0.383960 -0.648914
O3    O     O_R   0.907330 0.592580 0.383960 -0.648899
O4    O     O_R   0.907330 0.592580 0.616040 -0.602763
O5    O     O_R   0.407330 0.907420 0.616040 -0.602746
O6    O     O_R   0.407330 0.907420 0.383960 -0.648916
O7    O     O_R   0.407330 0.092580 0.383960 -0.648896
O8    O     O_R   0.407330 0.092580 0.616040 -0.602762
O9    O     O_R   0.092530 0.407440 0.383960 -0.636755
O10   O     O_R   0.092530 0.592560 0.383960 -0.636750
O11   O     O_R   0.092530 0.592560 0.616040 -0.630708
O12   O     O_R   0.592530 0.907440 0.616040 -0.630704
O13   O     O_R   0.592530 0.907440 0.383960 -0.636756
O14   O     O_R   0.592530 0.092560 0.383960 -0.636750
O15   O     O_R   0.592530 0.092560 0.616040 -0.630709
O16   O     O_R   0.907330 0.407420 0.616040 -0.602748
Zn1   Zn    Zn3+2 0.999890 0.500000 0.654960 0.950604
Zn2   Zn    Zn3+2 0.999890 0.500000 0.345040 0.910254
Zn3   Zn    Zn3+2 0.499890 1.000000 0.654960 0.950605
Zn4   Zn    Zn3+2 0.499890 1.000000 0.345040 0.910255

loop_
_geom_bond_atom_site_label_1
_geom_bond_atom_site_label_2
_ccdc_geom_bond_type
C7    H23   S    
C44   N3    S    
O2    Zn2   S    
C20   H7    S    
C7    F3    S    
C14   C31   S    
C24   H21   S    
C8    F4    S    
C1    O9    A    
C47   N4    S    
C13   F8    S    
C36   H28   S    
C18   H5    S    
O15   Zn3   S    
C6    C19   S    
C50   H61   S    
C52   O16   A    
C37   H30   S    
C19   H6    S    
O4    Zn1   S    
C5    F1    S    
C10   F6    S    
C40   H36   S    
C22   H19   S    
C1    O1    A    
N1    Zn2   S    
C42   H38   S    
C17   H4    S    
C13   H63   S    
C9    H45   S    
C22   C38   S    
C38   H32   S    
C24   C39   S    
C20   H16   S    
O3    Zn2   S    
C3    C29   S    
C39   H33   S    
O13   Zn4   S    
C5    C27   S    
C20   C35   S    
C24   H20   S    
C34   O14   A    
C47   C48   S    
C11   C30   S    
C45   N1    S    
C25   H24   S    
C51   H59   S    
O5    Zn3   S    
C16   H3    S    
C42   H47   S    
O1    Zn1   S    
C9    C29   S    
N3    Zn4   S    
C4    O8    A    
C44   H49   S    
C49   H54   S    
C18   H14   S    
C47   H42   S    
C17   H13   S    
C43   N1    S    
C16   H11   S    
C6    F2    S    
C11   F7    S    
O12   Zn3   S    
N2    Zn1   S    
C44   C46   S    
C2    O3    A    
C36   H27   S    
C25   C29   S    
C46   H41   S    
C34   O15   A    
C14   H64   S    
C41   H46   S    
O14   Zn4   S    
O9    Zn2   S    
C51   H60   S    
C8    H34   S    
C22   H18   S    
C9    F5    S    
C19   C33   S    
C5    C18   S    
C6    H12   S    
C48   H43   S    
C38   H31   S    
C7    C20   S    
C1    C32   S    
C7    C28   S    
C3    O5    A    
C35   C39   S    
C9    C14   S    
C49   N2    S    
C40   H44   S    
C11   C16   S    
C13   C30   S    
C2    O4    A    
C6    C27   S    
C45   C49   S    
C26   H26   S    
C50   C51   S    
C12   O11   A    
C5    H1    S    
C26   C37   S    
C32   C37   S    
C23   O12   A    
C39   H35   S    
C4    O7    A    
C40   C41   S    
C48   H52   S    
C26   C30   S    
C23   C35   S    
C22   C27   S    
C46   H50   S    
C21   H8    S    
C25   H22   S    
C8    C28   S    
C14   H9    S    
C12   O10   A    
C11   H62   S    
C42   C43   S    
C51   N4    S    
C10   H56   S    
C27   C52   S    
C45   H57   S    
C15   H10   S    
O11   Zn1   S    
C49   H55   S    
C50   H58   S    
C41   N2    S    
C24   C28   S    
C43   H39   S    
O16   Zn1   S    
C8    C21   S    
N4    Zn3   S    
C15   C31   S    
C21   C35   S    
C37   H29   S    
C16   C32   S    
O6    Zn4   S    
C33   C38   S    
C13   C17   S    
C10   C15   S    
C3    O6    A    
C52   O2    A    
C19   H15   S    
C12   C31   S    
C48   N3    S    
C44   H40   S    
C10   C29   S    
O10   Zn2   S    
C26   H25   S    
C47   H51   S    
C40   N1    S    
C15   H2    S    
C33   C34   S    
C41   H37   S    
C43   H48   S    
C18   C33   S    
O8    Zn3   S    
C42   N2    S    
C25   C36   S    
C45   H53   S    
O7    Zn4   S    
C46   N4    S    
C21   H17   S    
C17   C32   S    
C31   C36   S    
C23   O13   A    
C2    C28   S    
C50   N3    S    
C4    C30   S    
