data_mof_unit_55807.cif
_audit_creation_date              2012-10-26T19:53:19-0400
_audit_creation_method            fapswitch 2.2
_symmetry_space_group_name_H-M    P1
_symmetry_Int_Tables_number       1
_space_group_crystal_system       triclinic
_cell_length_a                    7.791363
_cell_length_b                    9.102247
_cell_length_c                    13.905662
_cell_angle_alpha                 89.935652
_cell_angle_beta                  84.952587
_cell_angle_gamma                 90.114924
_cell_volume                      982.34743356

loop_
_atom_site_label
_atom_site_type_symbol
_atom_type_description
_atom_site_fract_x
_atom_site_fract_y
_atom_site_fract_z
_atom_type_partial_charge
C1    C     C_R   0.500102 0.779974 0.500018 0.549873
C2    C     C_1   0.553059 0.484942 0.127308 0.010276
C3    C     C_1   0.500141 0.934642 0.500031 -0.050114
C4    C     C_1   0.499854 0.065357 0.500031 -0.050865
C5    C     C_3   0.126833 0.567349 0.980918 0.019584
C6    C     C_3   0.106386 0.714480 0.929412 -0.269886
C7    C     C_3   0.937613 0.720075 0.881482 -0.449947
C8    C     C_3   0.721911 0.274539 0.970578 -0.009383
C9    C     C_3   0.831045 0.217467 0.049062 -0.263831
C10   C     C_3   0.859785 0.052287 0.039718 -0.482041
C11   C     C_R   0.499893 0.220026 0.500021 0.547838
C12   C     C_R   0.472574 0.500346 0.683414 0.539571
C13   C     C_R   0.527342 0.499512 0.316567 0.542248
C14   C     C_1   0.542989 0.492927 0.213765 -0.030752
C15   C     C_1   0.455696 0.504051 0.786234 -0.048961
C16   C     C_2   0.560544 0.473568 0.023845 0.278273
C17   C     C_2   0.423803 0.514188 0.977363 0.270957
C18   C     C_1   0.440626 0.508451 0.872820 -0.041303
Cu1   Cu    Cu3+1 0.330920 0.500000 0.499990 1.026431
Cu2   Cu    Cu3+1 0.669080 0.500000 0.500010 1.023491
H1    H     H_    0.014928 0.553549 0.035451 0.190579
H2    H     H_    0.958159 0.273810 0.042841 0.171131
H3    H     H_    0.765623 0.241027 0.121542 0.166566
H4    H     H_    0.734606 0.992873 0.046619 0.154985
H5    H     H_    0.938563 0.013773 0.097525 0.158817
H6    H     H_    0.929354 0.026902 0.968612 0.142306
H7    H     H_    0.121207 0.472742 0.930465 0.135080
H8    H     H_    0.108542 0.804995 0.982776 0.169749
H9    H     H_    0.214911 0.732127 0.873401 0.162369
H10   H     H_    0.930256 0.627304 0.830135 0.186886
H11   H     H_    0.930339 0.824690 0.840935 0.134791
H12   H     H_    0.826159 0.714594 0.936954 0.180861
H13   H     H_    0.785769 0.243241 0.898954 0.158881
H14   H     H_    0.592993 0.219516 0.976453 0.117077
N1    N     N_1   0.923170 0.500000 0.500020 -0.078686
N2    N     N_1   0.076830 0.500000 0.499980 -0.078448
O1    O     O_R   0.357240 0.711600 0.500000 -0.494776
O2    O     O_3   0.713056 0.429772 0.973116 -0.620638
O3    O     O_R   0.642760 0.288400 0.500000 -0.496297
O4    O     O_R   0.642760 0.711600 0.500000 -0.495262
O5    O     O_R   0.357240 0.288400 0.500000 -0.495748
O6    O     O_R   0.337030 0.500000 0.637840 -0.502275
O7    O     O_R   0.662970 0.500000 0.362160 -0.497877
O8    O     O_R   0.622600 0.500000 0.637850 -0.495550
O9    O     O_R   0.377400 0.500000 0.362150 -0.487190
O10   O     O_3   0.276979 0.567585 0.031418 -0.598790

loop_
_geom_bond_atom_site_label_1
_geom_bond_atom_site_label_2
_ccdc_geom_bond_type
C15   C18   T    
C11   O3    A    
Cu1   O9    S    
C6    C7    S    
C2    C16   S    
C5    O10   S    
N1    N2    T    
Cu1   O6    S    
C1    O1    A    
Cu1   N2    S    
C10   H6    S    
C17   C18   S    
C12   O8    A    
C7    H10   S    
C8    H14   S    
C13   C14   S    
C4    C11   S    
C13   O9    A    
C16   C17   D    
C8    O2    S    
Cu2   O4    S    
C10   H5    S    
Cu2   O8    S    
C11   O5    A    
C12   C15   S    
C8    H13   S    
C5    C6    S    
C2    C14   T    
C9    H2    S    
C7    H11   S    
C3    C4    T    
Cu1   O5    S    
C13   O7    A    
C6    H9    S    
C5    H1    S    
C17   O10   S    
C9    C10   S    
Cu2   O3    S    
C9    H3    S    
C12   O6    A    
C7    H12   S    
Cu1   O1    S    
C1    O4    A    
C10   H4    S    
C5    H7    S    
Cu2   N1    S    
Cu2   O7    S    
C6    H8    S    
Cu1   Cu2   S    
C16   O2    S    
C8    C9    S    
C1    C3    S    
