data_mof_unit_39023.cif
_audit_creation_date              2012-10-26T19:59:08-0400
_audit_creation_method            fapswitch 2.2
_symmetry_space_group_name_H-M    P1
_symmetry_Int_Tables_number       1
_space_group_crystal_system       triclinic
_cell_length_a                    7.421376
_cell_length_b                    8.69545
_cell_length_c                    15.83387
_cell_angle_alpha                 94.257811
_cell_angle_beta                  74.589591
_cell_angle_gamma                 103.230563
_cell_volume                      958.813512399

loop_
_atom_site_label
_atom_site_type_symbol
_atom_type_description
_atom_site_fract_x
_atom_site_fract_y
_atom_site_fract_z
_atom_type_partial_charge
Br1   Br    Br    0.076699 0.687115 0.258566 -0.518415
Br2   Br    Br    0.923312 0.312849 0.741431 -0.518410
C1    C     C_R   0.545151 0.800217 0.502602 0.551259
C2    C     C_R   0.617859 0.514354 0.333464 0.563218
C3    C     C_R   0.308093 0.465222 0.762317 0.007325
C4    C     C_R   0.691908 0.534771 0.237683 0.007326
C5    C     C_R   0.068986 0.354094 0.891948 -0.099802
C6    C     C_R   0.931029 0.645870 0.108048 -0.099800
C7    C     C_R   0.118999 0.386824 0.802815 0.140670
C8    C     C_R   0.881009 0.613151 0.197183 0.140673
C9    C     C_R   0.439437 0.514906 0.813518 -0.139183
C10   C     C_R   0.560563 0.485094 0.186482 -0.139186
C11   C     C_R   0.392620 0.480012 0.903160 0.027103
C12   C     C_R   0.454848 0.199783 0.497398 0.551261
C13   C     C_R   0.607392 0.519968 0.096836 0.027100
C14   C     C_R   0.203781 0.397271 0.941676 0.008924
C15   C     C_R   0.796236 0.602696 0.058320 0.008926
C16   C     C_R   0.528414 0.521670 0.954975 0.046036
C17   C     C_R   0.471602 0.478304 0.045020 0.046033
C18   C     C_R   0.280815 0.395567 0.080181 -0.109441
C19   C     C_R   0.719209 0.604395 0.919812 -0.109440
C20   C     C_R   0.150516 0.356390 0.029426 -0.127923
C21   C     C_R   0.849508 0.643567 0.970568 -0.127925
C22   C     C_2   0.570572 0.968112 0.503891 -0.136364
C23   C     C_2   0.429427 0.031888 0.496109 -0.136363
C24   C     C_R   0.382141 0.485645 0.666535 0.563218
Cu1   Cu    Cu3+1 0.322120 0.483240 0.490330 1.030345
Cu2   Cu    Cu3+1 0.677880 0.516760 0.509670 1.030345
H1    H     H_    0.005974 0.293170 0.059416 0.122676
H2    H     H_    0.293445 0.960416 0.488730 0.149893
H3    H     H_    0.003534 0.614386 0.569052 0.246822
H4    H     H_    0.996466 0.385614 0.430948 0.246825
H5    H     H_    0.994055 0.706776 0.940576 0.122674
H6    H     H_    0.420113 0.421871 0.219426 0.141935
H7    H     H_    0.579877 0.578155 0.780574 0.141919
H8    H     H_    0.924199 0.291943 0.922315 0.149138
H9    H     H_    0.075821 0.708010 0.077680 0.149138
H10   H     H_    0.225177 0.358233 0.147074 0.131118
H11   H     H_    0.774859 0.641716 0.852916 0.131127
H12   H     H_    0.706555 0.039584 0.511270 0.149893
N1    N     N_2   0.945180 0.542040 0.524240 -0.227988
N2    N     N_2   0.054820 0.457960 0.475760 -0.227986
O1    O     O_R   0.384450 0.714270 0.493720 -0.506035
O2    O     O_R   0.615550 0.285730 0.506280 -0.506035
O3    O     O_R   0.684880 0.742590 0.510050 -0.488455
O4    O     O_R   0.315120 0.257410 0.489950 -0.488454
O5    O     O_R   0.265540 0.477900 0.617090 -0.464358
O6    O     O_R   0.734460 0.522100 0.382910 -0.464355
O7    O     O_R   0.565970 0.506210 0.633420 -0.498500
O8    O     O_R   0.434030 0.493790 0.366580 -0.498500

loop_
_geom_bond_atom_site_label_1
_geom_bond_atom_site_label_2
_ccdc_geom_bond_type
C4    C8    A    
Cu1   O8    S    
C3    C7    A    
C20   H1    S    
C16   C19   A    
C18   H10   S    
C5    H8    S    
C17   C18   A    
C19   H11   S    
C10   C13   A    
C9    H7    S    
C1    O3    A    
C12   O4    A    
C13   C17   A    
C9    C11   A    
Cu1   N2    S    
C1    O1    A    
C1    C22   S    
C15   C21   A    
C24   O5    A    
C11   C16   A    
Cu1   O4    S    
C6    C8    A    
C5    C14   A    
C22   H12   S    
C18   C20   A    
C3    C9    A    
C5    C7    A    
C19   C21   A    
C12   C23   S    
C4    C10   A    
Cu2   O3    S    
C11   C14   A    
C2    C4    S    
C6    H9    S    
C10   H6    S    
C3    C24   S    
Cu1   O1    S    
Cu2   N1    S    
Cu1   Cu2   S    
C2    O6    A    
C22   C23   D    
C12   O2    A    
C16   C17   A    
N1    N2    D    
C24   O7    A    
Cu1   O5    S    
C23   H2    S    
C13   C15   A    
H4    N2    S    
Cu2   O6    S    
C14   C20   A    
H3    N1    S    
Br2   C7    S    
Cu2   O2    S    
Br1   C8    S    
C6    C15   A    
C2    O8    A    
C21   H5    S    
Cu2   O7    S    
