data_mof_unit_16746.cif
_audit_creation_date              2012-12-10T17:47:01-0500
_audit_creation_method            fapswitch 2.2
_symmetry_space_group_name_H-M    P1
_symmetry_Int_Tables_number       1
_space_group_crystal_system       triclinic
_cell_length_a                    9.999995
_cell_length_b                    10.648852
_cell_length_c                    13.517437
_cell_angle_alpha                 91.667169
_cell_angle_beta                  80.703722
_cell_angle_gamma                 88.400083
_cell_volume                      1419.16780606

loop_
_atom_site_label
_atom_site_type_symbol
_atom_type_description
_atom_site_fract_x
_atom_site_fract_y
_atom_site_fract_z
_atom_type_partial_charge
C1    C     C_R   0.498809 0.738975 0.497572 0.864128
C2    C     C_1   0.449959 0.501838 0.791141 -0.202997
C3    C     C_R   0.412090 0.870158 0.332064 -0.191597
C4    C     C_R   0.374676 0.936543 0.252817 -0.151566
C5    C     C_R   0.383485 0.066422 0.252045 -0.139454
C6    C     C_R   0.428136 0.130662 0.331043 -0.169373
C7    C     C_R   0.462601 0.065508 0.413917 0.053706
C8    C     C_R   0.456053 0.934287 0.413632 0.075534
C9    C     C_R   0.496653 0.871323 0.494414 -0.131492
C10   C     C_R   0.543582 0.933802 0.572922 -0.248872
C11   C     C_R   0.549872 0.062610 0.575228 0.163372
C12   C     C_R   0.473463 0.500307 0.685943 0.883822
C13   C     C_R   0.506499 0.127902 0.496203 -0.132060
C14   C     C_R   0.829897 0.689803 0.604261 -0.147168
C15   C     C_R   0.884353 0.800264 0.631765 -0.298695
C16   C     C_R   0.022856 0.805078 0.631275 -0.028696
C17   C     C_R   0.099520 0.689801 0.618099 0.157687
C18   C     C_R   0.056163 0.594819 0.553291 0.121800
C19   C     C_R   0.912954 0.594377 0.550975 0.123790
C20   C     C_R   0.943401 0.406511 0.453214 0.003474
C21   C     C_R   0.085894 0.408488 0.452120 -0.149132
C22   C     C_R   0.501665 0.260872 0.501111 0.880150
C23   C     C_R   0.526743 0.498058 0.314056 0.871079
C24   C     C_1   0.549605 0.493599 0.208918 -0.207364
C25   C     C_2   0.550863 0.493035 0.016724 -0.225848
C26   C     C_2   0.430908 0.506364 0.985286 0.035024
C27   C     C_1   0.435400 0.503586 0.880086 -0.066005
C28   C     C_1   0.558024 0.491504 0.120289 -0.008747
H1    H     H_    0.723890 0.681507 0.628000 0.206873
H2    H     H_    0.817322 0.878545 0.662057 0.155112
H3    H     H_    0.151070 0.333382 0.413544 0.160400
H4    H     H_    0.644878 0.480437 0.963795 0.153205
H5    H     H_    0.573272 0.881164 0.633879 0.132933
H6    H     H_    0.406878 0.768945 0.328243 0.148390
H7    H     H_    0.340026 0.887503 0.191109 0.130722
H8    H     H_    0.356599 0.117573 0.189636 0.139619
H9    H     H_    0.436947 0.231195 0.325433 0.145542
N1    N     N_R   0.857120 0.501200 0.500900 -0.132816
N2    N     N_R   0.142720 0.501280 0.500940 -0.120196
O1    O     O_R   0.385310 0.683220 0.500000 -0.621466
O2    O     O_R   0.614640 0.683250 0.500010 -0.632118
O3    O     O_R   0.368830 0.499960 0.640340 -0.609681
O4    O     O_R   0.598160 0.499980 0.640350 -0.625093
O5    O     O_R   0.385360 0.316750 0.499990 -0.646590
O6    O     O_R   0.614690 0.316780 0.500000 -0.601097
O7    O     O_R   0.401840 0.500020 0.359650 -0.602113
O8    O     O_R   0.631170 0.500040 0.359660 -0.615621
Zn1   Zn    Zn3+2 0.346870 0.499980 0.499990 0.920312
Zn2   Zn    Zn3+2 0.653130 0.500020 0.500010 0.926031
C29   C     C_R   0.297636 0.525855 0.052343 0.165283
C30   C     C_R   0.186332 0.454719 0.035993 -0.171354
C31   C     C_R   0.060183 0.474954 0.097141 -0.149599
C32   C     C_R   0.043903 0.566526 0.174745 -0.115699
C33   C     C_R   0.153570 0.638027 0.191340 -0.129256
C34   C     C_R   0.279416 0.618630 0.129959 -0.139881
H10   H     H_    0.197373 0.383214 0.976310 0.122508
H11   H     H_    0.974985 0.419768 0.084224 0.127067
H12   H     H_    0.946209 0.582823 0.221700 0.129424
H13   H     H_    0.140865 0.709205 0.251242 0.133680
H14   H     H_    0.362515 0.676609 0.142381 0.121757
C35   C     C_R   0.071068 0.919922 0.676441 0.113065
C36   C     C_R   0.019796 0.957086 0.776605 -0.182583
C37   C     C_R   0.052006 0.073172 0.815633 -0.128759
C38   C     C_R   0.131805 0.154634 0.754289 -0.136860
C39   C     C_R   0.180302 0.119360 0.654317 -0.146670
C40   C     C_R   0.151809 0.001874 0.615549 -0.141967
H15   H     H_    0.953011 0.897006 0.823865 0.128679
H16   H     H_    0.012883 0.100976 0.892769 0.126547
H17   H     H_    0.155290 0.245323 0.784063 0.130094
H18   H     H_    0.238143 0.183957 0.606574 0.171272
H19   H     H_    0.187506 0.977166 0.537280 0.144963
C41   C     C_3   0.146941 0.652683 0.715393 -0.308028
C42   C     C_3   0.102580 0.522288 0.751395 -0.843586
H20   H     H_    0.990245 0.521679 0.770031 0.237525
H21   H     H_    0.135815 0.446540 0.694064 0.273999
H22   H     H_    0.145298 0.500847 0.820030 0.241251
H23   H     H_    0.255286 0.671223 0.712121 0.207499
H24   H     H_    0.100639 0.716008 0.779147 0.180148
C43   C     C_3   0.599499 0.125969 0.664197 -0.411853
C44   C     C_3   0.481508 0.172472 0.743770 -0.866360
H25   H     H_    0.521058 0.217282 0.807867 0.251246
H26   H     H_    0.417345 0.242613 0.712546 0.250020
H27   H     H_    0.418922 0.092354 0.771631 0.270054
H28   H     H_    0.662665 0.058799 0.699765 0.193509
H29   H     H_    0.666792 0.204308 0.640891 0.233414
C45   C     C_R   0.890946 0.294749 0.407740 0.171437
C46   C     C_R   0.847475 0.299823 0.314345 -0.089039
C47   C     C_R   0.802445 0.191614 0.270528 -0.177401
C48   C     C_R   0.803665 0.077188 0.318609 -0.104348
C49   C     C_R   0.850097 0.070743 0.410513 -0.130706
C50   C     C_R   0.893967 0.179002 0.454928 -0.175141
H30   H     H_    0.849332 0.386842 0.275155 0.126052
H31   H     H_    0.767413 0.196325 0.199007 0.131222
H32   H     H_    0.768683 0.993552 0.284662 0.138071
H33   H     H_    0.851424 0.982072 0.447597 0.150504
H34   H     H_    0.929797 0.172844 0.526162 0.131953

loop_
_geom_bond_atom_site_label_1
_geom_bond_atom_site_label_2
_ccdc_geom_bond_type
C8    C9    A    
C7    C13   A    
C46   C47   A    
C42   H20   S    
C2    C12   S    
C7    C8    A    
O8    Zn2   S    
N1    Zn2   S    
C32   C33   A    
C25   C28   S    
C21   H3    S    
C26   C27   S    
C36   C37   A    
C36   H15   S    
C18   C19   A    
C12   O4    A    
C45   C50   A    
C26   C29   S    
C5    C6    A    
C39   H18   S    
C5    H8    S    
C30   H10   S    
C48   H32   S    
C12   O3    A    
C1    O1    A    
C50   H34   S    
C47   H31   S    
C35   C40   A    
C22   O5    A    
C16   C17   A    
C20   C45   S    
C41   H24   S    
C23   C24   S    
C2    C27   T    
C9    C10   A    
C25   H4    S    
C4    H7    S    
C23   O7    A    
C46   H30   S    
C42   H21   S    
C44   H27   S    
O2    Zn2   S    
C29   C30   A    
C33   H13   S    
O7    Zn1   S    
C23   O8    A    
C30   C31   A    
C49   H33   S    
C1    C9    S    
C44   H26   S    
C3    C8    A    
C31   H11   S    
C45   C46   A    
C44   H25   S    
C3    H6    S    
C25   C26   D    
C43   C44   S    
C18   N2    A    
C41   H23   S    
C19   N1    A    
C20   N1    A    
C40   H19   S    
C21   N2    A    
O6    Zn2   S    
C17   C18   A    
C6    H9    S    
O3    Zn1   S    
C38   H17   S    
C20   C21   A    
C11   C43   S    
C1    O2    A    
C42   H22   S    
C16   C35   S    
C14   H1    S    
C3    C4    A    
C43   H29   S    
C31   C32   A    
C15   H2    S    
O1    Zn1   S    
C33   C34   A    
C14   C19   A    
O4    Zn2   S    
C24   C28   T    
C41   C42   S    
C32   H12   S    
C6    C7    A    
C37   H16   S    
C29   C34   A    
C38   C39   A    
C11   C13   A    
C49   C50   A    
C43   H28   S    
C13   C22   S    
C10   H5    S    
C35   C36   A    
C10   C11   A    
C37   C38   A    
O5    Zn1   S    
C4    C5    A    
C22   O6    A    
C47   C48   A    
C17   C41   S    
C39   C40   A    
C14   C15   A    
C48   C49   A    
C34   H14   S    
C15   C16   A    
N2    Zn1   S    
