data_mof_unit_21404.cif
_audit_creation_date              2012-12-10T16:37:55-0500
_audit_creation_method            fapswitch 2.2
_symmetry_space_group_name_H-M    P1
_symmetry_Int_Tables_number       1
_space_group_crystal_system       triclinic
_cell_length_a                    28.097796
_cell_length_b                    18.57606
_cell_length_c                    16.830794
_cell_angle_alpha                 90.023533
_cell_angle_beta                  60.989659
_cell_angle_gamma                 89.992689
_cell_volume                      7682.56420759

loop_
_atom_site_label
_atom_site_type_symbol
_atom_type_description
_atom_site_fract_x
_atom_site_fract_y
_atom_site_fract_z
_atom_type_partial_charge
C1    C     C_R   0.700254 0.264757 0.677369 0.900784
C2    C     C_R   0.299378 0.734549 0.322696 0.932254
C3    C     C_R   0.299454 0.265321 0.322697 0.898630
C4    C     C_R   0.700568 0.734653 0.677316 0.914509
C5    C     C_R   0.200357 0.764961 0.677339 0.898098
C6    C     C_R   0.799367 0.234533 0.322681 0.909837
C7    C     C_R   0.799588 0.765061 0.322653 0.883245
C8    C     C_R   0.200536 0.234691 0.677297 0.925595
C9    C     C_R   0.902713 0.504206 0.493369 -0.056059
C10   C     C_R   0.088863 0.499376 0.533356 -0.047303
C11   C     C_R   0.404340 0.998106 0.487637 -0.048464
C12   C     C_R   0.595385 0.998123 0.513155 -0.048222
C13   C     C_R   0.097416 0.373413 0.488000 0.556249
C14   C     C_R   0.922286 0.630330 0.449813 0.561382
C15   C     C_R   0.883678 0.381430 0.549392 0.570081
C16   C     C_R   0.074527 0.625347 0.578196 0.552926
C17   C     C_R   0.608160 0.873159 0.463321 0.558105
C18   C     C_R   0.422537 0.122987 0.438703 0.555341
C19   C     C_R   0.391424 0.873230 0.537684 0.558748
C20   C     C_R   0.577368 0.123154 0.561627 0.554492
C21   C     C_R   0.715606 0.258250 0.959233 -0.147908
C22   C     C_R   0.281579 0.737102 0.042553 -0.137508
C23   C     C_R   0.282484 0.261591 0.042058 -0.143183
C24   C     C_R   0.717878 0.738212 0.957795 -0.137695
C25   C     C_R   0.215910 0.758792 0.959083 -0.146777
C26   C     C_R   0.781370 0.236641 0.042589 -0.138010
C27   C     C_R   0.783551 0.759934 0.041234 -0.146308
C28   C     C_R   0.216922 0.239745 0.958468 -0.138010
C29   C     C_R   0.762514 0.214028 0.916526 -0.085161
C30   C     C_R   0.234335 0.780709 0.085565 -0.074157
C31   C     C_R   0.235153 0.218224 0.085169 -0.089336
C32   C     C_R   0.764827 0.782346 0.915119 -0.074847
C33   C     C_R   0.262963 0.714871 0.916232 -0.092633
C34   C     C_R   0.734317 0.280616 0.085354 -0.072217
C35   C     C_R   0.736629 0.715816 0.083867 -0.091020
C36   C     C_R   0.264132 0.283351 0.915466 -0.073847
C37   C     C_R   0.798087 0.207722 0.954843 0.002652
C38   C     C_R   0.198867 0.786937 0.047163 0.006581
C39   C     C_R   0.199723 0.212012 0.046721 0.004323
C40   C     C_R   0.800325 0.788716 0.953499 0.003233
C41   C     C_R   0.298498 0.708668 0.954575 0.004379
C42   C     C_R   0.698789 0.286849 0.047060 0.002938
C43   C     C_R   0.701077 0.709628 0.045608 0.002373
C44   C     C_R   0.299571 0.289685 0.953935 0.003582
C45   C     C_R   0.636478 0.313253 0.957698 -0.038500
C46   C     C_R   0.361580 0.684005 0.043248 -0.041454
C47   C     C_R   0.362272 0.315005 0.043002 -0.040849
C48   C     C_R   0.638162 0.684436 0.956849 -0.041957
C49   C     C_R   0.136695 0.813555 0.957614 -0.035694
C50   C     C_R   0.861372 0.183622 0.043384 -0.042613
C51   C     C_R   0.862887 0.814224 0.042725 -0.042324
C52   C     C_R   0.137429 0.185517 0.957299 -0.041317
C53   C     C_R   0.611830 0.338771 0.905630 -0.067292
C54   C     C_R   0.387063 0.659916 0.094760 -0.062868
C55   C     C_R   0.387452 0.339632 0.094690 -0.065971
C56   C     C_R   0.612831 0.660036 0.905245 -0.063874
C57   C     C_R   0.112011 0.839002 0.905548 -0.066837
C58   C     C_R   0.886972 0.159785 0.094808 -0.064858
C59   C     C_R   0.887782 0.839282 0.094608 -0.068207
C60   C     C_R   0.112496 0.160432 0.905385 -0.064065
C61   C     C_R   0.631117 0.316457 0.817277 -0.309143
C62   C     C_R   0.367977 0.682551 0.182842 -0.290774
C63   C     C_R   0.368252 0.317195 0.182897 -0.300723
C64   C     C_R   0.631955 0.682563 0.817113 -0.300839
C65   C     C_R   0.131389 0.816835 0.817141 -0.307318
C66   C     C_R   0.867949 0.182542 0.182819 -0.291570
C67   C     C_R   0.868499 0.816961 0.182902 -0.299437
C68   C     C_R   0.131850 0.182583 0.817032 -0.291530
C69   C     C_R   0.675285 0.271007 0.776494 -0.061448
C70   C     C_R   0.323392 0.727170 0.223925 -0.046076
C71   C     C_R   0.323734 0.272428 0.223889 -0.052997
C72   C     C_R   0.676413 0.727400 0.776129 -0.046253
C73   C     C_R   0.175615 0.771503 0.776333 -0.056146
C74   C     C_R   0.823330 0.227089 0.223904 -0.049249
C75   C     C_R   0.824207 0.771767 0.223693 -0.053450
C76   C     C_R   0.176198 0.227637 0.776129 -0.046843
C77   C     C_R   0.700084 0.243561 0.827719 -0.128307
C78   C     C_R   0.297476 0.752955 0.173586 -0.104469
C79   C     C_R   0.298094 0.246250 0.173350 -0.123980
C80   C     C_R   0.702083 0.753581 0.826649 -0.104179
C81   C     C_R   0.200578 0.744274 0.827403 -0.129653
C82   C     C_R   0.797367 0.252749 0.173558 -0.101171
C83   C     C_R   0.799096 0.744838 0.172674 -0.127406
C84   C     C_R   0.201604 0.254267 0.826817 -0.105000
C85   C     C_R   0.693584 0.128351 0.527118 0.960284
C86   C     C_R   0.299978 0.871318 0.492547 0.934959
C87   C     C_R   0.306403 0.128334 0.472920 0.963844
C88   C     C_R   0.699919 0.871333 0.507709 0.932819
C89   C     C_R   0.193135 0.628623 0.528798 0.969247
C90   C     C_R   0.804824 0.372358 0.478324 0.940007
C91   C     C_R   0.808960 0.629696 0.464895 0.932443
C92   C     C_R   0.197585 0.371805 0.513585 0.926260
C93   C     C_R   0.684455 0.272435 0.914489 -0.111392
C94   C     C_R   0.313053 0.723722 0.086976 -0.097694
C95   C     C_R   0.313810 0.275208 0.086628 -0.100440
C96   C     C_R   0.686531 0.724457 0.913253 -0.100432
C97   C     C_R   0.184828 0.773033 0.914263 -0.104632
C98   C     C_R   0.812867 0.223355 0.087037 -0.098011
C99   C     C_R   0.814731 0.773845 0.086001 -0.104863
C100  C     C_R   0.185776 0.225610 0.913726 -0.097168
C101  C     C_R   0.613091 0.321892 0.052587 0.467962
C102  C     C_R   0.384703 0.675312 0.948349 0.469707
C103  C     C_R   0.385601 0.323388 0.948076 0.467917
C104  C     C_R   0.615007 0.675787 0.051736 0.470123
C105  C     C_R   0.113149 0.821789 0.052620 0.461820
C106  C     C_R   0.884317 0.174491 0.948615 0.466687
C107  C     C_R   0.886160 0.823003 0.947930 0.468489
C108  C     C_R   0.113882 0.177565 0.052376 0.467698
C109  C     C_R   0.644399 0.312876 0.097207 0.438782
C110  C     C_R   0.353069 0.683399 0.904151 0.427984
C111  C     C_R   0.354142 0.314960 0.903630 0.437683
C112  C     C_R   0.646585 0.684129 0.095984 0.428511
C113  C     C_R   0.144336 0.812389 0.097437 0.437225
C114  C     C_R   0.852517 0.181775 0.904687 0.426241
C115  C     C_R   0.854663 0.814951 0.903554 0.438938
C116  C     C_R   0.145072 0.187170 0.097192 0.433298
C117  C     C_R   0.737572 0.185930 0.799117 0.558123
C118  C     C_R   0.259562 0.810183 0.202161 0.526179
C119  C     C_R   0.260232 0.189004 0.201947 0.537347
C120  C     C_R   0.739627 0.811182 0.798322 0.523857
C121  C     C_R   0.237992 0.686501 0.798971 0.543631
C122  C     C_R   0.759564 0.310076 0.201947 0.508818
C123  C     C_R   0.761661 0.687138 0.200924 0.529142
C124  C     C_R   0.239270 0.311750 0.798219 0.523526
C125  C     C_R   0.768056 0.171437 0.842819 0.603181
C126  C     C_R   0.228484 0.823471 0.159268 0.572410
C127  C     C_R   0.229143 0.175677 0.159080 0.583657
C128  C     C_R   0.770356 0.825162 0.841681 0.568323
C129  C     C_R   0.268673 0.672298 0.842420 0.592059
C130  C     C_R   0.728682 0.323588 0.158771 0.572168
C131  C     C_R   0.731032 0.673035 0.157389 0.592233
C132  C     C_R   0.270033 0.325743 0.841504 0.572480
C133  C     C_R   0.072143 0.102691 0.936386 0.957955
C134  C     C_R   0.927915 0.897269 0.063619 0.954584
C135  C     C_R   0.927674 0.102502 0.063753 0.957297
C136  C     C_R   0.071982 0.897156 0.936470 0.956652
C137  C     C_R   0.572279 0.602554 0.936283 0.952984
C138  C     C_R   0.427844 0.397321 0.063641 0.955335
C139  C     C_R   0.427715 0.602552 0.063716 0.957197
C140  C     C_R   0.571951 0.397123 0.936482 0.951135
C141  C     C_R   0.539729 0.127556 0.528933 -0.179459
C142  C     C_R   0.446137 0.868689 0.515507 -0.197095
C143  C     C_R   0.460128 0.127482 0.471490 -0.179741
C144  C     C_R   0.553397 0.868655 0.485827 -0.196847
C145  C     C_R   0.035206 0.630770 0.549098 -0.177952
C146  C     C_R   0.936106 0.375176 0.538382 -0.195464
C147  C     C_R   0.956782 0.633285 0.488950 -0.198450
C148  C     C_R   0.041813 0.371163 0.515590 -0.199661
C149  C     C_R   0.519335 0.193593 0.515627 0.419509
C150  C     C_R   0.472403 0.802512 0.510129 0.431494
C151  C     C_R   0.480674 0.193551 0.484382 0.420947
C152  C     C_R   0.527088 0.802493 0.491385 0.430139
C153  C     C_R   0.015851 0.697427 0.535205 0.429488
C154  C     C_R   0.959566 0.308201 0.539705 0.438768
C155  C     C_R   0.977586 0.698646 0.503228 0.413656
C156  C     C_R   0.013528 0.306044 0.524530 0.426610
C157  C     C_R   0.478060 0.063227 0.491277 -0.073024
C158  C     C_R   0.524949 0.933095 0.499222 -0.069877
C159  C     C_R   0.521651 0.063244 0.509548 -0.072849
C160  C     C_R   0.474609 0.933105 0.502076 -0.070049
C161  C     C_R   0.972431 0.568391 0.511580 -0.071660
C162  C     C_R   0.015143 0.436674 0.526497 -0.068496
C163  C     C_R   0.015249 0.566939 0.532067 -0.072950
C164  C     C_R   0.965727 0.438512 0.525984 -0.070366
C165  C     C_R   0.946639 0.503973 0.511033 0.066847
C166  C     C_R   0.039256 0.500936 0.532334 0.066659
C167  C     C_R   0.452554 0.998144 0.492890 0.067407
C168  C     C_R   0.547091 0.998149 0.508146 0.067419
C169  C     C_R   0.871751 0.440983 0.508232 -0.150946
C170  C     C_R   0.108875 0.562731 0.552685 -0.148643
C171  C     C_R   0.119363 0.435225 0.510293 -0.136136
C172  C     C_R   0.889393 0.567614 0.462858 -0.128663
C173  C     C_R   0.372996 0.934969 0.509511 -0.134069
C174  C     C_R   0.612624 0.061453 0.537808 -0.146994
C175  C     C_R   0.626708 0.934945 0.491257 -0.134616
C176  C     C_R   0.387229 0.061366 0.462651 -0.146324
C177  C     C_R   0.832532 0.438781 0.477643 -0.222424
C178  C     C_R   0.164408 0.562886 0.533900 -0.206244
C179  C     C_R   0.170875 0.436559 0.507441 -0.186022
C180  C     C_R   0.842773 0.565933 0.449813 -0.230648
C181  C     C_R   0.324219 0.936407 0.504152 -0.184479
C182  C     C_R   0.666624 0.062278 0.526595 -0.207925
C183  C     C_R   0.675594 0.936399 0.496291 -0.185168
C184  C     C_R   0.333289 0.062234 0.473630 -0.209856
C185  C     C_R   0.821477 0.500460 0.442170 0.395398
C186  C     C_R   0.196797 0.501211 0.500766 0.421183
C187  C     C_R   0.299835 0.001205 0.505240 0.419765
C188  C     C_R   0.700035 0.001184 0.495002 0.421356
H1    H     H_    0.613133 0.338046 0.778018 0.198125
H2    H     H_    0.386644 0.662079 0.221599 0.186082
H3    H     H_    0.386724 0.337986 0.221811 0.194376
H4    H     H_    0.613425 0.661852 0.778252 0.189276
H5    H     H_    0.113349 0.838332 0.777917 0.196815
H6    H     H_    0.886691 0.162211 0.221523 0.188452
H7    H     H_    0.886670 0.838232 0.222048 0.193905
H8    H     H_    0.113600 0.161406 0.777959 0.186439
O1    O     O_R   0.746490 0.236330 0.638080 -0.541244
O2    O     O_R   0.253510 0.763670 0.361920 -0.583022
O3    O     O_R   0.253510 0.236330 0.361920 -0.558692
O4    O     O_R   0.746490 0.763670 0.638080 -0.585092
O5    O     O_R   0.246490 0.736330 0.638080 -0.550891
O6    O     O_R   0.753510 0.263670 0.361920 -0.582302
O7    O     O_R   0.753510 0.736330 0.361920 -0.547024
O8    O     O_R   0.246490 0.263670 0.638080 -0.584653
O9    O     O_R   0.674170 0.186160 0.516270 -0.600128
O10   O     O_R   0.325830 0.813840 0.483730 -0.595418
O11   O     O_R   0.325830 0.186160 0.483730 -0.597915
O12   O     O_R   0.674170 0.813840 0.516270 -0.595826
O13   O     O_R   0.174170 0.686160 0.516270 -0.602499
O14   O     O_R   0.825830 0.313840 0.483730 -0.608830
O15   O     O_R   0.825830 0.686160 0.483730 -0.605375
O16   O     O_R   0.174170 0.313840 0.516270 -0.589315
O17   O     O_R   0.739960 0.127620 0.525000 -0.605614
O18   O     O_R   0.260040 0.872380 0.475000 -0.626517
O19   O     O_R   0.260040 0.127620 0.475000 -0.603368
O20   O     O_R   0.739960 0.872380 0.525000 -0.625399
O21   O     O_R   0.239960 0.627620 0.525000 -0.607465
O22   O     O_R   0.760040 0.372380 0.475000 -0.552431
O23   O     O_R   0.760040 0.627620 0.475000 -0.555319
O24   O     O_R   0.239960 0.372380 0.525000 -0.623398
O25   O     O_R   0.680700 0.294870 0.629350 -0.632095
O26   O     O_R   0.319300 0.705130 0.370650 -0.652249
O27   O     O_R   0.319300 0.294870 0.370650 -0.639005
O28   O     O_R   0.680700 0.705130 0.629350 -0.648664
O29   O     O_R   0.180700 0.794870 0.629350 -0.638912
O30   O     O_R   0.819300 0.205130 0.370650 -0.654757
O31   O     O_R   0.819300 0.794870 0.370650 -0.644920
O32   O     O_R   0.180700 0.205130 0.629350 -0.649641
O33   O     O_R   0.062020 0.072840 0.007170 -0.584569
O34   O     O_R   0.937980 0.927160 0.992830 -0.586221
O35   O     O_R   0.937980 0.072840 0.992830 -0.585515
O36   O     O_R   0.062020 0.927160 0.007170 -0.584894
O37   O     O_R   0.562020 0.572840 0.007170 -0.585705
O38   O     O_R   0.437980 0.427160 0.992830 -0.585589
O39   O     O_R   0.437980 0.572840 0.992830 -0.585184
O40   O     O_R   0.562020 0.427160 0.007170 -0.586602
O41   O     O_R   0.947860 0.073950 0.109290 -0.617975
O42   O     O_R   0.052140 0.926050 0.890710 -0.615776
O43   O     O_R   0.052140 0.073950 0.890710 -0.619311
O44   O     O_R   0.947860 0.926050 0.109290 -0.616960
O45   O     O_R   0.447860 0.573950 0.109290 -0.619040
O46   O     O_R   0.552140 0.426050 0.890710 -0.615467
O47   O     O_R   0.552140 0.573950 0.890710 -0.617915
O48   O     O_R   0.447860 0.426050 0.109290 -0.616330
Zn1   Zn    Zn3+2 0.792340 0.208750 0.507670 1.043513
Zn2   Zn    Zn3+2 0.207660 0.791250 0.492330 1.019786
Zn3   Zn    Zn3+2 0.207660 0.208750 0.492330 1.062231
Zn4   Zn    Zn3+2 0.792340 0.791250 0.507670 1.018508
Zn5   Zn    Zn3+2 0.292340 0.708750 0.507670 1.054256
Zn6   Zn    Zn3+2 0.707660 0.291250 0.492330 1.071537
Zn7   Zn    Zn3+2 0.707660 0.708750 0.492330 1.095686
Zn8   Zn    Zn3+2 0.292340 0.291250 0.507670 1.023473
Zn9   Zn    Zn3+2 0.505960 0.500000 0.080520 1.011386
Zn10  Zn    Zn3+2 0.494040 0.500000 0.919480 1.018199
Zn11  Zn    Zn3+2 0.005960 0.000000 0.080520 1.013330
Zn12  Zn    Zn3+2 0.994040 0.000000 0.919480 1.012218
O49   O     O_3   0.037798 0.240125 0.519238 -0.567367
C189  C     C_3   0.033203 0.224691 0.604716 -0.189222
H9    H     H_    0.990081 0.226582 0.659840 0.183106
H10   H     H_    0.058414 0.262112 0.620452 0.162887
H11   H     H_    0.048537 0.169357 0.602930 0.160951
O50   O     O_3   0.960575 0.764290 0.487231 -0.578457
C190  C     C_3   0.912179 0.784166 0.565801 -0.158004
H12   H     H_    0.918149 0.786750 0.626405 0.183033
H13   H     H_    0.878322 0.746633 0.578780 0.162789
H14   H     H_    0.900002 0.838599 0.555223 0.171601
O51   O     O_3   0.930963 0.244751 0.552489 -0.544209
C191  C     C_3   0.942241 0.217680 0.466787 -0.179612
H15   H     H_    0.985844 0.202463 0.425434 0.162462
H16   H     H_    0.930778 0.256858 0.428908 0.148406
H17   H     H_    0.917614 0.168378 0.477270 0.161881
O52   O     O_3   0.035251 0.761721 0.549784 -0.567384
C192  C     C_3   0.080262 0.783636 0.467266 -0.144581
H18   H     H_    0.068004 0.795565 0.414960 0.170258
H19   H     H_    0.113295 0.742613 0.441121 0.155199
H20   H     H_    0.097072 0.833844 0.479558 0.164273
O53   O     O_3   0.553892 0.737747 0.480496 -0.557348
C193  C     C_3   0.546287 0.715539 0.565980 -0.176591
H21   H     H_    0.502435 0.706987 0.614973 0.166408
H22   H     H_    0.564198 0.754786 0.594068 0.157555
H23   H     H_    0.567483 0.663405 0.557520 0.168273
O54   O     O_3   0.462327 0.258420 0.469097 -0.572568
C194  C     C_3   0.416390 0.280097 0.550528 -0.150146
H24   H     H_    0.426812 0.288464 0.605751 0.177237
H25   H     H_    0.382551 0.240588 0.572479 0.156492
H26   H     H_    0.401602 0.332191 0.538597 0.168162
O55   O     O_3   0.445554 0.737790 0.521225 -0.556723
C195  C     C_3   0.453210 0.715259 0.435796 -0.183145
H27   H     H_    0.497053 0.706326 0.387020 0.167674
H28   H     H_    0.435528 0.754493 0.407319 0.159246
H29   H     H_    0.431826 0.663260 0.444492 0.159833
O56   O     O_3   0.537924 0.258504 0.530292 -0.572732
C196  C     C_3   0.583957 0.279538 0.448662 -0.143174
H30   H     H_    0.573651 0.287279 0.393218 0.175911
H31   H     H_    0.617709 0.239940 0.427342 0.154420
H32   H     H_    0.598809 0.331815 0.459967 0.175919
O57   O     O_3   0.785218 0.498036 0.408496 -0.568740
C197  C     C_3   0.815179 0.501126 0.312863 -0.052798
H33   H     H_    0.843896 0.454931 0.284756 0.118230
H34   H     H_    0.837495 0.553014 0.289129 0.123156
H35   H     H_    0.786372 0.497550 0.285623 0.270594
O58   O     O_3   0.250607 0.508029 0.431130 -0.631854
C198  C     C_3   0.289300 0.500201 0.461587 -0.133772
H36   H     H_    0.314437 0.451622 0.430034 0.168776
H37   H     H_    0.271351 0.497937 0.536943 0.190386
H38   H     H_    0.318097 0.546160 0.436020 0.167257
O59   O     O_3   0.244927 0.009398 0.569638 -0.630161
C199  C     C_3   0.209451 0.000241 0.532797 -0.122443
H39   H     H_    0.230400 0.997476 0.457114 0.190538
H40   H     H_    0.180392 0.045963 0.554720 0.166995
H41   H     H_    0.184080 0.951581 0.562668 0.165535
O60   O     O_3   0.754934 0.009231 0.430498 -0.629264
C200  C     C_3   0.790468 0.000189 0.467248 -0.123977
H42   H     H_    0.815868 0.951524 0.437358 0.166297
H43   H     H_    0.769565 0.997500 0.542929 0.191226
H44   H     H_    0.819505 0.045912 0.445251 0.164139
O61   O     O_3   0.129841 0.321376 0.426195 -0.539670
C201  C     C_3   0.157811 0.352221 0.338752 -0.216540
H45   H     H_    0.189732 0.390276 0.333526 0.146001
H46   H     H_    0.129426 0.379519 0.319827 0.149784
H47   H     H_    0.178469 0.308592 0.288660 0.183058
O62   O     O_3   0.924689 0.686379 0.393636 -0.550839
C202  C     C_3   0.954368 0.663605 0.302464 -0.230616
H48   H     H_    0.932353 0.620732 0.287208 0.127395
H49   H     H_    0.995901 0.644952 0.285560 0.162194
H50   H     H_    0.959140 0.710109 0.257849 0.215855
O63   O     O_3   0.843903 0.335290 0.609970 -0.536047
C203  C     C_3   0.808472 0.374485 0.688544 -0.257781
H51   H     H_    0.779396 0.406843 0.676251 0.139253
H52   H     H_    0.830795 0.409653 0.713164 0.149546
H53   H     H_    0.784737 0.335945 0.743817 0.182653
O64   O     O_3   0.078048 0.680728 0.630410 -0.547941
C204  C     C_3   0.065581 0.653938 0.716746 -0.218529
H54   H     H_    0.098015 0.617365 0.712601 0.138717
H55   H     H_    0.025383 0.626246 0.750032 0.157494
H56   H     H_    0.063136 0.700015 0.760537 0.207103
O65   O     O_3   0.643698 0.822437 0.403571 -0.539876
C205  C     C_3   0.672307 0.853761 0.316496 -0.222899
H57   H     H_    0.703353 0.892502 0.313268 0.146174
H58   H     H_    0.644493 0.880405 0.295744 0.151926
H59   H     H_    0.693860 0.810636 0.266411 0.179131
O66   O     O_3   0.423055 0.177181 0.381637 -0.548540
C206  C     C_3   0.439413 0.148294 0.294666 -0.219807
H60   H     H_    0.407932 0.111692 0.295334 0.139198
H61   H     H_    0.479227 0.119938 0.267266 0.157427
H62   H     H_    0.444636 0.193265 0.247754 0.209962
O67   O     O_3   0.355801 0.822503 0.597158 -0.540108
C207  C     C_3   0.327091 0.853746 0.684310 -0.224568
H63   H     H_    0.296166 0.892681 0.687461 0.146627
H64   H     H_    0.354849 0.880143 0.705371 0.152471
H65   H     H_    0.305385 0.810607 0.734207 0.177829
O68   O     O_3   0.576950 0.177538 0.618446 -0.548674
C208  C     C_3   0.560787 0.148906 0.705440 -0.219333
H66   H     H_    0.592364 0.112432 0.704683 0.139245
H67   H     H_    0.520996 0.120489 0.733113 0.157573
H68   H     H_    0.555607 0.194028 0.752181 0.210061
F1    F     F_    0.558127 0.326930 0.103728 -0.667841
F2    F     F_    0.439690 0.671746 0.896673 -0.667794
F3    F     F_    0.440598 0.327400 0.896693 -0.666759
F4    F     F_    0.560026 0.671995 0.103334 -0.668025
F5    F     F_    0.058165 0.826666 0.103531 -0.676279
F6    F     F_    0.939296 0.171232 0.896570 -0.671882
F7    F     F_    0.941145 0.827341 0.896476 -0.666062
F8    F     F_    0.058892 0.173082 0.103290 -0.670925
O69   O     O_3   0.619513 0.314646 0.191716 -0.597539
C209  C     C_3   0.587733 0.377567 0.228103 -0.057556
H69   H     H_    0.544333 0.366024 0.250234 0.194238
H70   H     H_    0.602213 0.424404 0.180738 0.135350
H71   H     H_    0.589983 0.393716 0.289649 0.170686
O70   O     O_3   0.377887 0.682007 0.809669 -0.579113
C210  C     C_3   0.409059 0.618654 0.773246 -0.047383
H72   H     H_    0.392737 0.571227 0.819331 0.136352
H73   H     H_    0.452208 0.628268 0.754442 0.158307
H74   H     H_    0.408487 0.604794 0.709588 0.193990
O71   O     O_3   0.379015 0.316424 0.809127 -0.598072
C211  C     C_3   0.411019 0.379103 0.772545 -0.056999
H75   H     H_    0.454368 0.367293 0.750554 0.195683
H76   H     H_    0.396668 0.426092 0.819734 0.134998
H77   H     H_    0.408882 0.395149 0.710880 0.169508
O72   O     O_3   0.621767 0.682776 0.190472 -0.578105
C212  C     C_3   0.590629 0.619437 0.226894 -0.047848
H78   H     H_    0.606932 0.571986 0.180768 0.136449
H79   H     H_    0.547462 0.629076 0.245806 0.156529
H80   H     H_    0.591267 0.605598 0.290490 0.195672
O73   O     O_3   0.119304 0.812899 0.191995 -0.599203
C213  C     C_3   0.086869 0.875083 0.229748 -0.056352
H81   H     H_    0.043630 0.862972 0.251236 0.190009
H82   H     H_    0.101023 0.922665 0.183578 0.140640
H83   H     H_    0.088741 0.890301 0.291906 0.169557
O74   O     O_3   0.877273 0.178573 0.810317 -0.573123
C214  C     C_3   0.906670 0.113567 0.776413 -0.052202
H84   H     H_    0.888234 0.067133 0.823526 0.137783
H85   H     H_    0.949776 0.120529 0.759352 0.152457
H86   H     H_    0.906821 0.099771 0.712148 0.197236
O75   O     O_3   0.879408 0.818207 0.809164 -0.601617
C215  C     C_3   0.910759 0.881680 0.774511 -0.063010
H87   H     H_    0.954286 0.870274 0.751544 0.198212
H88   H     H_    0.896206 0.927585 0.823367 0.132021
H89   H     H_    0.908110 0.899265 0.713806 0.169219
O76   O     O_3   0.119986 0.187921 0.191760 -0.586745
C216  C     C_3   0.087161 0.126315 0.230778 -0.051177
H90   H     H_    0.101467 0.077900 0.185996 0.139753
H91   H     H_    0.044095 0.138429 0.250998 0.162342
H92   H     H_    0.088340 0.112622 0.293957 0.188406
F9    F     F_    0.739703 0.136995 0.737498 -0.607465
F10   F     F_    0.257823 0.860354 0.262234 -0.606378
F11   F     F_    0.258374 0.139086 0.262319 -0.603536
F12   F     F_    0.741246 0.861024 0.738046 -0.605687
F13   F     F_    0.240088 0.637416 0.737534 -0.604929
F14   F     F_    0.757762 0.360141 0.262128 -0.630464
F15   F     F_    0.759428 0.638023 0.262322 -0.627022
F16   F     F_    0.241082 0.361382 0.737584 -0.607327
F17   F     F_    0.796697 0.109116 0.821034 -0.609407
F18   F     F_    0.198756 0.884957 0.181851 -0.614687
F19   F     F_    0.199092 0.114492 0.182104 -0.608678
F20   F     F_    0.799198 0.887341 0.819990 -0.613199
F21   F     F_    0.298000 0.610501 0.819931 -0.607232
F22   F     F_    0.699440 0.385470 0.180730 -0.619165
F23   F     F_    0.701805 0.611184 0.179574 -0.612591
F24   F     F_    0.299405 0.387497 0.819053 -0.613461

loop_
_geom_bond_atom_site_label_1
_geom_bond_atom_site_label_2
_ccdc_geom_bond_type
C214  H86   S    
C132  F24   S    
O19   Zn3   S    
C85   C182  S    
C136  O42   A    
C9    C169  A    
C34   C42   A    
C131  F23   S    
O4    Zn4   S    
O65   C205  S    
C181  C187  A    
C129  F21   S    
C62   H2    S    
O32   Zn3   S    
C204  H54   S    
C27   C99   A    
O54   C194  S    
C170  C178  A    
C175  C183  A    
C42   C109  A    
C215  H88   S    
C24   C96   A    
C192  H20   S    
C30   C38   A    
C1    O25   A    
C7    O7    A    
O28   Zn7   S    
O31   Zn4   S    
C211  H76   S    
O52   C192  S    
C125  F17   S    
O40   Zn9   S    
C147  C155  A    
O11   Zn8   S    
C211  H77   S    
C143  C151  A    
C90   C177  S    
C11   C167  A    
C82   C98   A    
C76   C84   A    
C88   O12   A    
C73   C81   A    
C161  C163  A    
C17   O65   S    
C114  O74   S    
C137  O47   A    
C19   O67   S    
C202  H48   S    
C84   C100  A    
C195  H29   S    
C8    O8    A    
C198  H37   S    
C121  C129  A    
O66   C206  S    
C37   C114  A    
C27   C35   A    
C10   C171  A    
C21   C29   A    
C135  O41   A    
C81   C121  A    
C23   C31   A    
C213  H82   S    
C24   C32   A    
C198  H36   S    
C146  C154  A    
C208  H67   S    
O68   C208  S    
C123  F15   S    
O35   Zn12  S    
C121  F13   S    
C203  H52   S    
C191  H16   S    
O24   Zn8   S    
C139  O39   A    
C212  H78   S    
C36   C44   A    
C213  H83   S    
C197  H33   S    
O30   Zn1   S    
C12   C174  A    
C204  H56   S    
C176  C184  A    
C48   C96   A    
C201  H47   S    
O39   Zn10  S    
C200  H44   S    
O71   C211  S    
O20   Zn4   S    
C148  C162  A    
O69   C209  S    
C108  C116  A    
C7    O31   A    
C78   C94   A    
O1    Zn1   S    
C207  H63   S    
C23   C95   A    
C126  F18   S    
C119  F11   S    
C120  F12   S    
C152  O53   S    
C49   C97   A    
C21   C42   A    
C22   C41   A    
O25   Zn6   S    
C51   C107  A    
C24   C43   A    
C106  F6    S    
C183  C188  A    
O13   Zn2   S    
C82   C122  A    
C161  C165  A    
C17   C175  A    
C195  H28   S    
O72   C212  S    
C18   C176  A    
O27   Zn8   S    
C29   C125  A    
C69   C77   A    
C31   C127  A    
C45   C93   A    
C174  C182  A    
C71   C79   A    
C216  H90   S    
C8    O32   A    
C85   O9    A    
C179  C186  A    
C62   C70   A    
C11   C176  A    
C21   C93   A    
C17   C144  A    
C105  C113  A    
C18   C143  A    
C78   C118  A    
C149  C151  A    
C5    O5    A    
C200  H43   S    
C66   C74   A    
C127  F19   S    
C8    C76   S    
C49   C57   A    
O60   C200  S    
C128  F20   S    
O49   C189  S    
C101  F1    S    
O9    Zn6   S    
C52   C60   A    
C59   C67   A    
C53   C61   A    
C141  C159  A    
C20   C174  A    
C5    O29   A    
C55   C63   A    
C212  H80   S    
C56   C64   A    
C15   O63   S    
O38   Zn10  S    
C45   C53   A    
O53   C193  S    
C194  H26   S    
C22   C94   A    
C171  C179  A    
C186  O58   S    
O36   Zn11  S    
O21   Zn5   S    
C169  C177  A    
C199  H40   S    
C50   C98   A    
O64   C204  S    
C91   O15   A    
C154  O51   S    
C104  C112  A    
C107  F7    S    
C89   O13   A    
C145  C163  A    
C146  C164  A    
C14   C147  A    
C52   C100  A    
C207  H65   S    
C16   C145  A    
C202  H49   S    
C178  C186  A    
C86   O18   A    
C196  H30   S    
C25   C38   A    
C54   C139  S    
C46   C94   A    
C27   C40   A    
C10   C166  A    
C210  H74   S    
C107  C115  A    
C91   C180  S    
C182  C188  A    
C89   C178  S    
O17   Zn1   S    
C209  H71   S    
C28   C36   A    
C113  O73   S    
O7    Zn7   S    
C25   C97   A    
C205  H58   S    
C206  H61   S    
C92   O16   A    
O45   Zn9   S    
O70   C210  S    
C216  H92   S    
C50   C106  A    
C156  O49   S    
O29   Zn2   S    
C214  H85   S    
C3    O27   A    
C22   C30   A    
C154  C156  A    
C20   C141  A    
C1    O1    A    
O76   C216  S    
C15   C146  A    
O51   C191  S    
C199  H41   S    
O50   C190  S    
C58   C135  S    
C68   C76   A    
C205  H59   S    
C59   C134  S    
O5    Zn5   S    
C184  C187  A    
C32   C128  A    
C189  H9    S    
C144  C152  A    
O33   Zn11  S    
C122  F14   S    
C192  H19   S    
C193  H22   S    
C134  O34   A    
C5    C73   S    
C139  O45   A    
C90   O22   A    
C13   C171  A    
C67   C75   A    
C150  O55   S    
C194  H24   S    
C193  H21   S    
C83   C99   A    
C133  O43   A    
C137  O37   A    
C25   C33   A    
C119  C127  A    
C61   H1    S    
C109  O69   S    
O22   Zn6   S    
C157  C167  A    
C80   C120  A    
C208  H66   S    
C14   O62   S    
C158  C168  A    
C190  H12   S    
C199  H39   S    
C164  C165  A    
C196  H32   S    
O34   Zn12  S    
C124  F16   S    
C103  F3    S    
C40   C115  A    
C194  H25   S    
C101  C109  A    
C210  H72   S    
C2    O26   A    
C177  C185  A    
C103  C111  A    
C209  H69   S    
C66   H6    S    
C162  C166  A    
C193  H23   S    
C79   C119  A    
C153  C155  A    
C162  C164  A    
C172  C180  A    
O62   C202  S    
C173  C181  A    
C157  C159  A    
C149  O56   S    
O23   Zn7   S    
C158  C160  A    
C197  H34   S    
C74   C82   A    
C203  H53   S    
C6    C74   S    
C198  H38   S    
C65   H5    S    
C204  H55   S    
C104  F4    S    
C47   C103  A    
O59   C199  S    
C50   C58   A    
C163  C166  A    
C13   O61   S    
C215  H87   S    
C147  C161  A    
C151  O54   S    
O67   C207  S    
C38   C113  A    
C203  H51   S    
C117  F9    S    
C54   C62   A    
C28   C39   A    
C64   H4    S    
C1    C69   S    
C23   C44   A    
C197  H35   S    
C188  O60   S    
C3    C71   S    
C19   C173  A    
C79   C95   A    
C92   C179  S    
C136  O36   A    
O55   C195  S    
C46   C54   A    
C207  H64   S    
C68   H8    S    
C55   C138  S    
C63   C71   A    
C45   C101  A    
C112  O72   S    
C19   C142  A    
O48   Zn9   S    
C138  O38   A    
C153  O52   S    
C35   C131  A    
C4    C72   S    
C208  H68   S    
C138  O48   A    
C111  O71   S    
O73   C213  S    
C33   C129  A    
C123  C131  A    
O41   Zn11  S    
C57   C65   A    
C49   C105  A    
O75   C215  S    
C120  C128  A    
C26   C37   A    
O74   C214  S    
C10   C170  A    
C110  O70   S    
C33   C41   A    
C130  F22   S    
C36   C132  A    
C213  H81   S    
O63   C203  S    
C75   C83   A    
C200  H42   S    
O2    Zn2   S    
C63   H3    S    
C6    O30   A    
C77   C93   A    
C185  O57   S    
C133  O33   A    
C44   C111  A    
C16   C170  A    
C191  H15   S    
C60   C68   A    
C72   C80   A    
C39   C116  A    
C29   C37   A    
O43   Zn12  S    
C212  H79   S    
C87   O19   A    
C9    C172  A    
C148  C156  A    
C83   C123  A    
C2    C70   S    
C105  F5    S    
C60   C133  S    
C190  H14   S    
C206  H60   S    
C30   C126  A    
C56   C137  S    
C70   C78   A    
C53   C140  S    
O57   C197  S    
C215  H89   S    
C142  C150  A    
C86   O10   A    
C141  C149  A    
C214  H84   S    
C46   C102  A    
C124  C132  A    
O47   Zn10  S    
C106  C114  A    
O56   C196  S    
C115  O75   S    
C6    O6    A    
C77   C117  A    
C48   C104  A    
C2    O2    A    
C65   C73   A    
C159  C168  A    
C15   C169  A    
C160  C167  A    
C92   O24   A    
O10   Zn5   S    
C16   O64   S    
C155  O50   S    
C58   C66   A    
C102  F2    S    
C210  H73   S    
C201  H46   S    
C57   C136  S    
C140  O40   A    
C80   C96   A    
C48   C56   A    
O3    Zn3   S    
C145  C153  A    
C28   C100  A    
C32   C40   A    
C52   C108  A    
O16   Zn3   S    
C67   H7    S    
C216  H91   S    
C26   C34   A    
C143  C157  A    
C51   C99   A    
C11   C173  A    
C9    C165  A    
C14   C172  A    
C87   C184  S    
C90   O14   A    
C88   C183  S    
C7    C75   S    
C4    O28   A    
O42   Zn12  S    
O12   Zn7   S    
O15   Zn4   S    
C189  H10   S    
C201  H45   S    
C85   O17   A    
C86   C181  S    
C3    O3    A    
C191  H17   S    
C4    O4    A    
C192  H18   S    
O18   Zn2   S    
C87   O11   A    
C18   O66   S    
C26   C98   A    
C12   C175  A    
O6    Zn6   S    
C41   C110  A    
O46   Zn10  S    
C150  C152  A    
C189  H11   S    
C51   C59   A    
C43   C112  A    
C144  C158  A    
C35   C43   A    
C211  H75   S    
C47   C55   A    
C61   C69   A    
C118  F10   S    
O58   C198  S    
O44   Zn11  S    
C88   O20   A    
C116  O76   S    
C134  O44   A    
C142  C160  A    
C12   C168  A    
C108  F8    S    
O37   Zn9   S    
C84   C124  A    
C13   C148  A    
C202  H50   S    
C195  H27   S    
C187  O59   S    
C20   O68   S    
C196  H31   S    
C190  H13   S    
C81   C97   A    
C31   C39   A    
C140  O46   A    
C64   C72   A    
C91   O23   A    
O61   C201  S    
C209  H70   S    
C102  C110  A    
C180  C185  A    
C89   O21   A    
O8    Zn8   S    
O26   Zn5   S    
C34   C130  A    
C205  H57   S    
C206  H62   S    
C47   C95   A    
C118  C126  A    
O14   Zn1   S    
C117  C125  A    
C122  C130  A    
C135  O35   A    
