data_mof_unit_6273.cif
_audit_creation_date              2012-10-26T20:02:32-0400
_audit_creation_method            fapswitch 2.2
_symmetry_space_group_name_H-M    P1
_symmetry_Int_Tables_number       1
_space_group_crystal_system       triclinic
_cell_length_a                    19.259375
_cell_length_b                    19.066909
_cell_length_c                    12.47103
_cell_angle_alpha                 89.481793
_cell_angle_beta                  130.564518
_cell_angle_gamma                 91.769172
_cell_volume                      3476.95644914

loop_
_atom_site_label
_atom_site_type_symbol
_atom_type_description
_atom_site_fract_x
_atom_site_fract_y
_atom_site_fract_z
_atom_type_partial_charge
C1    C     C_R   0.609900 0.897986 0.651683 0.557648
C2    C     C_R   0.664883 0.725225 0.027667 0.007139
C3    C     C_3   0.064954 0.333425 0.171410 -0.376524
C4    C     C_3   0.441857 0.556124 0.969724 -0.031958
C5    C     C_3   0.534870 0.523959 0.071884 -0.287437
C6    C     C_3   0.338117 0.222373 0.695519 0.032628
C7    C     C_3   0.399945 0.160712 0.746093 -0.310970
C8    C     C_3   0.941850 0.056128 0.969728 -0.031939
C9    C     C_3   0.034862 0.023964 0.071900 -0.287448
C10   C     C_3   0.838110 0.722399 0.695486 0.032604
C11   C     C_3   0.899925 0.660732 0.746007 -0.310903
C12   C     C_R   0.161001 0.792807 0.977043 0.022363
C13   C     C_R   0.164878 0.225221 0.027656 0.007141
C14   C     C_R   0.586846 0.274732 0.836285 0.242551
C15   C     C_R   0.597964 0.773360 0.938258 0.255745
C16   C     C_R   0.086854 0.774744 0.836261 0.242585
C17   C     C_R   0.097954 0.273351 0.938236 0.255749
C18   C     C_R   0.597611 0.226156 0.766226 -0.109495
C19   C     C_R   0.593854 0.804430 0.833322 -0.065151
C20   C     C_R   0.097621 0.726161 0.766219 -0.109404
C21   C     C_R   0.614332 0.099766 0.655525 0.556739
C22   C     C_R   0.093848 0.304424 0.833307 -0.065164
C23   C     C_R   0.324450 0.805261 0.168015 -0.140827
C24   C     C_R   0.310209 0.175095 0.136554 -0.136804
C25   C     C_R   0.824447 0.305262 0.168013 -0.140843
C26   C     C_R   0.810210 0.675096 0.136559 -0.136786
C27   C     C_R   0.220659 0.859184 0.187943 0.208684
C28   C     C_R   0.235040 0.152752 0.232625 0.191804
C29   C     C_R   0.720660 0.359190 0.187945 0.208659
C30   C     C_R   0.735038 0.652750 0.232624 0.191803
C31   C     C_R   0.691945 0.146307 0.761596 -0.018399
C32   C     C_R   0.109901 0.397987 0.651683 0.557645
C33   C     C_R   0.670527 0.839017 0.737361 -0.023792
C34   C     C_R   0.191951 0.646302 0.761604 -0.018398
C35   C     C_R   0.170529 0.339017 0.737361 -0.023804
C36   C     C_R   0.681456 0.028398 0.292794 -0.163658
C37   C     C_R   0.181458 0.528391 0.292796 -0.163654
C38   C     C_R   0.343119 0.995464 0.622253 0.037424
C39   C     C_R   0.843119 0.495467 0.622252 0.037427
C40   C     C_R   0.308609 0.983554 0.689201 0.212755
C41   C     C_R   0.808609 0.483561 0.689201 0.212754
C42   C     C_R   0.384024 0.097077 0.341221 0.577185
C43   C     C_R   0.114334 0.599764 0.655528 0.556738
C44   C     C_R   0.384460 0.900877 0.342623 0.571646
C45   C     C_R   0.884024 0.597076 0.341221 0.577199
C46   C     C_R   0.884460 0.400877 0.342624 0.571652
C47   C     C_R   0.369466 0.968548 0.833188 0.336139
C48   C     C_R   0.869465 0.468555 0.833187 0.336143
C49   C     C_R   0.462177 0.994036 0.918633 -0.078625
C50   C     C_R   0.962176 0.494041 0.918632 -0.078630
C51   C     C_R   0.496392 0.004505 0.845754 0.087863
C52   C     C_R   0.996392 0.504507 0.845754 0.087856
C53   C     C_R   0.523535 0.004948 0.071238 -0.014827
C54   C     C_R   0.250497 0.772890 0.038821 -0.004100
C55   C     C_R   0.023534 0.504950 0.071239 -0.014824
C56   C     C_R   0.615989 0.025747 0.144952 -0.056677
C57   C     C_R   0.115991 0.525744 0.144954 -0.056671
C58   C     C_R   0.645976 0.039785 0.073111 -0.115905
C59   C     C_R   0.145978 0.539779 0.073113 -0.115896
C60   C     C_R   0.593376 0.021296 0.932580 0.256636
C61   C     C_R   0.093377 0.521294 0.932581 0.256631
C62   C     C_R   0.499206 0.999905 0.156768 0.397248
C63   C     C_R   0.999206 0.499908 0.156768 0.397252
C64   C     C_R   0.655495 0.012166 0.370038 0.002667
C65   C     C_R   0.237523 0.216093 0.028243 -0.015308
C66   C     C_R   0.155495 0.512162 0.370039 0.002660
C67   C     C_R   0.646893 0.332098 0.055563 -0.077986
C68   C     C_R   0.662306 0.690475 0.124164 -0.094424
C69   C     C_R   0.146893 0.832091 0.055560 -0.078156
C70   C     C_R   0.162305 0.190474 0.124159 -0.094416
C71   C     C_R   0.309866 0.851160 0.238751 0.027970
C72   C     C_R   0.309943 0.143782 0.238941 0.021095
C73   C     C_R   0.809866 0.351161 0.238752 0.027962
C74   C     C_R   0.809943 0.643781 0.238942 0.021115
C75   C     C_R   0.778052 0.125797 0.815834 -0.103764
C76   C     C_R   0.750493 0.272889 0.038824 -0.004139
C77   C     C_R   0.739876 0.826491 0.732884 -0.119037
C78   C     C_R   0.278057 0.625785 0.815848 -0.103754
C79   C     C_R   0.239880 0.326494 0.732888 -0.119016
C80   C     C_R   0.357234 0.648469 0.950920 0.288152
C81   C     C_R   0.304859 0.276767 0.818678 0.255814
C82   C     C_R   0.857228 0.148479 0.950905 0.288142
C83   C     C_R   0.804857 0.776765 0.818678 0.255815
C84   C     C_R   0.348355 0.697302 0.024477 -0.078411
C85   C     C_R   0.304764 0.240579 0.915755 -0.062862
C86   C     C_R   0.848349 0.197308 0.024466 -0.078412
C87   C     C_R   0.737525 0.716095 0.028250 -0.015305
C88   C     C_R   0.804765 0.740581 0.915759 -0.062827
C89   C     C_R   0.762161 0.224069 0.965909 -0.019455
C90   C     C_R   0.736953 0.751248 0.925998 -0.008390
C91   C     C_R   0.262167 0.724067 0.965913 -0.019461
C92   C     C_R   0.236952 0.251246 0.925992 -0.008388
C93   C     C_R   0.683483 0.198385 0.831292 -0.031778
C94   C     C_R   0.665717 0.798435 0.830117 -0.014311
C95   C     C_R   0.183491 0.698384 0.831295 -0.031811
C96   C     C_R   0.165716 0.298432 0.830110 -0.014315
C97   C     C_3   0.343627 0.850068 0.834125 0.004548
C98   C     C_R   0.660997 0.292802 0.977055 0.022429
C99   C     C_3   0.247735 0.822880 0.708765 -0.342001
C100  C     C_3   0.843618 0.350075 0.834109 0.004555
C101  C     C_3   0.747721 0.322889 0.708758 -0.342003
C102  C     C_3   0.500125 0.367208 0.705379 -0.000160
C103  C     C_3   0.410821 0.402966 0.638917 -0.369552
C104  C     C_3   0.596508 0.840586 0.086773 -0.019392
C105  C     C_3   0.564966 0.833430 0.171438 -0.376530
C106  C     C_3   0.000253 0.867335 0.705718 -0.000069
C107  C     C_3   0.910686 0.902857 0.638439 -0.369773
C108  C     C_3   0.096485 0.340585 0.086730 -0.019389
Cl1   Cl    Cl    0.196872 0.907313 0.279619 -0.629451
Cl2   Cl    Cl    0.173262 0.499239 0.914392 -0.613613
Cl3   Cl    Cl    0.226015 0.120090 0.355853 -0.657179
Cl4   Cl    Cl    0.696875 0.407321 0.279623 -0.629456
Cl5   Cl    Cl    0.726008 0.620085 0.355844 -0.657170
Cl6   Cl    Cl    0.384533 0.008513 0.081107 -0.516617
Cl7   Cl    Cl    0.884534 0.508516 0.081108 -0.516601
Cl8   Cl    Cl    0.189723 0.982642 0.590962 -0.554533
Cl9   Cl    Cl    0.689722 0.482656 0.590962 -0.554522
Cl10  Cl    Cl    0.673262 0.999239 0.914394 -0.613613
Cu1   Cu    Cu3+1 0.526340 0.000000 0.421010 1.007700
Cu2   Cu    Cu3+1 0.026340 0.500000 0.421010 1.007709
Cu3   Cu    Cu3+1 0.473640 1.000000 0.578990 1.037558
Cu4   Cu    Cu3+1 0.973640 0.500000 0.578990 1.037555
H1    H     H_    0.717399 0.056138 0.133850 0.168966
H2    H     H_    0.104044 0.194360 0.118282 0.220838
H3    H     H_    0.393947 0.799581 0.211134 0.114708
H4    H     H_    0.369569 0.168569 0.146863 0.153988
H5    H     H_    0.893943 0.299584 0.211128 0.114716
H6    H     H_    0.869572 0.668571 0.146872 0.153987
H7    H     H_    0.781454 0.087401 0.756237 0.100442
H8    H     H_    0.745271 0.856103 0.663863 0.130318
H9    H     H_    0.281457 0.587387 0.756253 0.100435
H10   H     H_    0.245279 0.356110 0.663875 0.130379
H11   H     H_    0.410129 0.712206 0.128818 0.127576
H12   H     H_    0.217402 0.556129 0.133854 0.168969
H13   H     H_    0.357632 0.203069 0.978667 0.143044
H14   H     H_    0.910124 0.212212 0.128807 0.127572
H15   H     H_    0.857633 0.703071 0.978673 0.143058
H16   H     H_    0.538215 0.211291 0.659009 0.128943
H17   H     H_    0.533068 0.832991 0.757386 0.169553
H18   H     H_    0.038228 0.711298 0.658999 0.129025
H19   H     H_    0.033065 0.332985 0.757369 0.169552
H20   H     H_    0.705099 0.014168 0.484195 0.119683
H21   H     H_    0.205100 0.514162 0.484196 0.119692
H22   H     H_    0.370806 0.813091 0.921196 0.168089
H23   H     H_    0.752803 0.041763 0.348398 0.111400
H24   H     H_    0.388320 0.847446 0.806845 0.165209
H25   H     H_    0.248395 0.765338 0.698024 0.101484
H26   H     H_    0.198433 0.834914 0.723705 0.193831
H27   H     H_    0.225526 0.845765 0.609219 0.205585
H28   H     H_    0.870803 0.313096 0.921180 0.168094
H29   H     H_    0.888304 0.347453 0.806815 0.165196
H30   H     H_    0.748378 0.265347 0.698010 0.101482
H31   H     H_    0.698427 0.334922 0.723715 0.193829
H32   H     H_    0.725503 0.345776 0.609209 0.205586
H33   H     H_    0.503918 0.357018 0.621495 0.150165
H34   H     H_    0.252806 0.541753 0.348400 0.111400
H35   H     H_    0.557480 0.403939 0.786218 0.157500
H36   H     H_    0.409782 0.454215 0.594958 0.106918
H37   H     H_    0.351838 0.369748 0.552066 0.143225
H38   H     H_    0.404171 0.412165 0.719698 0.162180
H39   H     H_    0.590922 0.894816 0.052731 0.169946
H40   H     H_    0.671233 0.830434 0.161725 0.134794
H41   H     H_    0.557066 0.777523 0.187878 0.172009
H42   H     H_    0.616358 0.859306 0.276392 0.114192
H43   H     H_    0.499359 0.859095 0.117626 0.172779
H44   H     H_    0.004601 0.857374 0.622365 0.150351
H45   H     H_    0.297469 0.998693 0.509073 0.259107
H46   H     H_    0.057349 0.904105 0.786958 0.157346
H47   H     H_    0.909740 0.954209 0.594836 0.106953
H48   H     H_    0.851984 0.869591 0.551190 0.143267
H49   H     H_    0.903467 0.911821 0.718646 0.162280
H50   H     H_    0.090878 0.394813 0.052667 0.169933
H51   H     H_    0.171214 0.330448 0.161679 0.134812
H52   H     H_    0.057047 0.277517 0.187841 0.172022
H53   H     H_    0.116354 0.359296 0.276368 0.114188
H54   H     H_    0.999351 0.359095 0.117614 0.172765
H55   H     H_    0.424477 0.559150 0.865542 0.119950
H56   H     H_    0.797470 0.498696 0.509073 0.259113
H57   H     H_    0.392267 0.520222 0.963050 0.162028
H58   H     H_    0.558026 0.523857 0.179933 0.258348
H59   H     H_    0.529877 0.469102 0.037800 0.136715
H60   H     H_    0.585105 0.553615 0.071577 0.190164
H61   H     H_    0.338536 0.252936 0.619865 0.191459
H62   H     H_    0.266539 0.201224 0.635592 0.151586
H63   H     H_    0.385162 0.122813 0.797333 0.139175
H64   H     H_    0.387721 0.135625 0.655201 0.176175
H65   H     H_    0.472993 0.177616 0.824461 0.192696
H66   H     H_    0.924470 0.059138 0.865543 0.119974
H67   H     H_    0.578258 0.343196 0.012812 0.196220
H68   H     H_    0.892258 0.020234 0.963066 0.162035
H69   H     H_    0.058019 0.023875 0.179951 0.258330
H70   H     H_    0.029867 0.969101 0.037836 0.136756
H71   H     H_    0.085097 0.053611 0.071584 0.190142
H72   H     H_    0.838534 0.752986 0.619860 0.191478
H73   H     H_    0.766527 0.701254 0.635540 0.151591
H74   H     H_    0.885124 0.622810 0.797191 0.139170
H75   H     H_    0.887709 0.635676 0.655100 0.176213
H76   H     H_    0.972976 0.677622 0.824411 0.192682
H77   H     H_    0.604045 0.694363 0.118288 0.220833
H78   H     H_    0.078257 0.843183 0.012808 0.196151
N1    N     N_R   0.566260 1.000000 0.302220 -0.240870
N2    N     N_R   0.066260 0.500000 0.302220 -0.240872
N3    N     N_R   0.434410 1.000000 0.697680 -0.296525
N4    N     N_R   0.934410 0.500000 0.697680 -0.296517
O1    O     O_R   0.608610 0.924520 0.551740 -0.530801
O2    O     O_R   0.435880 0.924530 0.314850 -0.466284
O3    O     O_R   0.935880 0.575470 0.314850 -0.466206
O4    O     O_R   0.935880 0.424530 0.314850 -0.466286
O5    O     O_R   0.391380 0.075460 0.448260 -0.467871
O6    O     O_R   0.391380 0.924540 0.448260 -0.468733
O7    O     O_R   0.891380 0.575460 0.448260 -0.467886
O8    O     O_R   0.891380 0.424540 0.448260 -0.468731
O9    O     O_3   0.342613 0.917559 0.880701 -0.494471
O10   O     O_3   0.842611 0.417564 0.880697 -0.494477
O11   O     O_3   0.502494 0.303639 0.766581 -0.564459
O12   O     O_R   0.608610 0.075480 0.551740 -0.520618
O13   O     O_3   0.542586 0.796416 0.964336 -0.594764
O14   O     O_3   0.002495 0.803649 0.766509 -0.564506
O15   O     O_3   0.042571 0.296404 0.964306 -0.594751
O16   O     O_3   0.444447 0.624173 0.017288 -0.550475
O17   O     O_3   0.372851 0.265728 0.813382 -0.545241
O18   O     O_3   0.944442 0.124187 0.017265 -0.550489
O19   O     O_3   0.872851 0.765725 0.813386 -0.545313
O20   O     O_R   0.108610 0.424520 0.551740 -0.530805
O21   O     O_R   0.108610 0.575480 0.551740 -0.520612
O22   O     O_R   0.564110 0.924510 0.685150 -0.456969
O23   O     O_R   0.564110 0.075490 0.685150 -0.451126
O24   O     O_R   0.064110 0.424510 0.685150 -0.456967
O25   O     O_R   0.064110 0.575490 0.685150 -0.451133
O26   O     O_R   0.435880 0.075470 0.314850 -0.466208

loop_
_geom_bond_atom_site_label_1
_geom_bond_atom_site_label_2
_ccdc_geom_bond_type
C1    O22   A    
C65   C92   A    
C64   N1    A    
C49   C53   A    
C63   N2    A    
C40   C47   A    
Cu2   N2    S    
C97   H24   S    
C14   C18   A    
C7    H64   S    
Cu1   N1    S    
C4    H55   S    
C80   C84   A    
C33   C77   A    
C33   C94   A    
Cu1   O26   S    
C1    C33   S    
C47   C49   A    
C13   C65   A    
C35   C96   A    
C8    H66   S    
C15   C19   A    
C99   H27   S    
C99   H26   S    
C100  O10   S    
C58   H1    S    
C45   O7    A    
C43   O21   A    
C68   H77   S    
C106  H44   S    
C7    H65   S    
C62   Cl6   S    
C2    C68   A    
C52   C61   A    
C10   H72   S    
C104  H40   S    
C30   C74   A    
C78   C80   A    
C103  H38   S    
C57   C59   A    
C29   C73   A    
C106  C107  S    
C77   C83   A    
C58   C60   A    
Cu2   Cu4   S    
C7    H63   S    
C92   C96   A    
C44   C71   S    
Cu4   N4    S    
C18   H16   S    
C29   Cl4   S    
C67   C98   A    
C32   O20   A    
C29   C67   A    
C108  O15   S    
C32   O24   A    
C8    H68   S    
C26   C87   A    
C49   C51   A    
C55   C63   A    
C69   H78   S    
C50   C52   A    
C105  H41   S    
C16   O14   S    
Cu1   O1    S    
C84   C91   A    
Cu3   O5    S    
C15   O13   S    
C9    H70   S    
C1    O1    A    
C9    H71   S    
C44   O6    A    
C17   O15   S    
C76   C89   A    
C23   H3    S    
C6    O17   S    
C63   Cl7   S    
C48   C50   A    
C83   C88   A    
Cu1   O12   S    
Cu2   O20   S    
C97   O9    S    
C39   N4    A    
C108  H51   S    
C24   H4    S    
C37   H34   S    
C28   C72   A    
C61   Cl2   S    
C102  H35   S    
C5    H59   S    
C104  C105  S    
C97   C99   S    
C85   C92   A    
C51   N3    A    
C14   C98   A    
Cu1   Cu3   S    
C28   Cl3   S    
C38   H45   S    
C21   O23   A    
C8    O18   S    
C48   O10   S    
C84   H11   S    
C59   C61   A    
C90   C94   A    
Cu2   O4    S    
C32   C35   S    
C12   C16   A    
C62   N1    A    
C11   H74   S    
Cu3   N3    S    
C39   C41   A    
C104  H39   S    
C79   C81   A    
C8    C9    S    
C107  H49   S    
C66   H21   S    
C30   C68   A    
C4    O16   S    
C82   C86   A    
Cu3   O22   S    
C6    H62   S    
C45   C74   S    
C52   N4    A    
C106  H46   S    
C41   Cl9   S    
C46   O4    A    
C78   H9    S    
C11   H75   S    
C5    H58   S    
C36   C56   A    
C23   C71   A    
C21   C31   S    
C53   C62   A    
C3    H54   S    
C3    H52   S    
C31   C75   A    
C101  H31   S    
C67   H67   S    
C16   C20   A    
Cu4   O24   S    
C37   C66   A    
C102  H33   S    
C42   C72   S    
C21   O12   A    
C2    C87   A    
C75   C82   A    
Cu1   O2    S    
C26   H6    S    
Cu3   O6    S    
C34   C95   A    
C60   Cl10  S    
C2    C15   A    
C19   C94   A    
C42   O5    A    
C24   C65   A    
C85   H13   S    
C10   O19   S    
C3    H53   S    
C106  O14   S    
C12   C69   A    
C88   C90   A    
C38   N3    A    
C55   C57   A    
Cu4   O8    S    
C12   C54   A    
C4    H57   S    
C102  O11   S    
C42   O26   A    
C5    H60   S    
C39   H56   S    
C27   C71   A    
C24   C72   A    
C23   C54   A    
C107  H47   S    
C53   C56   A    
C86   H14   S    
Cu4   O25   S    
C99   H25   S    
C59   H12   S    
Cu2   O3    S    
C22   C96   A    
C20   C95   A    
C28   C70   A    
C34   C43   S    
C50   C55   A    
C4    C5    S    
C86   C89   A    
C27   C69   A    
C80   O16   S    
C43   O25   A    
C103  H36   S    
C6    C7    S    
C82   O18   S    
C105  H42   S    
C3    C108  S    
C81   O17   S    
C44   O2    A    
C101  H30   S    
C9    H69   S    
C17   C22   A    
Cu3   O23   S    
C13   C17   A    
C6    H61   S    
C25   C76   A    
C100  H28   S    
C20   H18   S    
C108  H50   S    
C25   H5    S    
C11   H76   S    
C83   O19   S    
C54   C91   A    
C31   C93   A    
C10   H73   S    
C34   C78   A    
C38   C40   A    
C103  H37   S    
C100  H29   S    
C40   Cl8   S    
C64   H20   S    
C101  H32   S    
C97   H22   S    
C46   O8    A    
C79   H10   S    
C47   O9    S    
C22   H19   S    
C35   C79   A    
C100  C101  S    
C26   C74   A    
C41   C48   A    
C56   C58   A    
C14   O11   S    
C25   C73   A    
C77   H8    S    
C46   C73   S    
C89   C93   A    
C102  C103  S    
C37   C57   A    
C104  O13   S    
C10   C11   S    
C91   C95   A    
C66   N2    A    
C70   H2    S    
C36   H23   S    
C27   Cl1   S    
C45   O3    A    
C13   C70   A    
C87   C90   A    
C18   C93   A    
C105  H43   S    
Cu4   O7    S    
C51   C60   A    
C88   H15   S    
C36   C64   A    
C76   C98   A    
Cu2   O21   S    
C107  H48   S    
C19   H17   S    
C81   C85   A    
C75   H7    S    
C30   Cl5   S    
