data_mof_unit_44132.cif
_audit_creation_date              2013-03-05T15:42:33-0500
_audit_creation_method            fapswitch 2.2
_symmetry_space_group_name_H-M    P1
_symmetry_Int_Tables_number       1
_space_group_crystal_system       triclinic
_cell_length_a                    10.859472
_cell_length_b                    11.069725
_cell_length_c                    9.837079
_cell_angle_alpha                 92.0299
_cell_angle_beta                  91.118946
_cell_angle_gamma                 93.175261
_cell_volume                      1179.69867615

loop_
_atom_site_label
_atom_site_type_symbol
_atom_site_description
_atom_site_fract_x
_atom_site_fract_y
_atom_site_fract_z
_atom_type_partial_charge
O1    O     O_R   0.500020 0.321960 0.617040 -0.533197
O2    O     O_R   0.499980 0.321920 0.382900 -0.515670
C1    C     C_R   0.504992 0.267000 0.497021 0.808812
O3    O     O_R   0.319670 0.500020 0.617100 -0.564364
O4    O     O_R   0.319630 0.499980 0.382950 -0.581704
C2    C     C_R   0.264182 0.514939 0.500773 0.792066
Cu1   Cu    Cu3+1 0.500020 0.500020 0.638630 1.029192
Cu2   Cu    Cu3+1 0.499980 0.499980 0.361370 1.070897
O5    O     O_R   0.500020 0.678080 0.617100 -0.599891
O6    O     O_R   0.499980 0.678040 0.382960 -0.556429
O7    O     O_R   0.680370 0.500020 0.617050 -0.604281
O8    O     O_R   0.680330 0.499980 0.382900 -0.553420
C3    C     C_R   0.505999 0.733777 0.503253 0.753757
C4    C     C_R   0.737709 0.496155 0.501348 0.775329
H1    H     H_    0.106605 0.556670 0.290007 0.183586
C5    C     C_R   0.117651 0.584199 0.756464 0.178555
C6    C     C_R   0.059614 0.556224 0.878784 0.340561
C7    C     C_R   0.953023 0.478307 0.874019 0.153610
C8    C     C_R   0.893223 0.449862 0.749461 -0.217114
H2    H     H_    0.809293 0.392702 0.749364 0.240311
C9    C     C_R   0.942748 0.493153 0.627893 -0.016513
C10   C     C_R   0.066888 0.536926 0.630553 -0.015431
C11   C     C_R   0.131003 0.537055 0.505923 -0.045514
C12   C     C_R   0.062488 0.542057 0.385135 -0.229987
H3    H     H_    0.884700 0.540888 0.291807 0.206486
C13   C     C_R   0.934988 0.528866 0.385662 -0.145918
C14   C     C_R   0.873369 0.499039 0.504853 -0.034704
C15   C     C_2   0.482557 0.929929 0.409694 -0.184496
C16   C     C_2   0.516071 0.865279 0.515216 0.307480
H4    H     H_    0.444798 0.883625 0.317573 0.183758
C17   C     C_2   0.456195 0.056936 0.428410 0.186001
C18   C     C_2   0.536519 0.141745 0.485751 0.125823
C19   C     C_2   0.441666 0.413515 0.915322 0.581955
N1    N     N_2   0.498640 0.498660 0.846910 -0.042961
C20   C     C_2   0.441224 0.414100 0.074039 0.537239
N2    N     N_2   0.498610 0.498630 0.153040 -0.077479
Br1   Br    Br    0.710145 0.117461 0.507038 -0.452494
O9    O     O_3   0.403580 0.306361 0.844037 -0.588337
C21   C     C_3   0.274315 0.293023 0.824789 0.025163
H5    H     H_    0.230475 0.381058 0.821486 0.141012
H6    H     H_    0.236124 0.234916 0.905192 0.182230
C22   C     C_3   0.239269 0.224029 0.692357 -0.678826
H7    H     H_    0.284661 0.137304 0.687912 0.248466
H8    H     H_    0.137784 0.204752 0.686660 0.220195
H9    H     H_    0.265485 0.277302 0.603570 0.249850
O10   O     O_3   0.605712 0.540976 0.909056 -0.507326
C23   C     C_3   0.634270 0.660133 0.868664 0.298191
H10   H     H_    0.551617 0.713984 0.867496 0.173358
H11   H     H_    0.677481 0.661542 0.768462 0.176623
C24   C     C_3   0.728115 0.722346 0.967984 -0.831042
H12   H     H_    0.813448 0.672996 0.964201 0.241268
H13   H     H_    0.749005 0.817130 0.938609 0.213468
H14   H     H_    0.693888 0.722757 0.073443 0.288712
O11   O     O_3   0.361054 0.330368 0.133246 -0.567468
C25   C     C_3   0.241646 0.377499 0.135981 0.071196
H15   H     H_    0.197322 0.381542 0.036199 0.120765
H16   H     H_    0.243852 0.472924 0.170637 0.209262
C26   C     C_3   0.154897 0.299862 0.220216 -0.626077
H17   H     H_    0.186233 0.303863 0.328043 0.259794
H18   H     H_    0.060886 0.333344 0.215937 0.235003
H19   H     H_    0.149732 0.205190 0.178581 0.270216
Br2   Br    Br    0.438345 0.649866 0.106625 -0.503336
Br3   Br    Br    0.241026 0.714427 0.762488 -0.558277
O12   O     O_3   0.112591 0.599265 0.001567 -0.575795
C27   C     C_3   0.056002 0.705452 0.045952 0.074472
H20   H     H_    0.979425 0.680322 0.114401 0.164218
H21   H     H_    0.019638 0.758303 0.960745 0.158713
C28   C     C_3   0.149154 0.789131 0.126350 -0.653614
H22   H     H_    0.189275 0.741784 0.212795 0.251016
H23   H     H_    0.224487 0.820710 0.059323 0.284673
H24   H     H_    0.102932 0.869343 0.167115 0.217283
Br4   Br    Br    0.879483 0.417286 0.034127 -0.541252
O13   O     O_3   0.565715 0.920687 0.634566 -0.558235
C29   C     C_3   0.471967 0.941990 0.728209 0.044741
H25   H     H_    0.450661 0.859669 0.784466 0.203397
H26   H     H_    0.385633 0.969435 0.678639 0.165623
C30   C     C_3   0.518070 0.040109 0.831907 -0.646959
H27   H     H_    0.545086 0.124479 0.779951 0.290231
H28   H     H_    0.444163 0.058805 0.904943 0.229667
H29   H     H_    0.599453 0.009992 0.888961 0.244649
Br5   Br    Br    0.289951 0.086950 0.381017 -0.600760

loop_
_geom_bond_atom_site_label_1
_geom_bond_atom_site_label_2
_geom_bond_distance
_ccdc_geom_bond_type
C25   H15   1.088209 S    
O13   C29   1.410121 S    
C8    H2    1.080333 S    
Cu1   Cu2   2.727404 S    
C21   H6    1.109331 S    
C30   H27   1.108543 S    
Cu1   O7    1.974093 S    
C13   C14   1.401832 A    
C29   H26   1.110521 S    
C3    C16   1.454158 S    
C15   C16   1.337476 D    
C8    C9    1.409319 A    
C12   C13   1.384319 A    
C6    O12   1.385120 S    
O9    C21   1.411684 S    
O7    C4    1.308493 A    
C16   O13   1.390282 S    
C26   H18   1.105787 S    
C7    C8    1.393242 A    
Cu2   N2    2.048642 S    
O5    C3    1.298421 A    
O11   C25   1.424665 S    
C17   C18   1.346462 D    
C28   H22   1.109083 S    
C27   H21   1.117221 S    
C29   C30   1.520611 S    
C24   H13   1.110642 S    
C11   C12   1.393978 A    
N1    O10   1.355263 S    
C5    Br3   1.911439 S    
C4    C14   1.471476 S    
C21   C22   1.517644 S    
C26   H19   1.109668 S    
C9    C14   1.418537 A    
C9    C10   1.406489 A    
C20   O11   1.387423 S    
C22   H8    1.110829 S    
O3    Cu1   1.965808 S    
N2    Br2   1.898253 S    
C19   N1    1.311737 D    
C23   C24   1.517602 S    
C30   H28   1.110658 S    
C7    Br4   1.907727 S    
C24   H14   1.108742 S    
C29   H25   1.098900 S    
C23   H11   1.100174 S    
C21   H5    1.109244 S    
C5    C6    1.405477 A    
C24   H12   1.102058 S    
H3    C13   1.079539 S    
O1    C1    1.312324 A    
C22   H9    1.104195 S    
C23   H10   1.104758 S    
Cu2   O8    1.965808 S    
C27   C28   1.523118 S    
C6    C7    1.403709 A    
C18   Br1   1.927656 S    
C28   H23   1.109911 S    
H1    C12   1.072854 S    
O8    C4    1.313684 A    
C25   H16   1.097263 S    
Cu1   N1    2.049797 S    
O3    C2    1.302809 A    
C22   H7    1.103102 S    
C30   H29   1.110739 S    
Cu1   O5    1.989866 S    
O10   C23   1.410864 S    
C5    C10   1.416793 A    
O1    Cu1   1.974991 S    
C15   C17   1.456303 S    
O2    Cu2   1.989867 S    
O6    C3    1.313782 A    
O4    Cu2   1.974095 S    
C19   O9    1.394700 S    
C17   Br5   1.905642 S    
O12   C27   1.415670 S    
C15   H4    1.086895 S    
O2    C1    1.297104 A    
C26   H17   1.106237 S    
O4    C2    1.325924 A    
C28   H24   1.110493 S    
C2    C11   1.481667 S    
C19   C20   1.561198 S    
C1    C18   1.447466 S    
Cu2   O6    1.974989 S    
C27   H20   1.109876 S    
C25   C26   1.517868 S    
C10   C11   1.421686 A    
C20   N2    1.316376 D    
