data_mof_unit_33896.cif
_audit_creation_date              2013-03-05T15:49:08-0500
_audit_creation_method            fapswitch 2.2
_symmetry_space_group_name_H-M    P1
_symmetry_Int_Tables_number       1
_space_group_crystal_system       triclinic
_cell_length_a                    22.420052
_cell_length_b                    13.003559
_cell_length_c                    26.955934
_cell_angle_alpha                 90.280273
_cell_angle_beta                  90.521415
_cell_angle_gamma                 90.004236
_cell_volume                      7858.32614598

loop_
_atom_site_label
_atom_site_type_symbol
_atom_site_description
_atom_site_fract_x
_atom_site_fract_y
_atom_site_fract_z
_atom_type_partial_charge
O1    O     O_R   0.769900 0.064540 0.196060 -0.452398
O2    O     O_R   0.230100 0.064540 0.803940 -0.428299
O3    O     O_R   0.269900 0.564540 0.196060 -0.447288
O4    O     O_R   0.730100 0.564540 0.803940 -0.446713
O5    O     O_R   0.750800 0.274080 0.199250 -0.497863
O6    O     O_R   0.249200 0.274080 0.800750 -0.491084
O7    O     O_R   0.250800 0.774080 0.199250 -0.491272
O8    O     O_R   0.749200 0.774080 0.800750 -0.486243
C1    C     C_R   0.720574 0.344430 0.178124 0.536654
C2    C     C_R   0.279951 0.343503 0.822416 0.532448
C3    C     C_R   0.221192 0.845900 0.178766 0.536412
C4    C     C_R   0.779862 0.843821 0.822314 0.537870
O9    O     O_R   0.669990 0.371670 0.194150 -0.514863
O10   O     O_R   0.330010 0.371670 0.805850 -0.508270
O11   O     O_R   0.169990 0.871670 0.194150 -0.513232
O12   O     O_R   0.830010 0.871670 0.805850 -0.510412
O13   O     O_R   0.574600 0.238480 0.197800 -0.506689
O14   O     O_R   0.425400 0.238480 0.802200 -0.510628
O15   O     O_R   0.074600 0.738480 0.197800 -0.505977
O16   O     O_R   0.925400 0.738480 0.802200 -0.512760
C5    C     C_R   0.553584 0.156729 0.177237 0.557443
C6    C     C_R   0.447914 0.157703 0.821709 0.559123
C7    C     C_R   0.052874 0.656858 0.177686 0.560073
C8    C     C_R   0.947707 0.657463 0.821900 0.564757
O17   O     O_R   0.566130 0.068680 0.194240 -0.443213
O18   O     O_R   0.433870 0.068680 0.805760 -0.454046
O19   O     O_R   0.066130 0.568680 0.194240 -0.442549
O20   O     O_R   0.933870 0.568680 0.805760 -0.442699
O21   O     O_R   0.680610 0.992490 0.199570 -0.503885
O22   O     O_R   0.319390 0.992490 0.800430 -0.492094
O23   O     O_R   0.180610 0.492490 0.199570 -0.505834
O24   O     O_R   0.819390 0.492490 0.800430 -0.513217
C9    C     C_R   0.732216 0.999683 0.179871 0.548918
C10   C     C_R   0.278906 0.040120 0.826403 0.547790
C11   C     C_R   0.232094 0.499662 0.179834 0.553654
C12   C     C_R   0.768337 0.500723 0.820269 0.572503
O25   O     O_R   0.770060 0.065440 0.307230 -0.465199
O26   O     O_R   0.229940 0.065440 0.692770 -0.480542
O27   O     O_R   0.270060 0.565440 0.307230 -0.487440
O28   O     O_R   0.729940 0.565440 0.692770 -0.473640
O29   O     O_R   0.750960 0.274920 0.302300 -0.432240
O30   O     O_R   0.249040 0.274920 0.697700 -0.440750
O31   O     O_R   0.250960 0.774920 0.302300 -0.437766
O32   O     O_R   0.749040 0.774920 0.697700 -0.430577
C13   C     C_R   0.720607 0.344765 0.322808 0.565806
C14   C     C_R   0.278239 0.348532 0.678771 0.565112
C15   C     C_R   0.221522 0.848356 0.321519 0.572553
C16   C     C_R   0.778822 0.846230 0.677897 0.567306
O33   O     O_R   0.670160 0.372580 0.305320 -0.506246
O34   O     O_R   0.329840 0.372580 0.694680 -0.525392
O35   O     O_R   0.170160 0.872580 0.305320 -0.516414
O36   O     O_R   0.829840 0.872580 0.694680 -0.523456
O37   O     O_R   0.574760 0.239320 0.300850 -0.431042
O38   O     O_R   0.425240 0.239320 0.699150 -0.457098
O39   O     O_R   0.074760 0.739320 0.300850 -0.433794
O40   O     O_R   0.925240 0.739320 0.699150 -0.456444
C17   C     C_R   0.553715 0.159098 0.321380 0.570225
C18   C     C_R   0.444453 0.158273 0.677873 0.598353
C19   C     C_R   0.053836 0.659064 0.321410 0.567863
C20   C     C_R   0.944893 0.658403 0.678100 0.594382
O41   O     O_R   0.566290 0.069580 0.305400 -0.533108
O42   O     O_R   0.433710 0.069580 0.694600 -0.512511
O43   O     O_R   0.066290 0.569580 0.305400 -0.534047
O44   O     O_R   0.933710 0.569580 0.694600 -0.519154
O45   O     O_R   0.680760 0.993330 0.302620 -0.516756
O46   O     O_R   0.319240 0.993330 0.697380 -0.506054
O47   O     O_R   0.180760 0.493330 0.302620 -0.512554
O48   O     O_R   0.819240 0.493330 0.697380 -0.518498
C21   C     C_R   0.731774 0.001940 0.322725 0.552831
C22   C     C_R   0.269028 0.004852 0.676009 0.545738
C23   C     C_R   0.231223 0.503289 0.323338 0.541487
C24   C     C_R   0.767539 0.500081 0.677917 0.551385
Cr1   Cr    Cr6+3 0.756570 0.170940 0.251190 1.129737
Cr2   Cr    Cr6+3 0.243430 0.170940 0.748810 1.132361
Cr3   Cr    Cr6+3 0.256570 0.670940 0.251190 1.133521
Cr4   Cr    Cr6+3 0.743430 0.670940 0.748810 1.135007
Cr5   Cr    Cr6+3 0.623740 0.299110 0.249580 1.091221
Cr6   Cr    Cr6+3 0.376260 0.299110 0.750420 1.072729
Cr7   Cr    Cr6+3 0.123740 0.799110 0.249580 1.086138
Cr8   Cr    Cr6+3 0.876260 0.799110 0.750420 1.077566
Cr9   Cr    Cr6+3 0.625990 0.036240 0.250480 1.080963
Cr10  Cr    Cr6+3 0.374010 0.036240 0.749520 1.088319
Cr11  Cr    Cr6+3 0.125990 0.536240 0.250480 1.080808
Cr12  Cr    Cr6+3 0.874010 0.536240 0.749520 1.085312
O49   O     O_3   0.668770 0.168760 0.250420 -0.289072
O50   O     O_3   0.331230 0.168760 0.749580 -0.315756
O51   O     O_3   0.168770 0.668760 0.250420 -0.290570
O52   O     O_3   0.831230 0.668760 0.749580 -0.293828
C25   C     C_R   0.522207 0.067557 0.098947 0.206100
C26   C     C_R   0.506739 0.077012 0.891040 0.199308
C27   C     C_R   0.013280 0.567953 0.101816 0.203978
C28   C     C_R   0.000586 0.573123 0.893318 0.199656
C29   C     C_R   0.524032 0.070663 0.046972 0.014303
C30   C     C_R   0.517498 0.076156 0.942581 0.002603
C31   C     C_R   0.012415 0.568748 0.049748 0.003866
C32   C     C_R   0.007932 0.571896 0.945198 -0.003217
C33   C     C_R   0.533671 0.985321 0.967199 -0.072108
C34   C     C_R   0.534044 0.981487 0.018683 -0.053940
C35   C     C_R   0.018114 0.479607 0.970703 -0.062528
C36   C     C_R   0.017028 0.477345 0.022168 -0.044817
H1    H     H_    0.542806 0.914869 0.947216 0.203978
H2    H     H_    0.542673 0.908132 0.035850 0.224247
H3    H     H_    0.024179 0.407397 0.951390 0.218241
H4    H     H_    0.021108 0.403409 0.039875 0.230926
C37   C     C_R   0.481934 0.165929 0.868912 -0.007177
C38   C     C_R   0.527370 0.160263 0.126553 -0.013851
C39   C     C_R   0.980215 0.664089 0.869923 -0.008138
C40   C     C_R   0.023718 0.660927 0.128141 -0.012429
C41   C     C_R   0.519996 0.254745 0.102083 -0.152502
C42   C     C_R   0.479994 0.258481 0.896123 -0.152518
C43   C     C_R   0.018357 0.755083 0.103040 -0.151592
C44   C     C_R   0.980124 0.757162 0.896732 -0.165080
C45   C     C_R   0.510896 0.257218 0.050517 0.000714
C46   C     C_R   0.494057 0.259887 0.946786 0.001303
C47   C     C_R   0.007894 0.756680 0.051663 0.002717
C48   C     C_R   0.992224 0.758158 0.947778 0.000450
C49   C     C_R   0.515562 0.165315 0.022694 0.034244
C50   C     C_R   0.509466 0.167291 0.970595 0.031104
C51   C     C_R   0.008133 0.663412 0.024650 0.030905
C52   C     C_R   0.002863 0.664534 0.972477 0.032557
C53   C     C_R   0.498937 0.350016 0.026035 -0.111060
C54   C     C_R   0.489391 0.350993 0.974674 -0.107292
C55   C     C_R   0.999719 0.849866 0.026468 -0.105346
C56   C     C_R   0.990667 0.850385 0.975045 -0.111155
H5    H     H_    0.463272 0.327984 0.878841 0.161787
H6    H     H_    0.522327 0.326116 0.122965 0.163757
H7    H     H_    0.966780 0.827883 0.878619 0.154476
H8    H     H_    0.024332 0.826851 0.123110 0.163003
H9    H     H_    0.477893 0.422863 0.956805 0.158543
H10   H     H_    0.495431 0.421340 0.046757 0.165906
H11   H     H_    0.982593 0.922950 0.956573 0.153716
H12   H     H_    0.999358 0.922157 0.046628 0.164132
C57   C     C_R   0.744920 0.944976 0.132664 -0.043242
C58   C     C_R   0.274449 0.013913 0.879715 -0.048301
C59   C     C_R   0.244261 0.444078 0.132735 -0.043472
C60   C     C_R   0.759999 0.454475 0.869545 -0.032207
C61   C     C_R   0.797084 0.966254 0.105313 0.193205
C62   C     C_R   0.221360 0.028974 0.907157 0.209428
C63   C     C_R   0.297951 0.459053 0.106493 0.195520
C64   C     C_R   0.703625 0.449604 0.892601 0.209596
C65   C     C_R   0.798671 0.940453 0.055159 -0.150183
C66   C     C_R   0.222037 0.014716 0.958371 -0.114028
C67   C     C_R   0.300266 0.431744 0.056448 -0.146536
C68   C     C_R   0.701264 0.435021 0.944051 -0.127615
C69   C     C_R   0.751901 0.886217 0.032258 -0.032506
C70   C     C_R   0.273958 0.984217 0.983417 -0.034980
C71   C     C_R   0.252047 0.383156 0.032598 -0.036334
C72   C     C_R   0.753621 0.422740 0.972333 -0.032358
C73   C     C_R   0.704038 0.849609 0.061197 0.198530
C74   C     C_R   0.327007 0.969450 0.956545 0.200947
C75   C     C_R   0.201824 0.353276 0.060501 0.186601
C76   C     C_R   0.809293 0.420149 0.948667 0.207157
C77   C     C_R   0.700588 0.882190 0.110988 -0.142417
C78   C     C_R   0.326679 0.984428 0.905141 -0.156783
C79   C     C_R   0.198111 0.386740 0.110086 -0.149760
C80   C     C_R   0.811770 0.433984 0.897621 -0.143613
C81   C     C_R   0.710067 0.905967 0.946053 -0.049336
C82   C     C_R   0.287888 0.858917 0.052116 -0.042750
C83   C     C_R   0.211971 0.409454 0.946322 -0.037603
C84   C     C_R   0.777330 0.324211 0.048757 -0.050943
C85   C     C_R   0.716958 0.898415 0.894526 -0.104144
C86   C     C_R   0.275861 0.826231 0.100031 -0.095231
C87   C     C_R   0.218878 0.402438 0.894803 -0.088595
C88   C     C_R   0.772470 0.309291 0.099494 -0.090766
C89   C     C_R   0.815121 0.824274 0.907523 -0.111390
C90   C     C_R   0.225624 0.987623 0.117049 -0.107542
C91   C     C_R   0.313633 0.316071 0.907641 -0.120546
C92   C     C_R   0.710297 0.461487 0.105817 -0.107651
C93   C     C_R   0.807756 0.829225 0.958414 -0.105139
C94   C     C_R   0.239225 0.021530 0.069473 -0.097849
C95   C     C_R   0.306277 0.321001 0.958603 -0.113257
C96   C     C_R   0.716268 0.477575 0.055054 -0.093820
C97   C     C_R   0.755567 0.871016 0.978179 0.075058
C98   C     C_R   0.269025 0.956293 0.036218 0.057753
C99   C     C_R   0.255816 0.368679 0.978434 0.072298
C100  C     C_R   0.749140 0.408216 0.026185 0.047426
C101  C     C_R   0.770296 0.859641 0.875276 0.036257
C102  C     C_R   0.242972 0.889016 0.132241 0.022903
C103  C     C_R   0.270606 0.357884 0.875493 0.038174
C104  C     C_R   0.737598 0.376194 0.128217 0.021528
H13   H     H_    0.669726 0.939480 0.960904 0.123334
H14   H     H_    0.309523 0.806224 0.026773 0.163374
H15   H     H_    0.172897 0.447228 0.961186 0.130714
H16   H     H_    0.801944 0.268746 0.026903 0.162246
H17   H     H_    0.681488 0.923840 0.869957 0.155667
H18   H     H_    0.288882 0.749153 0.110736 0.163463
H19   H     H_    0.184703 0.432755 0.870281 0.155394
H20   H     H_    0.792786 0.241466 0.115554 0.179351
H21   H     H_    0.837004 0.963394 0.033613 0.157713
H22   H     H_    0.180609 0.022673 0.978463 0.181335
H23   H     H_    0.340069 0.449767 0.035665 0.156694
H24   H     H_    0.658356 0.431826 0.962184 0.163687
H25   H     H_    0.843143 0.801342 0.982490 0.133176
H26   H     H_    0.224538 0.097057 0.057944 0.171647
H27   H     H_    0.340275 0.288395 0.982654 0.130001
H28   H     H_    0.694325 0.542804 0.038113 0.191019
H29   H     H_    0.855562 0.790456 0.893126 0.122281
H30   H     H_    0.200227 0.037110 0.141443 0.150838
H31   H     H_    0.352636 0.277687 0.893096 0.110531
H32   H     H_    0.682593 0.513294 0.127162 0.160436
H33   H     H_    0.662817 0.859476 0.132998 0.214051
H34   H     H_    0.368105 0.975727 0.885185 0.195307
H35   H     H_    0.158394 0.369727 0.130963 0.213324
H36   H     H_    0.855381 0.437663 0.880750 0.202500
C105  C     C_R   0.522783 0.168454 0.369264 0.063813
C106  C     C_R   0.460278 0.164071 0.625506 0.075176
C107  C     C_R   0.024120 0.668090 0.369757 0.064341
C108  C     C_R   0.962157 0.664600 0.626069 0.079149
C109  C     C_R   0.514218 0.264816 0.392821 0.240923
C110  C     C_R   0.498766 0.239476 0.606755 0.240904
C111  C     C_R   0.013533 0.764534 0.392617 0.239234
C112  C     C_R   0.998715 0.743147 0.607544 0.239096
C113  C     C_R   0.496978 0.267462 0.442895 -0.113150
C114  C     C_R   0.507322 0.244643 0.555050 -0.107973
C115  C     C_R   0.997518 0.767688 0.443001 -0.113289
C116  C     C_R   0.008002 0.748538 0.555904 -0.111661
C117  C     C_R   0.488361 0.175976 0.469144 0.005856
C118  C     C_R   0.476438 0.177306 0.522779 -0.001057
C119  C     C_R   0.992264 0.676529 0.470132 0.007623
C120  C     C_R   0.979674 0.678158 0.523576 0.006367
C121  C     C_R   0.493201 0.081458 0.444366 -0.127168
C122  C     C_R   0.436574 0.105692 0.542248 -0.136326
C123  C     C_R   0.999895 0.581681 0.446233 -0.139880
C124  C     C_R   0.941569 0.603586 0.542807 -0.135092
C125  C     C_R   0.509567 0.077797 0.395018 -0.171129
C126  C     C_R   0.429286 0.098221 0.592917 -0.168442
C127  C     C_R   0.014675 0.577487 0.396640 -0.176843
C128  C     C_R   0.933747 0.596016 0.593308 -0.168295
H37   H     H_    0.410932 0.054970 0.518231 0.169755
H38   H     H_    0.487175 0.009501 0.463753 0.146324
H39   H     H_    0.917690 0.550519 0.518709 0.122145
H40   H     H_    0.996790 0.510057 0.466390 0.126342
H41   H     H_    0.397656 0.042384 0.606652 0.149922
H42   H     H_    0.515302 0.002872 0.377983 0.145069
H43   H     H_    0.903423 0.538127 0.606748 0.129375
H44   H     H_    0.022212 0.502433 0.380262 0.147250
H45   H     H_    0.491407 0.340699 0.461612 0.088851
H46   H     H_    0.538771 0.299460 0.540198 0.093798
H47   H     H_    0.989953 0.840990 0.461148 0.089559
H48   H     H_    0.037938 0.805934 0.541161 0.095438
C129  C     C_R   0.740154 0.955781 0.371184 0.031707
C130  C     C_R   0.266284 0.982965 0.623231 0.025135
C131  C     C_R   0.236180 0.465329 0.373800 0.028269
C132  C     C_R   0.755598 0.446216 0.631477 0.031188
C133  C     C_R   0.689133 0.932385 0.398650 -0.132406
C134  C     C_R   0.284616 0.888606 0.603416 -0.140682
C135  C     C_R   0.183720 0.461633 0.401844 -0.131138
C136  C     C_R   0.803276 0.401257 0.606227 -0.144337
C137  C     C_R   0.694010 0.913486 0.448735 -0.064071
C138  C     C_R   0.287540 0.876360 0.551999 -0.077970
C139  C     C_R   0.186633 0.447803 0.452437 -0.069618
C140  C     C_R   0.797823 0.380083 0.556160 -0.072692
C141  C     C_R   0.750126 0.912977 0.471743 0.074406
C142  C     C_R   0.274342 0.959741 0.520705 0.065185
C143  C     C_R   0.241770 0.432522 0.475704 0.068614
C144  C     C_R   0.743375 0.396876 0.531522 0.079614
C145  C     C_R   0.801767 0.929446 0.443865 -0.135458
C146  C     C_R   0.259068 0.055062 0.541045 -0.149465
C147  C     C_R   0.294325 0.431216 0.447563 -0.125474
C148  C     C_R   0.693528 0.430143 0.558164 -0.133514
C149  C     C_R   0.796743 0.951889 0.393614 -0.115656
C150  C     C_R   0.254340 0.066107 0.591796 -0.133274
C151  C     C_R   0.291614 0.449258 0.396687 -0.117857
C152  C     C_R   0.699736 0.455691 0.608003 -0.108561
C153  C     C_R   0.788500 0.968241 0.553657 -0.173896
C154  C     C_R   0.213671 0.974530 0.445331 -0.183278
C155  C     C_R   0.287297 0.477335 0.556404 -0.188893
C156  C     C_R   0.711488 0.461811 0.449223 -0.179425
C157  C     C_R   0.793401 0.955496 0.604479 -0.172337
C158  C     C_R   0.200885 0.948809 0.396787 -0.180312
C159  C     C_R   0.295069 0.460046 0.606585 -0.179568
C160  C     C_R   0.707716 0.451799 0.398042 -0.170293
C161  C     C_R   0.719811 0.817417 0.600373 0.234814
C162  C     C_R   0.299853 0.873828 0.387977 0.235102
C163  C     C_R   0.208095 0.347964 0.606381 0.216103
C164  C     C_R   0.771550 0.300159 0.402301 0.230937
C165  C     C_R   0.720340 0.822544 0.548272 0.235111
C166  C     C_R   0.311943 0.896100 0.438742 0.236078
C167  C     C_R   0.204141 0.356605 0.554280 0.226040
C168  C     C_R   0.768239 0.302518 0.454327 0.232357
C169  C     C_R   0.753541 0.900330 0.525371 0.036506
C170  C     C_R   0.267789 0.945006 0.467107 0.040210
C171  C     C_R   0.244164 0.422058 0.529649 0.037289
C172  C     C_R   0.740381 0.386201 0.477556 0.034318
C173  C     C_R   0.760936 0.878043 0.627963 0.033233
C174  C     C_R   0.242251 0.893851 0.368523 0.032547
C175  C     C_R   0.258016 0.390546 0.631206 0.033987
C176  C     C_R   0.736487 0.370157 0.374256 0.031349
H49   H     H_    0.644783 0.936557 0.382472 0.136042
H50   H     H_    0.295864 0.824958 0.627518 0.124007
H51   H     H_    0.140394 0.476667 0.385325 0.135711
H52   H     H_    0.846381 0.390830 0.623918 0.129643
H53   H     H_    0.813590 0.029097 0.536174 0.153968
H54   H     H_    0.179333 0.011887 0.466991 0.136372
H55   H     H_    0.317087 0.530082 0.537919 0.126103
H56   H     H_    0.690372 0.527233 0.466826 0.146500
H57   H     H_    0.824186 0.003888 0.625196 0.160030
H58   H     H_    0.156871 0.967027 0.382427 0.172490
H59   H     H_    0.332226 0.496957 0.625474 0.159568
H60   H     H_    0.681370 0.506635 0.377108 0.158626
H61   H     H_    0.653578 0.903583 0.469904 0.156379
H62   H     H_    0.298468 0.801611 0.536697 0.144701
H63   H     H_    0.145841 0.452639 0.473565 0.160107
H64   H     H_    0.837228 0.356060 0.536263 0.153791
H65   H     H_    0.845490 0.928357 0.461295 0.111854
H66   H     H_    0.249473 0.120366 0.517455 0.141795
H67   H     H_    0.337352 0.418748 0.465126 0.112607
H68   H     H_    0.650772 0.441136 0.539912 0.100351
H69   H     H_    0.836479 0.970333 0.372897 0.151364
H70   H     H_    0.243167 0.140934 0.606694 0.163609
H71   H     H_    0.332431 0.453153 0.375586 0.144438
H72   H     H_    0.661987 0.488595 0.627216 0.154364
N1    N     N_R   0.518921 0.987369 0.861444 0.074323
O53   O     O_R   0.487965 0.903733 0.867317 -0.286593
O54   O     O_R   0.554884 0.994175 0.823998 -0.312981
N2    N     N_R   0.510966 0.971898 0.123578 0.109807
O55   O     O_R   0.462870 0.961627 0.149732 -0.267058
O56   O     O_R   0.552084 0.901685 0.126168 -0.313748
N3    N     N_R   0.012195 0.482105 0.864526 0.079471
O57   O     O_R   0.977880 0.401892 0.868408 -0.290470
O58   O     O_R   0.051468 0.485003 0.829328 -0.311298
N4    N     N_R   0.001911 0.474121 0.128011 0.101594
O59   O     O_R   0.956102 0.468527 0.157148 -0.280080
O60   O     O_R   0.041740 0.401510 0.129238 -0.304875
N5    N     N_R   0.660090 0.778486 0.041553 0.061867
O61   O     O_R   0.669917 0.726550 0.001069 -0.339728
O62   O     O_R   0.613857 0.753765 0.067774 -0.303779
N6    N     N_R   0.381505 0.940154 0.980864 0.067804
O63   O     O_R   0.396374 0.980347 0.023507 -0.318954
O64   O     O_R   0.416368 0.872459 0.960460 -0.301937
N7    N     N_R   0.155388 0.288385 0.039862 0.060475
O65   O     O_R   0.106818 0.271775 0.064592 -0.304537
O66   O     O_R   0.164664 0.233218 0.000307 -0.328507
N8    N     N_R   0.864026 0.409819 0.976147 0.070255
O67   O     O_R   0.874493 0.467342 0.014898 -0.318887
O68   O     O_R   0.905268 0.347684 0.960423 -0.310300
O69   O     O_3   0.524560 0.354678 0.367144 -0.669320
H73   H     H_    0.517005 0.414357 0.389257 0.316769
O70   O     O_3   0.527950 0.305149 0.639236 -0.672466
H74   H     H_    0.553236 0.352780 0.619948 0.319231
O71   O     O_3   0.020398 0.854016 0.365843 -0.675523
H75   H     H_    0.011769 0.913869 0.387563 0.314302
O72   O     O_3   0.025220 0.811800 0.640155 -0.674306
H76   H     H_    0.049214 0.861601 0.621005 0.325985
O73   O     O_3   0.691759 0.749792 0.518940 -0.732227
H77   H     H_    0.688643 0.684642 0.537647 0.328877
O74   O     O_3   0.364997 0.869424 0.461748 -0.741560
H78   H     H_    0.381984 0.808850 0.444562 0.329653
O75   O     O_3   0.165036 0.297077 0.526455 -0.735415
H79   H     H_    0.155016 0.234198 0.545213 0.328131
O76   O     O_3   0.788976 0.222024 0.483067 -0.737049
H80   H     H_    0.788091 0.157959 0.463040 0.332752
O77   O     O_3   0.681554 0.751520 0.624587 -0.675762
H81   H     H_    0.645384 0.740963 0.603780 0.328296
O78   O     O_3   0.342584 0.832866 0.357035 -0.679410
H82   H     H_    0.382433 0.855852 0.368714 0.329801
O79   O     O_3   0.165746 0.295278 0.633173 -0.683449
H83   H     H_    0.127119 0.298593 0.615106 0.335453
O80   O     O_3   0.806648 0.228096 0.378536 -0.674801
H84   H     H_    0.840413 0.209084 0.400636 0.324644
N9    N     N_R   0.848816 0.013406 0.127549 0.093560
O81   O     O_R   0.871616 0.975065 0.167996 -0.295377
O82   O     O_R   0.879557 0.080511 0.102843 -0.326559
N10   N     N_R   0.165645 0.054649 0.883922 0.104363
O83   O     O_R   0.138585 0.986595 0.856236 -0.290778
O84   O     O_R   0.136180 0.134914 0.899036 -0.262575
N11   N     N_R   0.350339 0.501798 0.129712 0.095258
O85   O     O_R   0.369922 0.463744 0.171348 -0.298001
O86   O     O_R   0.384242 0.564742 0.105332 -0.321161
N12   N     N_R   0.648929 0.457693 0.864550 0.103057
O87   O     O_R   0.644882 0.417396 0.820356 -0.300660
O88   O     O_R   0.600731 0.491827 0.885561 -0.310168

loop_
_geom_bond_atom_site_label_1
_geom_bond_atom_site_label_2
_geom_bond_distance
_ccdc_geom_bond_type
N4    O60   1.299959 A    
C37   C42   1.407238 A    
O4    C12   1.270494 A    
C57   C61   1.416192 A    
O79   H83   0.990749 S    
O25   C21   1.266053 A    
C161  C173  1.416470 A    
C39   C44   1.406578 A    
C66   C70   1.398753 A    
C35   H3    1.080621 S    
C148  C152  1.388092 A    
C163  C175  1.410596 A    
Cr7   O51   1.973079 S    
O69   H73   0.991748 S    
C153  C169  1.399272 A    
C59   C63   1.415652 A    
C126  H41   1.083735 S    
C29   C49   1.408857 A    
C148  H68   1.083296 S    
C145  C149  1.390629 A    
C149  H69   1.083225 S    
O39   C19   1.275405 A    
C32   C35   1.403667 A    
C121  C125  1.383712 A    
C36   H4    1.078994 S    
C73   C77   1.408252 A    
O44   Cr12  2.052651 S    
C165  C169  1.404507 A    
C70   C74   1.410863 A    
C3    O11   1.268636 A    
C82   C98   1.402843 A    
C137  H61   1.083533 S    
C4    O12   1.266014 A    
C122  H37   1.083348 S    
C25   C38   1.417764 A    
C106  C126  1.403275 A    
C138  C142  1.406841 A    
C167  C171  1.409493 A    
C92   H32   1.083258 S    
C62   N10   1.432467 S    
C60   C64   1.415055 A    
C158  H58   1.083379 S    
O2    C10   1.286351 A    
C129  C149  1.401463 A    
O17   Cr9   2.060739 S    
C158  C174  1.399635 A    
C124  C128  1.378141 A    
C141  C169  1.457049 S    
C77   H33   1.080382 S    
C89   C93   1.384385 A    
C47   C55   1.403222 A    
C136  H52   1.082608 S    
C95   H27   1.083901 S    
C109  O69   1.381700 S    
C168  O76   1.383246 S    
C147  H67   1.083264 S    
C93   H25   1.084009 S    
C30   C33   1.403693 A    
C133  H49   1.083592 S    
C92   C104  1.403322 A    
C109  C113  1.407686 A    
O28   Cr4   2.055920 S    
N2    O55   1.300901 A    
O12   Cr8   2.052458 S    
O22   Cr10  1.935110 S    
O15   C7    1.283459 A    
C90   H30   1.083252 S    
C26   N1    1.436923 S    
O46   Cr10  1.937883 S    
C16   C173  1.462650 S    
O78   H82   0.990252 S    
C108  C112  1.405956 A    
C8    C39   1.481934 S    
C64   N12   1.438941 S    
C114  C118  1.408683 A    
C129  C133  1.402418 A    
C96   H28   1.081569 S    
C115  H47   1.083337 S    
C85   C101  1.400832 A    
C123  H40   1.083109 S    
O31   Cr3   1.930566 S    
C94   C98   1.404684 A    
Cr12  O52   1.972234 S    
C26   C37   1.415181 A    
C73   N5    1.446440 S    
C88   H20   1.083041 S    
C17   O41   1.271773 A    
C19   O43   1.271035 A    
C40   C43   1.406411 A    
C91   C95   1.386258 A    
C20   O44   1.265608 A    
C87   H19   1.082971 S    
Cr8   O52   1.972761 S    
O46   C22   1.269137 A    
C70   C98   1.475729 S    
C159  H59   1.083271 S    
C16   O36   1.272562 A    
C147  C151  1.393234 A    
C143  C171  1.461646 S    
O80   H84   0.991122 S    
O27   C23   1.268885 A    
O31   C15   1.271759 A    
O32   C16   1.265664 A    
N3    O58   1.300952 A    
O47   Cr11  1.941892 S    
O75   H79   0.990330 S    
O21   C9    1.281035 A    
C55   H12   1.083580 S    
C89   C101  1.401859 A    
O76   H80   0.990577 S    
C151  H71   1.083200 S    
C53   H10   1.083573 S    
C33   C34   1.388885 A    
C55   C56   1.399139 A    
C72   C100  1.469122 S    
C13   C176  1.464775 S    
C2    C103  1.459027 S    
O24   C12   1.272073 A    
C114  H46   1.083232 S    
Cr3   O51   1.968599 S    
C123  C127  1.381025 A    
N1    O54   1.300967 A    
C10   C58   1.482804 S    
C28   C32   1.406808 A    
N10   O83   1.301300 A    
O32   Cr4   1.939969 S    
C27   N4    1.436663 S    
C44   H7    1.084140 S    
C1    O9    1.267179 A    
C63   C67   1.394703 A    
O11   Cr7   2.059092 S    
C156  C160  1.386937 A    
C121  H38   1.083016 S    
C139  H63   1.083435 S    
C166  O74   1.381492 S    
C140  H64   1.082943 S    
O27   Cr3   2.065789 S    
O3    Cr3   2.049408 S    
C42   C46   1.398815 A    
C5    C38   1.483277 S    
C154  C170  1.397661 A    
Cr5   O49   1.973079 S    
C107  C111  1.415634 A    
C146  C150  1.379911 A    
C131  C151  1.398672 A    
C150  H70   1.081116 S    
C79   H35   1.081153 S    
O7    C3    1.271289 A    
O22   C10   1.305773 A    
C61   N9    1.436680 S    
C116  H48   1.083115 S    
C164  C168  1.405238 A    
C2    O10   1.266424 A    
C124  H39   1.083504 S    
C11   C59   1.485282 S    
N8    O67   1.301362 A    
C117  C118  1.472691 S    
C138  H62   1.083018 S    
C48   C52   1.409760 A    
C156  H56   1.083163 S    
C71   C75   1.415205 A    
O5    C1    1.272213 A    
C82   H14   1.083020 S    
C106  C110  1.405057 A    
O3    C11   1.269274 A    
O8    C4    1.272931 A    
C153  H53   1.083110 S    
C130  C150  1.401238 A    
C155  H55   1.083589 S    
Cr1   O49   1.968599 S    
C45   C49   1.412201 A    
C142  C170  1.462568 S    
C74   N6    1.433774 S    
C90   C94   1.394528 A    
C47   C51   1.411603 A    
C87   C103  1.399909 A    
C63   N11   1.436440 S    
N12   O87   1.301491 A    
C44   C48   1.400074 A    
O26   Cr2   2.055920 S    
C19   C107  1.473237 S    
C5    O17   1.266073 A    
C134  H50   1.083055 S    
O29   C13   1.263179 A    
O28   C24   1.263385 A    
O14   C6    1.278792 A    
C72   C76   1.407248 A    
N6    O63   1.301036 A    
C15   C174  1.467391 S    
Cr11  O51   1.972123 S    
C135  C139  1.377429 A    
C6    C37   1.480948 S    
C75   C79   1.406801 A    
O40   Cr8   1.933291 S    
O41   Cr9   2.049632 S    
C49   C50   1.410150 A    
C108  C128  1.401047 A    
C30   C50   1.414507 A    
C21   C129  1.450921 S    
C144  C148  1.401254 A    
O33   Cr5   2.052022 S    
C25   C29   1.402761 A    
O35   Cr7   2.052022 S    
C86   C102  1.403185 A    
O29   Cr1   1.930566 S    
C141  C145  1.403006 A    
C41   H6    1.084095 S    
O40   C20   1.273593 A    
C75   N7    1.445746 S    
C43   H8    1.084103 S    
C93   C97   1.398889 A    
C145  H65   1.083310 S    
Cr9   O49   1.972123 S    
C96   C100  1.402073 A    
C38   C41   1.406369 A    
C18   O42   1.264321 A    
C91   C103  1.402360 A    
O26   C22   1.263603 A    
O20   Cr12  2.057662 S    
C24   C132  1.454194 S    
C152  H72   1.083255 S    
O77   H81   0.990947 S    
C127  H44   1.083128 S    
N9    O82   1.301508 A    
C130  C134  1.399078 A    
C14   C175  1.464324 S    
C84   C88   1.387558 A    
O38   C18   1.274310 A    
C71   C99   1.474399 S    
C18   C106  1.460919 S    
C66   H22   1.084138 S    
O34   Cr6   2.058928 S    
N2    O56   1.299195 A    
O30   C14   1.271197 A    
C153  C157  1.384118 A    
C128  H43   1.080355 S    
C133  C137  1.376832 A    
C155  C159  1.381772 A    
C105  C125  1.403986 A    
C90   C102  1.401938 A    
C160  H60   1.083387 S    
C54   H9    1.083545 S    
C88   C104  1.404327 A    
N4    O59   1.300863 A    
O42   Cr10  2.052651 S    
O18   Cr10  2.057662 S    
C117  C121  1.400642 A    
C81   H13   1.083115 S    
C12   C60   1.474199 S    
C78   H34   1.083194 S    
C26   C30   1.408067 A    
O24   Cr12  1.935110 S    
O30   Cr2   1.939969 S    
O48   Cr12  1.937883 S    
C8    O20   1.269227 A    
C65   H21   1.084280 S    
C62   C66   1.393763 A    
O74   H78   0.989829 S    
C94   H26   1.082002 S    
O16   Cr8   1.940743 S    
C31   C36   1.403164 A    
C20   C108  1.460954 S    
C15   O35   1.268139 A    
C68   H24   1.083900 S    
Cr10  O50   1.972234 S    
C161  C165  1.406498 A    
C132  C136  1.398969 A    
O43   Cr11  2.049632 S    
O37   Cr5   1.938658 S    
N7    O65   1.300534 A    
O21   Cr9   1.931216 S    
C115  C119  1.401400 A    
O39   Cr7   1.938658 S    
C139  C143  1.395743 A    
O70   H74   0.991870 S    
C155  C171  1.397893 A    
O13   Cr5   1.935119 S    
O23   Cr11  1.931216 S    
N11   O86   1.301475 A    
O15   Cr7   1.935119 S    
C53   C54   1.399110 A    
C107  C127  1.403254 A    
C131  C135  1.404861 A    
O23   C11   1.278949 A    
C125  H42   1.083211 S    
C81   C85   1.401887 A    
C119  C120  1.470603 S    
C164  C176  1.419150 A    
C61   C65   1.392122 A    
O37   C17   1.275692 A    
C48   C56   1.404129 A    
C27   C40   1.417230 A    
C64   C68   1.402182 A    
O6    C2    1.272313 A    
N12   O88   1.301626 A    
C51   C52   1.410393 A    
C143  C147  1.407214 A    
C159  C175  1.401120 A    
C113  H45   1.083327 S    
C154  H54   1.083971 S    
O1    Cr1   2.049408 S    
O19   Cr11  2.060739 S    
C23   C131  1.452619 S    
C34   H2    1.078967 S    
N1    O53   1.301196 A    
C58   C78   1.405701 A    
O45   C21   1.265883 A    
C7    C40   1.482729 S    
C76   N8    1.434235 S    
C65   C69   1.400661 A    
C111  O71   1.381569 S    
N10   O84   1.301009 A    
O47   C23   1.263508 A    
N5    O61   1.301069 A    
O13   C5    1.284030 A    
C31   C51   1.410391 A    
C119  C123  1.399906 A    
N3    O57   1.301246 A    
C167  O75   1.383004 S    
C92   C96   1.392932 A    
C6    O18   1.271480 A    
C142  C146  1.396816 A    
O36   Cr8   2.058928 S    
C69   C73   1.416147 A    
C81   C97   1.408887 A    
O38   Cr6   1.933291 S    
C111  C115  1.408344 A    
O72   H76   0.991733 S    
C163  O79   1.381905 S    
C163  C167  1.411457 A    
N11   O85   1.301451 A    
O8    Cr4   1.937545 S    
C68   C72   1.403414 A    
C157  H57   1.083386 S    
O1    C9    1.266931 A    
C164  O80   1.382431 S    
C165  O73   1.383532 S    
O71   H75   0.991751 S    
C67   C71   1.401603 A    
C156  C172  1.402869 A    
C76   C80   1.390172 A    
C57   C77   1.407307 A    
C157  C173  1.399785 A    
C89   H29   1.082074 S    
C60   C80   1.406071 A    
N8    O68   1.300521 A    
C122  C126  1.380938 A    
C136  C140  1.380412 A    
C17   C105  1.475318 S    
C137  C141  1.397635 A    
C59   C79   1.408242 A    
N5    O62   1.301082 A    
C110  O70   1.380631 S    
C67   H23   1.084212 S    
C146  H66   1.083755 S    
O45   Cr9   1.941892 S    
C112  C116  1.411447 A    
O6    Cr2   1.937545 S    
C13   O33   1.274484 A    
Cr4   O52   1.968609 S    
O2    Cr2   2.059172 S    
C112  O72   1.380430 S    
O48   C24   1.271192 A    
C140  C144  1.402026 A    
Cr6   O50   1.972761 S    
C4    C101  1.459185 S    
C83   C99   1.409186 A    
O5    Cr1   1.947017 S    
C84   C100  1.400898 A    
C118  C122  1.398077 A    
O9    Cr5   2.059092 S    
C144  C172  1.461562 S    
O16   C8    1.281684 A    
N6    O64   1.300591 A    
C154  C158  1.376661 A    
C86   H18   1.083695 S    
C113  C117  1.401395 A    
O7    Cr3   1.947017 S    
C110  C114  1.410568 A    
C95   C99   1.399280 A    
C56   H11   1.083545 S    
C28   C39   1.416914 A    
C35   C36   1.388184 A    
C28   N3    1.437235 S    
C105  C109  1.415874 A    
C45   C53   1.402915 A    
C3    C102  1.464112 S    
Cr2   O50   1.968609 S    
N7    O66   1.300518 A    
C46   C50   1.408762 A    
C1    C104  1.463173 S    
C162  C174  1.414098 A    
O14   Cr6   1.940743 S    
C69   C97   1.473154 S    
C7    O19   1.266824 A    
C74   C78   1.400177 A    
C83   C87   1.401266 A    
C162  O78   1.381128 S    
C135  H51   1.083104 S    
C80   H36   1.083244 S    
C120  C124  1.397041 A    
C134  C138  1.396464 A    
O25   Cr1   2.065789 S    
C91   H31   1.082554 S    
C162  C166  1.420995 A    
C85   H17   1.083013 S    
C32   C52   1.413377 A    
C168  C172  1.402443 A    
C58   C62   1.420171 A    
C41   C45   1.403569 A    
C160  C176  1.398294 A    
N9    O81   1.301484 A    
C14   O34   1.268744 A    
C22   C130  1.450245 S    
O10   Cr6   2.052458 S    
C25   N2    1.436236 S    
O4    Cr4   2.059172 S    
C82   C86   1.390426 A    
C42   H5    1.084152 S    
C46   C54   1.404396 A    
C9    C57   1.484657 S    
C27   C31   1.403585 A    
C166  C170  1.406470 A    
C43   C47   1.402784 A    
C83   H15   1.083401 S    
O73   H77   0.990812 S    
C116  C120  1.407974 A    
C161  O77   1.382577 S    
C29   C34   1.403949 A    
C84   H16   1.083325 S    
C33   H1    1.081021 S    
C132  C152  1.403772 A    
