data_mof_unit_6756.cif
_audit_creation_date              2012-10-26T20:58:58-0400
_audit_creation_method            fapswitch 2.2
_symmetry_space_group_name_H-M    P1
_symmetry_Int_Tables_number       1
_space_group_crystal_system       triclinic
_cell_length_a                    27.812946
_cell_length_b                    10.607
_cell_length_c                    9.438676
_cell_angle_alpha                 90.000775
_cell_angle_beta                  90.011626
_cell_angle_gamma                 90.083697
_cell_volume                      2784.5188837

loop_
_atom_site_label
_atom_site_type_symbol
_atom_type_description
_atom_site_fract_x
_atom_site_fract_y
_atom_site_fract_z
_atom_type_partial_charge
C1    C     C_R   0.500033 0.259490 0.499819 0.553708
C2    C     C_R   0.872179 0.390597 0.534817 0.024451
C3    C     C_R   0.354599 0.498825 0.500067 0.002990
C4    C     C_R   0.645402 0.500957 0.499951 0.003434
C5    C     C_R   0.974217 0.388683 0.538748 0.018188
C6    C     C_R   0.025688 0.609386 0.456233 0.017918
C7    C     C_R   0.974593 0.611281 0.461228 0.018210
C8    C     C_R   0.025317 0.389791 0.543889 0.017933
C9    C     C_R   0.949158 0.500177 0.499954 0.034063
C10   C     C_R   0.050750 0.499393 0.500092 0.033951
C11   C     C_R   0.947021 0.279247 0.570285 -0.141585
C12   C     C_R   0.499968 0.740510 0.500181 0.553751
C13   C     C_R   0.052878 0.713818 0.407795 -0.141729
C14   C     C_R   0.897107 0.280572 0.568651 -0.112422
C15   C     C_R   0.102789 0.711742 0.406963 -0.112274
C16   C     C_R   0.407553 0.499662 0.499999 0.548570
C17   C     C_R   0.592447 0.500279 0.500002 0.548585
C18   C     C_R   0.052151 0.284948 0.592408 -0.141787
C19   C     C_R   0.947766 0.721128 0.429600 -0.141628
C20   C     C_3   0.539159 0.042104 0.568835 -0.121098
C21   C     C_3   0.460843 0.957896 0.431165 -0.121327
C22   C     C_3   0.539860 0.957972 0.434995 -0.126600
C23   C     C_R   0.101899 0.498996 0.500149 -0.027109
C24   C     C_3   0.460143 0.042027 0.565004 -0.126839
C25   C     C_3   0.499949 0.877491 0.500791 0.043211
C26   C     C_3   0.500054 0.122508 0.499208 0.043226
C27   C     C_3   0.499242 0.959329 0.634789 -0.116909
C28   C     C_3   0.500760 0.040671 0.365210 -0.116895
C29   C     C_3   0.526451 0.589234 0.048691 0.115962
C30   C     C_3   0.473545 0.410774 0.951310 0.115704
C31   C     C_3   0.483548 0.605617 0.948855 -0.005010
C32   C     C_3   0.516449 0.394380 0.051143 -0.004934
C33   C     C_3   0.543155 0.484184 0.949195 -0.001374
C34   C     C_R   0.898010 0.500570 0.499886 -0.027097
C35   C     C_3   0.456844 0.515824 0.050808 -0.001608
C36   C     C_R   0.177849 0.393635 0.545879 0.397846
C37   C     C_R   0.822067 0.609326 0.465584 0.397804
C38   C     C_R   0.178194 0.603186 0.454550 0.398060
C39   C     C_R   0.821711 0.392977 0.534031 0.398029
C40   C     C_R   0.278900 0.498296 0.371772 -0.057255
C41   C     C_R   0.721103 0.496080 0.628120 -0.057409
C42   C     C_R   0.329023 0.498650 0.371547 -0.145533
C43   C     C_R   0.670978 0.495969 0.628354 -0.145207
C44   C     C_R   0.329076 0.498114 0.628662 -0.149587
C45   C     C_R   0.127368 0.392083 0.546690 0.024715
C46   C     C_R   0.670928 0.506632 0.371501 -0.148810
C47   C     C_R   0.278947 0.497576 0.628543 -0.057084
C48   C     C_R   0.721058 0.507223 0.371652 -0.057057
C49   C     C_R   0.253699 0.497872 0.500180 0.242754
C50   C     C_R   0.746273 0.501696 0.499863 0.244144
C51   C     C_3   0.557331 0.697771 0.104780 -0.266645
C52   C     C_3   0.584905 0.762494 0.985352 -0.467945
C53   C     C_3   0.442599 0.302362 0.895225 -0.266499
C54   C     C_3   0.415102 0.237510 0.014722 -0.467853
C55   C     C_R   0.872546 0.610933 0.464886 0.024550
C56   C     C_R   0.102071 0.286252 0.593355 -0.112418
C57   C     C_R   0.897846 0.720568 0.431099 -0.112565
C58   C     C_R   0.127724 0.605515 0.453665 0.024626
Cu1   Cu    Cu3+1 0.500010 0.499990 0.643150 0.914885
Cu2   Cu    Cu3+1 0.499990 0.500010 0.356850 0.915068
H1    H     H_    0.347756 0.498201 0.729347 0.121117
H2    H     H_    0.420577 0.529440 0.097222 0.098767
H3    H     H_    0.259655 0.497544 0.728185 0.130331
H4    H     H_    0.740375 0.511353 0.272158 0.128214
H5    H     H_    0.120804 0.203356 0.631293 0.167890
H6    H     H_    0.879116 0.807179 0.405711 0.167558
H7    H     H_    0.652347 0.491705 0.728952 0.117315
H8    H     H_    0.347654 0.498841 0.270834 0.117441
H9    H     H_    0.740456 0.492074 0.727578 0.127687
H10   H     H_    0.259571 0.498114 0.272168 0.129714
H11   H     H_    0.878085 0.194247 0.593984 0.167813
H12   H     H_    0.652254 0.510587 0.270918 0.120221
H13   H     H_    0.121804 0.794351 0.369073 0.168081
H14   H     H_    0.963067 0.189587 0.594654 0.108407
H15   H     H_    0.036827 0.798699 0.367224 0.110140
H16   H     H_    0.035809 0.200323 0.632956 0.110077
H17   H     H_    0.964113 0.810538 0.405259 0.108355
H18   H     H_    0.572392 0.920221 0.381749 0.111977
H19   H     H_    0.427610 0.079777 0.618249 0.111828
H20   H     H_    0.610360 0.695555 0.934935 0.152613
H21   H     H_    0.559640 0.798875 0.903942 0.153830
H22   H     H_    0.605749 0.842979 0.028963 0.145844
H23   H     H_    0.571146 0.079798 0.625139 0.117812
H24   H     H_    0.533774 0.768732 0.155891 0.160437
H25   H     H_    0.583393 0.661642 0.183709 0.170664
H26   H     H_    0.440420 0.200966 0.095892 0.153586
H27   H     H_    0.389701 0.304413 0.065438 0.152070
H28   H     H_    0.394203 0.157123 0.971103 0.145997
H29   H     H_    0.416477 0.338669 0.816547 0.171301
H30   H     H_    0.466098 0.231430 0.843840 0.160504
H31   H     H_    0.428856 0.920203 0.374859 0.117750
H32   H     H_    0.498519 0.923570 0.745313 0.107938
H33   H     H_    0.501484 0.076428 0.254687 0.107939
H34   H     H_    0.469947 0.694572 0.901689 0.099573
H35   H     H_    0.530049 0.305423 0.098307 0.099698
H36   H     H_    0.579424 0.470586 0.902790 0.098439
N1    N     N_R   0.202131 0.498218 0.500206 -0.398006
N2    N     N_R   0.797807 0.501340 0.499813 -0.398652
N3    N     N_3   0.500040 0.499970 0.858290 -0.236246
N4    N     N_3   0.499960 0.500030 0.141710 -0.236224
O1    O     O_R   0.500020 0.316850 0.620870 -0.513734
O2    O     O_2   0.797389 0.714953 0.433220 -0.494067
O3    O     O_2   0.796685 0.287709 0.566322 -0.493363
O4    O     O_2   0.203181 0.705338 0.411257 -0.495353
O5    O     O_R   0.499980 0.683150 0.379130 -0.513661
O6    O     O_R   0.500000 0.316860 0.379090 -0.503861
O7    O     O_R   0.500000 0.683140 0.620910 -0.503848
O8    O     O_R   0.430270 0.500020 0.620880 -0.512228
O9    O     O_R   0.569730 0.499980 0.379120 -0.512005
O10   O     O_R   0.430250 0.500030 0.379090 -0.503914
O11   O     O_R   0.569750 0.499970 0.620910 -0.503950
O12   O     O_2   0.202500 0.291130 0.589250 -0.496059

loop_
_geom_bond_atom_site_label_1
_geom_bond_atom_site_label_2
_ccdc_geom_bond_type
C23   C58   A    
C30   C32   S    
C3    C42   A    
C23   C45   A    
Cu1   N3    S    
C14   H11   S    
C24   C27   S    
C57   H6    S    
C51   H25   S    
C16   O10   A    
C47   C49   A    
C4    C46   A    
C53   C54   S    
C19   C57   A    
C40   H10   S    
C30   C35   S    
C24   C26   S    
C5    C11   A    
C47   H3    S    
C54   H27   S    
C11   C14   A    
C48   H4    S    
C40   C49   A    
C29   C33   S    
C19   H17   S    
C38   O4    S    
Cu2   O9    S    
C38   C58   A    
C2    C39   A    
C3    C16   S    
C13   H15   S    
C45   C56   A    
C22   C25   S    
C36   O12   S    
Cu1   O11   S    
C36   N1    A    
C31   N3    S    
C21   H31   S    
C46   H12   S    
C44   C47   A    
C18   C56   A    
C1    O6    A    
C2    C34   A    
C40   C42   A    
Cu1   Cu2   S    
C22   C28   S    
C42   H8    S    
C41   C43   A    
C38   N1    A    
C17   O11   A    
C37   N2    A    
C30   C53   S    
C46   C48   A    
C3    C44   A    
C1    C26   S    
C50   N2    S    
C51   C52   S    
Cu1   O1    S    
C36   C45   A    
C22   H18   S    
C54   H26   S    
C39   N2    A    
C30   N3    S    
C8    C18   A    
C37   O2    S    
C32   N4    S    
C28   H33   S    
C33   N3    S    
C5    C9    A    
C5    C8    A    
C24   H19   S    
C27   H32   S    
C52   H22   S    
C4    C17   S    
C8    C10   A    
C15   H13   S    
C21   C28   S    
C20   C22   S    
C7    C19   A    
C55   C57   A    
C53   H29   S    
C9    C34   A    
C44   H1    S    
C15   C58   A    
C31   C35   S    
C21   C24   S    
C35   N4    S    
C33   H36   S    
C1    O1    A    
C41   C50   A    
Cu2   O6    S    
C41   H9    S    
C29   C51   S    
C7    C9    A    
C21   C25   S    
C18   H16   S    
C29   N4    S    
Cu2   N4    S    
C11   H14   S    
C17   O9    A    
C6    C10   A    
C12   O7    A    
C39   O3    S    
C6    C7    A    
C20   C27   S    
C10   C23   A    
C25   C27   S    
C31   H34   S    
C26   C28   S    
Cu1   O8    S    
C12   C25   S    
C32   C33   S    
C13   C15   A    
C29   C31   S    
C6    C13   A    
C54   H28   S    
C12   O5    A    
C20   C26   S    
C48   C50   A    
C4    C43   A    
C35   H2    S    
C52   H21   S    
C2    C14   A    
Cu1   O7    S    
Cu2   O10   S    
C16   O8    A    
C49   N1    S    
C37   C55   A    
C34   C55   A    
C32   H35   S    
C43   H7    S    
C20   H23   S    
C53   H30   S    
C52   H20   S    
C51   H24   S    
Cu2   O5    S    
C56   H5    S    
