data_mof_unit_6946.cif
_audit_creation_date              2012-12-10T17:31:09-0500
_audit_creation_method            fapswitch 2.2
_symmetry_space_group_name_H-M    P1
_symmetry_Int_Tables_number       1
_space_group_crystal_system       triclinic
_cell_length_a                    11.983677
_cell_length_b                    12.844687
_cell_length_c                    15.430934
_cell_angle_alpha                 86.886238
_cell_angle_beta                  117.012268
_cell_angle_gamma                 93.907825
_cell_volume                      2110.46569181

loop_
_atom_site_label
_atom_site_type_symbol
_atom_type_description
_atom_site_fract_x
_atom_site_fract_y
_atom_site_fract_z
_atom_type_partial_charge
C1    C     C_R   0.477298 0.299325 0.499443 0.899468
C2    C     C_R   0.522466 0.700666 0.499866 0.920043
C3    C     C_R   0.643767 0.471386 0.119113 -0.174319
C4    C     C_R   0.370258 0.532347 0.886060 -0.191767
C5    C     C_R   0.735365 0.461687 0.088770 -0.187621
C6    C     C_R   0.288843 0.566676 0.918548 -0.142523
C7    C     C_R   0.536298 0.812134 0.497834 -0.137981
C8    C     C_R   0.461896 0.187994 0.496012 -0.143095
C9    C     C_R   0.329264 0.032293 0.440335 0.515059
C10   C     C_R   0.667426 0.969946 0.539122 0.516817
C11   C     C_R   0.342552 0.138637 0.456120 -0.300014
C12   C     C_R   0.655244 0.862168 0.534048 -0.288882
C13   C     C_R   0.569145 0.131947 0.525687 -0.250504
C14   C     C_R   0.428366 0.868332 0.463373 -0.233488
C15   C     C_R   0.558883 0.026159 0.511828 -0.002175
C16   C     C_R   0.437974 0.975323 0.470656 -0.011778
C17   C     C_R   0.007215 0.608763 0.418929 -0.321514
C18   C     C_R   0.992687 0.391180 0.580975 -0.316254
C19   C     C_R   0.127321 0.597552 0.426368 0.017985
C20   C     C_R   0.872961 0.402847 0.574120 0.038849
C21   C     C_R   0.158035 0.451211 0.533577 -0.015388
C22   C     C_R   0.841404 0.548291 0.465718 -0.034897
C23   C     C_R   0.577966 0.490398 0.681687 0.904192
C24   C     C_R   0.421566 0.506337 0.318561 0.927153
C25   C     C_R   0.038014 0.459891 0.528884 0.075877
C26   C     C_R   0.961561 0.539739 0.470588 0.084159
C27   C     C_R   0.628252 0.472183 0.788061 -0.258701
C28   C     C_R   0.369829 0.514906 0.212161 -0.262587
C29   C     C_R   0.794899 0.453519 0.955352 -0.026020
C30   C     C_R   0.240207 0.597783 0.054075 -0.033708
C31   C     C_R   0.758302 0.472107 0.854463 -0.147100
C32   C     C_R   0.269289 0.578924 0.153304 -0.125248
C33   C     C_R   0.540743 0.448610 0.823658 0.427690
C34   C     C_R   0.437042 0.468528 0.171923 0.380529
C35   C     C_R   0.575507 0.465531 0.921289 -0.063283
C36   C     C_R   0.424848 0.502908 0.080810 -0.040198
C37   C     C_R   0.703149 0.458167 0.989350 0.051181
C38   C     C_R   0.316952 0.556748 0.017224 0.049799
C39   C     C_R   0.485735 0.490593 0.951605 0.069930
C40   C     C_R   0.517282 0.484136 0.051208 0.096360
H1    H     H_    0.831594 0.461037 0.144329 0.186693
H2    H     H_    0.203361 0.599729 0.864793 0.196017
H3    H     H_    0.838818 0.349484 0.614410 0.150329
H4    H     H_    0.161989 0.651712 0.387001 0.136869
H5    H     H_    0.950885 0.671216 0.373491 0.148702
H6    H     H_    0.049219 0.328927 0.626626 0.150480
H7    H     H_    0.675966 0.479042 0.196343 0.198005
H8    H     H_    0.345631 0.547884 0.810185 0.204952
H9    H     H_    0.336767 0.827955 0.433765 0.201309
H10   H     H_    0.661141 0.171538 0.558675 0.194954
H11   H     H_    0.738775 0.817775 0.560758 0.178099
H12   H     H_    0.259625 0.182921 0.433702 0.173935
H13   H     H_    0.781454 0.609086 0.420742 0.124973
H14   H     H_    0.217385 0.389976 0.577920 0.147781
N1    N     N_R   0.799120 0.480200 0.517090 -0.101361
N2    N     N_R   0.200880 0.519800 0.482910 -0.100769
O1    O     O_R   0.580150 0.341050 0.504560 -0.628709
O2    O     O_R   0.419850 0.658950 0.495440 -0.623445
O3    O     O_R   0.388090 0.353760 0.493600 -0.634428
O4    O     O_R   0.611910 0.646240 0.506400 -0.633774
O5    O     O_R   0.650890 0.490020 0.640860 -0.632818
O6    O     O_R   0.349110 0.509980 0.359140 -0.641923
O7    O     O_R   0.458830 0.502730 0.629890 -0.548601
O8    O     O_R   0.541170 0.497270 0.370110 -0.562001
Zn1   Zn    Zn3+2 0.628240 0.491510 0.507320 0.952531
Zn2   Zn    Zn3+2 0.371760 0.508490 0.492680 0.954633
O9    O     O_3   0.517126 0.389888 0.223240 -0.645001
C41   C     C_3   0.446287 0.294246 0.207722 0.107208
H15   H     H_    0.401417 0.275145 0.129088 0.146689
H16   H     H_    0.372486 0.297507 0.232506 0.131115
C42   C     C_3   0.533717 0.207893 0.266184 -0.328599
H17   H     H_    0.607552 0.202910 0.242030 0.227262
H18   H     H_    0.579999 0.227125 0.344525 0.233866
C43   C     C_3   0.462113 0.102388 0.253280 -0.961505
H19   H     H_    0.389299 0.105566 0.278506 0.261885
H20   H     H_    0.527756 0.041321 0.296851 0.264230
H21   H     H_    0.416675 0.080763 0.175591 0.276815
O10   O     O_3   0.420432 0.410540 0.762156 -0.651650
C44   C     C_3   0.405715 0.303193 0.783222 0.067941
H22   H     H_    0.305778 0.286654 0.766243 0.163385
H23   H     H_    0.461834 0.280520 0.861478 0.144015
C45   C     C_3   0.436790 0.236010 0.718778 -0.364531
H24   H     H_    0.374002 0.254795 0.641338 0.234012
H25   H     H_    0.535432 0.253438 0.732421 0.222137
C46   C     C_3   0.419041 0.119821 0.737916 -0.898896
H26   H     H_    0.482329 0.098242 0.814745 0.268296
H27   H     H_    0.441708 0.073834 0.689537 0.276976
H28   H     H_    0.320252 0.100075 0.722702 0.265054
C47   C     C_2   0.197122 0.628247 0.195556 0.354024
H29   H     H_    0.155990 0.580984 0.235031 0.096540
O11   O     O_2   0.183367 0.722203 0.186567 -0.600630
C48   C     C_2   0.854563 0.489059 0.818965 0.381976
H30   H     H_    0.852095 0.556819 0.773093 0.096451
O12   O     O_2   0.935473 0.426434 0.838817 -0.584642
C49   C     C_2   0.928138 0.434264 0.023750 0.427946
H31   H     H_    0.003563 0.475263 0.013850 0.064948
O13   O     O_2   0.954795 0.368156 0.089079 -0.597142
C50   C     C_2   0.134035 0.664755 0.992454 0.469954
H32   H     H_    0.048266 0.658328 0.000220 0.048527
O14   O     O_2   0.144086 0.732006 0.937065 -0.570441
O15   O     O_3   0.210139 0.984478 0.399799 -0.662524
C51   C     C_3   0.168267 0.971270 0.298998 0.049101
H33   H     H_    0.099516 0.903389 0.276835 0.192211
H34   H     H_    0.244627 0.951814 0.281011 0.163474
C52   C     C_3   0.102353 0.067871 0.239754 -0.389154
H35   H     H_    0.025444 0.085363 0.257288 0.244638
H36   H     H_    0.169969 0.136397 0.258541 0.218436
C53   C     C_3   0.048083 0.050879 0.130740 -0.837634
H37   H     H_    0.124025 0.035256 0.111450 0.269104
H38   H     H_    0.977896 0.984022 0.108970 0.263317
H39   H     H_    0.001240 0.122025 0.089909 0.287669
O16   O     O_3   0.786498 0.017957 0.580084 -0.641983
C54   C     C_3   0.816121 0.059451 0.505675 0.052266
H40   H     H_    0.884730 0.126485 0.536180 0.172639
H41   H     H_    0.733879 0.091192 0.441468 0.125316
C55   C     C_3   0.876529 0.977861 0.473683 -0.359120
H42   H     H_    0.957631 0.946189 0.538401 0.247302
H43   H     H_    0.807259 0.912486 0.438556 0.209563
C56   C     C_3   0.921492 0.024957 0.401415 -0.904982
H44   H     H_    0.841906 0.057599 0.336230 0.254323
H45   H     H_    0.961623 0.963292 0.377876 0.286956
H46   H     H_    0.995099 0.087756 0.435781 0.272396

loop_
_geom_bond_atom_site_label_1
_geom_bond_atom_site_label_2
_ccdc_geom_bond_type
C19   N2    A    
C31   C48   S    
O15   C51   S    
C5    C37   A    
C1    C8    S    
C2    C7    S    
C20   H3    S    
C46   H26   S    
C55   H42   S    
C52   H36   S    
C8    C13   A    
C43   H20   S    
C17   C26   A    
C35   C37   A    
C9    C16   A    
C17   H5    S    
C10   C15   A    
C1    O3    A    
O3    Zn2   S    
C21   H14   S    
C2    O4    A    
C33   O10   S    
C46   H28   S    
C14   H9    S    
C15   C16   A    
C53   H37   S    
C30   C38   A    
C51   C52   S    
C21   C25   A    
C11   H12   S    
C42   C43   S    
C33   C35   A    
O2    Zn2   S    
C7    C14   A    
C49   H31   S    
C53   H38   S    
C41   H15   S    
C43   H21   S    
C6    C38   A    
C10   O16   S    
C23   C27   S    
C47   O11   D    
C18   C20   A    
C54   C55   S    
C23   O7    A    
O7    Zn2   S    
C28   C34   A    
C24   O8    A    
C18   C25   A    
C20   N1    A    
C18   H6    S    
O16   C54   S    
N1    Zn1   S    
C22   H13   S    
C56   H45   S    
C7    C12   A    
C52   C53   S    
C43   H19   S    
O6    Zn2   S    
C46   H27   S    
C27   C31   A    
O9    C41   S    
C55   C56   S    
C36   C40   A    
C4    C6    A    
C39   C40   A    
C42   H18   S    
O10   C44   S    
C25   C26   A    
C27   C33   A    
C13   H10   S    
C35   C39   A    
C1    O1    A    
C21   N2    A    
C32   C47   S    
C4    C39   A    
C28   C32   A    
C48   O12   D    
C51   H34   S    
C9    C11   A    
C10   C12   A    
C9    O15   S    
O4    Zn1   S    
C50   H32   S    
C50   O14   D    
C13   C15   A    
C6    H2    S    
C14   C16   A    
C12   H11   S    
C19   H4    S    
C29   C49   S    
C54   H40   S    
C4    H8    S    
C56   H46   S    
C5    H1    S    
C49   O13   D    
C24   O6    A    
C24   C28   S    
O1    Zn1   S    
C3    C5    A    
C34   O9    S    
C3    C40   A    
C44   C45   S    
C56   H44   S    
C2    O2    A    
C41   C42   S    
C22   N1    A    
C45   C46   S    
C52   H35   S    
C30   C50   S    
C45   H25   S    
C53   H39   S    
O8    Zn1   S    
C36   C38   A    
C42   H17   S    
C29   C31   A    
C30   C32   A    
C8    C11   A    
N2    Zn2   S    
C3    H7    S    
C48   H30   S    
C17   C19   A    
C55   H43   S    
C34   C36   A    
C44   H23   S    
C51   H33   S    
C44   H22   S    
O5    Zn1   S    
C23   O5    A    
C41   H16   S    
C45   H24   S    
C22   C26   A    
C29   C37   A    
C47   H29   S    
C54   H41   S    
