data_mof_unit_41013.cif
_audit_creation_date              2012-12-11T15:17:59-0500
_audit_creation_method            fapswitch 2.2
_symmetry_space_group_name_H-M    P1
_symmetry_Int_Tables_number       1
_space_group_crystal_system       triclinic
_cell_length_a                    15.681099
_cell_length_b                    15.748536
_cell_length_c                    34.504182
_cell_angle_alpha                 89.630922
_cell_angle_beta                  90.353264
_cell_angle_gamma                 120.109808
_cell_volume                      7370.99188108

loop_
_atom_site_label
_atom_site_type_symbol
_atom_type_description
_atom_site_fract_x
_atom_site_fract_y
_atom_site_fract_z
_atom_type_partial_charge
C1    C     C_R   0.578016 0.441318 0.555079 0.576347
C2    C     C_R   0.558462 0.136430 0.555130 0.594583
C3    C     C_R   0.863629 0.421569 0.555088 0.570299
C4    C     C_R   0.441893 0.577623 0.054951 0.581261
C5    C     C_R   0.136244 0.558080 0.054956 0.593987
C6    C     C_R   0.421998 0.862853 0.055185 0.594884
C7    C     C_R   0.954420 0.475041 0.716043 0.348149
C8    C     C_R   0.506770 0.472298 0.714573 0.347107
C9    C     C_R   0.513229 0.018776 0.713766 0.344110
C10   C     C_R   0.557765 0.084844 0.196747 0.344124
C11   C     C_R   0.496088 0.485669 0.210177 0.346919
C12   C     C_R   0.010958 0.508911 0.212343 0.343877
C13   C     C_R   0.953201 0.425764 0.864177 0.253121
C14   C     C_R   0.539563 0.492503 0.863167 0.268955
C15   C     C_R   0.439379 0.015706 0.857336 0.282825
C16   C     C_R   0.501043 0.158453 0.333722 0.269239
C17   C     C_R   0.577811 0.567323 0.352011 0.273018
C18   C     C_R   0.011708 0.439063 0.356522 0.280315
C19   C     C_R   0.997465 0.446161 0.901361 0.249012
C20   C     C_R   0.526032 0.514575 0.901503 0.222588
C21   C     C_R   0.418303 0.978969 0.895346 0.253717
C22   C     C_R   0.493767 0.153129 0.374551 0.251846
C23   C     C_R   0.595251 0.557270 0.391154 0.251368
C24   C     C_R   0.977014 0.419053 0.394778 0.246474
C25   C     C_R   0.114791 0.613741 0.880142 0.012269
C26   C     C_R   0.401250 0.552357 0.877624 0.046909
C27   C     C_R   0.544243 0.931492 0.890663 0.035936
C28   C     C_R   0.642551 0.140894 0.378641 0.020219
C29   C     C_R   0.451757 0.392387 0.391819 0.055697
C30   C     C_R   0.921460 0.538530 0.388518 0.027901
C31   C     C_R   0.072609 0.591714 0.843609 -0.130452
C32   C     C_R   0.412550 0.526531 0.840475 -0.176554
C33   C     C_R   0.563640 0.967548 0.852722 -0.177518
C34   C     C_R   0.642160 0.134769 0.338396 -0.127488
C35   C     C_R   0.437533 0.401751 0.352228 -0.151555
C36   C     C_R   0.955417 0.556698 0.350357 -0.168648
C37   C     C_R   0.994458 0.498520 0.835035 -0.038957
C38   C     C_R   0.481290 0.497449 0.832925 -0.028851
C39   C     C_R   0.506448 0.002005 0.834847 -0.047588
C40   C     C_R   0.574685 0.146515 0.315447 -0.033667
C41   C     C_R   0.504516 0.485610 0.331535 -0.045819
C42   C     C_R   0.993629 0.502581 0.333311 -0.044082
C43   C     C_R   0.080047 0.539760 0.909094 -0.007776
C44   C     C_R   0.457231 0.546158 0.908375 0.035202
C45   C     C_R   0.464608 0.928787 0.910970 -0.008985
C46   C     C_R   0.570135 0.154506 0.397602 -0.027380
C47   C     C_R   0.538216 0.465632 0.410159 -0.016525
C48   C     C_R   0.924871 0.463234 0.410021 -0.010947
C49   C     C_R   0.577065 0.442924 0.445691 0.566865
C50   C     C_R   0.578567 0.182285 0.439541 0.576114
C51   C     C_R   0.864277 0.422514 0.445396 0.561408
C52   C     C_R   0.443354 0.576857 0.946484 0.585314
C53   C     C_R   0.135401 0.557925 0.945597 0.585495
C54   C     C_R   0.422801 0.865155 0.945606 0.568413
C55   C     C_R   0.915228 0.452502 0.593025 0.064136
C56   C     C_R   0.544826 0.459933 0.592658 0.081427
C57   C     C_R   0.538229 0.081662 0.592310 0.079638
C58   C     C_R   0.464758 0.929044 0.089016 0.098033
C59   C     C_R   0.464004 0.539357 0.090872 0.082866
C60   C     C_R   0.079438 0.536245 0.091577 0.084067
C61   C     C_R   0.942110 0.390337 0.613027 0.078082
C62   C     C_R   0.606896 0.546765 0.613552 0.069307
C63   C     C_R   0.446751 0.047593 0.611256 0.066762
C64   C     C_R   0.430885 0.993686 0.099644 0.063039
C65   C     C_R   0.556940 0.593265 0.109320 0.060451
C66   C     C_R   0.045981 0.445149 0.110761 0.068980
C67   C     C_R   0.958160 0.400743 0.653077 -0.110902
C68   C     C_R   0.591920 0.551015 0.653163 -0.122838
C69   C     C_R   0.437496 0.021966 0.650481 -0.124857
C70   C     C_R   0.465465 0.048646 0.133831 -0.124831
C71   C     C_R   0.568956 0.570940 0.147564 -0.128725
C72   C     C_R   0.018151 0.434860 0.149683 -0.122953
C73   C     C_R   0.950363 0.473140 0.673392 -0.008804
C74   C     C_R   0.514309 0.471498 0.672226 -0.004714
C75   C     C_R   0.517401 0.028373 0.671238 -0.005838
C76   C     C_R   0.534101 0.040971 0.157649 -0.004466
C77   C     C_R   0.490101 0.495122 0.167827 -0.006131
C78   C     C_R   0.021737 0.513331 0.169872 -0.005323
C79   C     C_R   0.937682 0.542853 0.652768 -0.109746
C80   C     C_R   0.445254 0.390996 0.650741 -0.111369
C81   C     C_R   0.603742 0.050215 0.651440 -0.111778
C82   C     C_R   0.572049 0.981627 0.145810 -0.127136
C83   C     C_R   0.402305 0.434002 0.148038 -0.112085
C84   C     C_R   0.042373 0.598831 0.149621 -0.110825
C85   C     C_R   0.921922 0.534524 0.612621 0.066738
C86   C     C_R   0.459055 0.384499 0.611003 0.064788
C87   C     C_R   0.614942 0.076081 0.612120 0.061041
C88   C     C_R   0.537730 0.925302 0.112165 0.051841
C89   C     C_R   0.388604 0.454257 0.109637 0.064168
C90   C     C_R   0.070290 0.610978 0.110590 0.061553
C91   C     C_R   0.964293 0.479534 0.794448 0.349886
C92   C     C_R   0.493020 0.478415 0.792500 0.359758
C93   C     C_R   0.510998 0.013480 0.792341 0.343854
C94   C     C_R   0.576438 0.135111 0.272828 0.364821
C95   C     C_R   0.500997 0.485252 0.288788 0.363553
C96   C     C_R   0.004922 0.506722 0.290882 0.348368
Cr1   Cr    Cr6+3 0.522350 0.263930 0.500020 1.062112
Cr2   Cr    Cr6+3 0.736070 0.258420 0.500020 1.034282
Cr3   Cr    Cr6+3 0.741580 0.477650 0.500020 1.053666
Cr4   Cr    Cr6+3 0.263930 0.522350 0.000020 1.049093
Cr5   Cr    Cr6+3 0.258420 0.736070 0.000020 1.044324
Cr6   Cr    Cr6+3 0.477650 0.741580 0.000020 1.050382
H1    H     H_    0.973220 0.349608 0.668545 0.136609
H2    H     H_    0.642804 0.616149 0.669171 0.136351
H3    H     H_    0.368571 0.001030 0.664972 0.139335
H4    H     H_    0.436070 0.095088 0.142212 0.134368
H5    H     H_    0.639001 0.616610 0.161897 0.139784
H6    H     H_    0.997978 0.366434 0.164449 0.141547
H7    H     H_    0.937212 0.602493 0.668034 0.137712
H8    H     H_    0.382712 0.331020 0.665207 0.134321
H9    H     H_    0.664577 0.051359 0.666939 0.136729
H10   H     H_    0.625422 0.974751 0.163623 0.139065
H11   H     H_    0.342461 0.372391 0.162965 0.133292
H12   H     H_    0.040901 0.658321 0.164582 0.137985
H13   H     H_    0.103257 0.647764 0.821220 0.181512
H14   H     H_    0.369171 0.532215 0.817063 0.152538
H15   H     H_    0.619341 0.962180 0.836267 0.147613
H16   H     H_    0.697722 0.123111 0.324960 0.186960
H17   H     H_    0.376808 0.341217 0.337214 0.156179
H18   H     H_    0.945584 0.608896 0.333105 0.160332
N1    N     N_R   0.980653 0.415596 0.774304 -0.243194
N2    N     N_R   0.580833 0.533290 0.774642 -0.221912
N3    N     N_R   0.433005 0.005901 0.772124 -0.158272
N4    N     N_R   0.518910 0.153498 0.248687 -0.170928
N5    N     N_R   0.582996 0.545344 0.268077 -0.152773
N6    N     N_R   0.995752 0.428331 0.271126 -0.158973
N7    N     N_R   0.974608 0.412494 0.735870 -0.240024
N8    N     N_R   0.587720 0.529946 0.736373 -0.226152
N9    N     N_R   0.434348 0.009129 0.733603 -0.231119
N10   N     N_R   0.509489 0.128723 0.211435 -0.247738
N11   N     N_R   0.580476 0.546063 0.229581 -0.230459
N12   N     N_R   0.999345 0.429651 0.232616 -0.227743
N13   N     N_R   0.937722 0.538940 0.736252 -0.225635
N14   N     N_R   0.419142 0.416046 0.732537 -0.233837
N15   N     N_R   0.590991 0.025893 0.733990 -0.236879
N16   N     N_R   0.618705 0.070421 0.220476 -0.232554
N17   N     N_R   0.414575 0.423771 0.230877 -0.239688
N18   N     N_R   0.019713 0.587079 0.232139 -0.231105
N19   N     N_R   0.943635 0.541884 0.774733 -0.234197
N20   N     N_R   0.412200 0.419941 0.770792 -0.240597
N21   N     N_R   0.589575 0.022593 0.772480 -0.262975
N22   N     N_R   0.627874 0.095060 0.257665 -0.243091
N23   N     N_R   0.417094 0.423164 0.269428 -0.260187
N24   N     N_R   0.016153 0.585775 0.270619 -0.242534
O1    O     O_R   0.498680 0.159540 0.541860 -0.467794
O2    O     O_R   0.840460 0.339140 0.541860 -0.473580
O3    O     O_R   0.660860 0.501320 0.541860 -0.474628
O4    O     O_R   0.159540 0.498680 0.041860 -0.467363
O5    O     O_R   0.339140 0.840460 0.041860 -0.477561
O6    O     O_R   0.501320 0.660860 0.041860 -0.477757
O7    O     O_R   0.532760 0.358060 0.540030 -0.484355
O8    O     O_R   0.641940 0.174700 0.540030 -0.472701
O9    O     O_R   0.825300 0.467240 0.540030 -0.478546
O10   O     O_R   0.358060 0.532760 0.040030 -0.484325
O11   O     O_R   0.174700 0.641940 0.040030 -0.481874
O12   O     O_R   0.467240 0.825300 0.040030 -0.480177
O13   O     O_R   0.498590 0.161190 0.456930 -0.476865
O14   O     O_R   0.838810 0.337400 0.456930 -0.510092
O15   O     O_R   0.662600 0.501410 0.456930 -0.466490
O16   O     O_R   0.161190 0.498590 0.956930 -0.514863
O17   O     O_R   0.337400 0.838810 0.956930 -0.495486
O18   O     O_R   0.501410 0.662600 0.956930 -0.519974
O19   O     O_R   0.532680 0.359580 0.461300 -0.481204
O20   O     O_R   0.640420 0.173100 0.461300 -0.528995
O21   O     O_R   0.826900 0.467320 0.461300 -0.480328
O22   O     O_R   0.359580 0.532680 0.961300 -0.482971
O23   O     O_R   0.173100 0.640420 0.961300 -0.516393
O24   O     O_R   0.467320 0.826900 0.961300 -0.473625
O25   O     O_3   0.666667 0.333333 0.499990 -0.285832
O26   O     O_3   0.333333 0.666667 0.999990 -0.262446
N25   N     N_3   0.949129 0.314262 0.592970 -0.585753
H19   H     H_    0.964434 0.272132 0.612270 0.216194
H20   H     H_    0.009324 0.348602 0.574211 0.216409
N26   N     N_3   0.687211 0.629990 0.595072 -0.598061
H21   H     H_    0.676437 0.689924 0.598270 0.216135
H22   H     H_    0.752121 0.646208 0.609735 0.243497
N27   N     N_3   0.363787 0.042239 0.591277 -0.598871
H23   H     H_    0.305431 0.969855 0.592922 0.218256
H24   H     H_    0.342644 0.086750 0.605835 0.240760
N28   N     N_3   0.360664 0.003271 0.076026 -0.615622
H25   H     H_    0.298653 0.985009 0.092947 0.234039
H26   H     H_    0.391781 0.076907 0.067793 0.217593
N29   N     N_3   0.638916 0.672516 0.089798 -0.606820
H27   H     H_    0.695830 0.656260 0.088723 0.221440
H28   H     H_    0.663665 0.735987 0.106384 0.229805
N30   N     N_3   0.043273 0.363620 0.091367 -0.594914
H29   H     H_    0.970872 0.304764 0.092260 0.222180
H30   H     H_    0.087675 0.343143 0.106858 0.238455
N31   N     N_3   0.909128 0.607100 0.592051 -0.591199
H31   H     H_    0.967571 0.641939 0.572526 0.216458
H32   H     H_    0.915447 0.661659 0.610920 0.210264
N32   N     N_3   0.388196 0.299846 0.589693 -0.592700
H33   H     H_    0.354162 0.323721 0.569751 0.215667
H34   H     H_    0.332532 0.249497 0.607949 0.212999
N33   N     N_3   0.705804 0.101095 0.592915 -0.570812
H35   H     H_    0.690228 0.045786 0.572785 0.217614
H36   H     H_    0.757115 0.101110 0.612421 0.225687
N34   N     N_3   0.573952 0.860512 0.102869 -0.591887
H37   H     H_    0.650574 0.902400 0.100103 0.220895
H38   H     H_    0.558119 0.811830 0.126068 0.230051
N35   N     N_3   0.296825 0.390567 0.090338 -0.589656
H39   H     H_    0.311861 0.354833 0.068265 0.222625
H40   H     H_    0.247480 0.335659 0.109101 0.210484
N36   N     N_3   0.093422 0.700753 0.090871 -0.588896
H41   H     H_    0.038650 0.683511 0.069955 0.221823
H42   H     H_    0.090121 0.750561 0.109826 0.218594
O27   O     O_3   0.951424 0.380707 0.931592 -0.533134
C97   C     C_3   0.975173 0.305070 0.930903 0.020698
H43   H     H_    0.040921 0.325627 0.949238 0.165948
H44   H     H_    0.991435 0.288472 0.901444 0.095304
C98   C     C_3   0.889943 0.212053 0.948079 -0.371337
H45   H     H_    0.906390 0.151274 0.946781 0.083656
H46   H     H_    0.878883 0.224640 0.978818 0.163661
H47   H     H_    0.820940 0.190573 0.931703 0.164596
O28   O     O_3   0.569075 0.490084 0.931605 -0.549206
C99   C     C_3   0.638676 0.574318 0.952107 -0.011850
H48   H     H_    0.602981 0.584877 0.977847 0.164061
H49   H     H_    0.672394 0.642664 0.934154 0.113703
C100  C     C_3   0.720830 0.557846 0.967047 -0.364525
H50   H     H_    0.758991 0.545751 0.942556 0.158092
H51   H     H_    0.775329 0.623085 0.983614 0.098254
H52   H     H_    0.689837 0.492635 0.986458 0.168221
O29   O     O_3   0.344815 0.984144 0.915352 -0.508571
C101  C     C_3   0.388733 0.057824 0.943926 0.009494
H53   H     H_    0.432725 0.131378 0.930225 0.128155
H54   H     H_    0.437316 0.044810 0.963805 0.119015
C102  C     C_3   0.308220 0.058012 0.968193 -0.341214
H55   H     H_    0.263979 0.985776 0.982788 0.174762
H56   H     H_    0.341838 0.116122 0.990603 0.094973
H57   H     H_    0.259083 0.072540 0.949438 0.157892
O30   O     O_3   0.412820 0.150015 0.391636 -0.507872
C103  C     C_3   0.343509 0.050748 0.400611 0.000659
H58   H     H_    0.374060 0.018697 0.421500 0.148782
H59   H     H_    0.320292 0.003795 0.374292 0.081695
C104  C     C_3   0.252669 0.045286 0.418687 -0.359798
H60   H     H_    0.217681 0.072739 0.397872 0.133061
H61   H     H_    0.198591 0.968015 0.426347 0.090400
H62   H     H_    0.273672 0.090535 0.445379 0.175938
O31   O     O_3   0.675651 0.634886 0.408979 -0.500282
C105  C     C_3   0.641787 0.680517 0.434904 0.007707
H63   H     H_    0.592249 0.628185 0.457373 0.113348
H64   H     H_    0.601719 0.711758 0.419101 0.106906
C106  C     C_3   0.729866 0.763866 0.455400 -0.346367
H65   H     H_    0.780075 0.818549 0.433836 0.158481
H66   H     H_    0.704334 0.800625 0.475821 0.088323
H67   H     H_    0.770702 0.734669 0.471925 0.167191
O32   O     O_3   0.986149 0.348418 0.415460 -0.506357
C107  C     C_3   0.062058 0.395366 0.443259 0.008465
H68   H     H_    0.045571 0.439077 0.464002 0.111238
H69   H     H_    0.133912 0.444484 0.429002 0.106627
C108  C     C_3   0.071813 0.317944 0.466239 -0.353636
H70   H     H_    0.090107 0.273980 0.446486 0.156667
H71   H     H_    0.131434 0.353942 0.488173 0.076439
H72   H     H_    0.001476 0.268443 0.481317 0.169098
O33   O     O_3   0.860172 0.344565 0.859056 -0.551153
C109  C     C_3   0.865395 0.266526 0.841391 -0.010333
H73   H     H_    0.851270 0.209755 0.863548 0.133168
H74   H     H_    0.937716 0.288042 0.827711 0.134787
C110  C     C_3   0.783998 0.218995 0.811111 -0.340967
H75   H     H_    0.792432 0.273252 0.788590 0.189348
H76   H     H_    0.787208 0.157394 0.797102 0.131108
H77   H     H_    0.710962 0.190166 0.825115 0.153613
O34   O     O_3   0.601465 0.455566 0.855990 -0.542412
C111  C     C_3   0.699601 0.534211 0.853773 -0.002966
H78   H     H_    0.720947 0.582667 0.879512 0.128862
H79   H     H_    0.710372 0.579742 0.827557 0.159882
C112  C     C_3   0.768814 0.493209 0.851403 -0.321998
H80   H     H_    0.751892 0.446756 0.825197 0.192626
H81   H     H_    0.846164 0.554569 0.849784 0.113071
H82   H     H_    0.760509 0.448308 0.877575 0.194970
O35   O     O_3   0.387208 0.057260 0.841745 -0.506785
C113  C     C_3   0.450469 0.159937 0.838960 0.006269
H83   H     H_    0.508900 0.178673 0.816949 0.141400
H84   H     H_    0.486166 0.192093 0.867289 0.130709
C114  C     C_3   0.390568 0.207148 0.826593 -0.321311
H85   H     H_    0.332763 0.191683 0.848435 0.159686
H86   H     H_    0.439699 0.287660 0.824090 0.152475
H87   H     H_    0.355178 0.177929 0.798034 0.179652
O36   O     O_3   0.447451 0.191030 0.312415 -0.511025
C115  C     C_3   0.350262 0.113779 0.305750 0.007566
H88   H     H_    0.303663 0.104047 0.331249 0.156524
H89   H     H_    0.347384 0.043320 0.298749 0.115985
C116  C     C_3   0.305658 0.141201 0.271994 -0.347280
H90   H     H_    0.348665 0.152449 0.245151 0.198009
H91   H     H_    0.228656 0.081474 0.266942 0.090545
H92   H     H_    0.305093 0.209796 0.278694 0.175059
O37   O     O_3   0.639327 0.655471 0.333554 -0.503482
C117  C     C_3   0.587439 0.706360 0.327458 -0.003052
H93   H     H_    0.555024 0.714273 0.354873 0.096842
H94   H     H_    0.527296 0.667961 0.305816 0.131473
C118  C     C_3   0.658245 0.808600 0.312006 -0.340394
H95   H     H_    0.690496 0.803371 0.284171 0.175950
H96   H     H_    0.618305 0.849332 0.307031 0.105343
H97   H     H_    0.718497 0.849507 0.333289 0.167455
O38   O     O_3   0.056422 0.389755 0.341570 -0.500043
C119  C     C_3   0.158692 0.456235 0.338007 0.000559
H98   H     H_    0.191186 0.496092 0.365599 0.091624
H99   H     H_    0.173609 0.510854 0.314629 0.136479
C120  C     C_3   0.210585 0.399888 0.327622 -0.347576
H100  H     H_    0.180569 0.359638 0.300015 0.185980
H101  H     H_    0.290632 0.452074 0.324055 0.099105
H102  H     H_    0.200018 0.346736 0.351027 0.148815
N37   N     N_3   0.195139 0.711429 0.886317 -0.590637
H103  H     H_    0.256782 0.708360 0.895923 0.258481
H104  H     H_    0.174564 0.745291 0.907271 0.281128
N38   N     N_3   0.333551 0.586851 0.884047 -0.597236
H105  H     H_    0.354573 0.648258 0.866313 0.235714
H106  H     H_    0.263461 0.532071 0.875190 0.229669
N39   N     N_3   0.601107 0.891843 0.907485 -0.576417
H107  H     H_    0.649457 0.890076 0.887202 0.217833
H108  H     H_    0.644984 0.940087 0.929291 0.219637
N40   N     N_3   0.716204 0.129743 0.399000 -0.604587
H109  H     H_    0.764085 0.195184 0.412992 0.299714
H110  H     H_    0.681987 0.072362 0.419037 0.241711
N41   N     N_3   0.380976 0.307230 0.412915 -0.533553
H111  H     H_    0.321917 0.261103 0.394952 0.233030
H112  H     H_    0.351473 0.331350 0.434419 0.195451
N42   N     N_3   0.877146 0.591572 0.404309 -0.541842
H113  H     H_    0.869132 0.634808 0.383094 0.255112
H114  H     H_    0.925944 0.639938 0.425044 0.218334

loop_
_geom_bond_atom_site_label_1
_geom_bond_atom_site_label_2
_ccdc_geom_bond_type
C18   O38   S    
C6    C58   S    
C36   C42   A    
O29   C101  S    
C99   C100  S    
N37   H104  S    
Cr2   O8    S    
N28   H25   S    
N25   H20   S    
C1    C56   S    
C7    N13   A    
C17   O37   S    
Cr5   O11   S    
C85   N31   S    
O35   C113  S    
C13   O33   S    
C109  C110  S    
C38   C92   S    
C80   C86   A    
Cr2   O25   S    
C66   C72   A    
C118  H95   S    
C113  H83   S    
Cr6   O24   S    
C12   N12   A    
C5    O4    A    
C107  H69   S    
C90   N36   S    
C2    O8    A    
C79   H7    S    
C50   O20   A    
C20   O28   S    
O34   C111  S    
C7    C73   S    
C69   H3    S    
C5    O11   A    
C31   C37   A    
C24   C48   A    
O28   C99   S    
C96   N24   A    
C56   C86   A    
C102  H55   S    
C8    C74   S    
N38   H105  S    
N4    N10   A    
Cr5   O26   S    
C32   H14   S    
C15   C39   A    
C16   C40   A    
C119  H98   S    
N13   N19   A    
C66   N30   S    
C56   C62   A    
C79   C85   A    
Cr3   O3    S    
C84   H12   S    
C21   O29   S    
Cr1   O1    S    
C93   N3    A    
C110  H76   S    
C58   C88   A    
C60   C90   A    
C4    O6    A    
C29   C35   A    
C86   N32   S    
C30   C36   A    
C87   N33   S    
C113  C114  S    
N33   H35   S    
C117  C118  S    
N34   H38   S    
N30   H29   S    
C117  H94   S    
Cr3   O21   S    
Cr6   O26   S    
C26   C32   A    
Cr3   O15   S    
C25   C43   A    
C2    C57   S    
C67   H1    S    
C27   C33   A    
C28   C46   A    
C17   C23   A    
C29   C47   A    
C18   C24   A    
C30   C48   A    
C118  H96   S    
C99   H49   S    
C18   C42   A    
C112  H82   S    
C68   C74   A    
N40   H109  S    
C59   C89   A    
N31   H32   S    
C61   C67   A    
N26   H21   S    
C72   C78   A    
C11   C77   S    
C6    O5    A    
C3    C55   S    
C8    N8    A    
C119  C120  S    
C72   H6    S    
C111  H78   S    
N27   H24   S    
C109  H74   S    
C69   C75   A    
C61   N25   S    
C44   C52   S    
C116  H92   S    
N35   H40   S    
C84   C90   A    
C31   H13   S    
C20   C44   A    
C57   C63   A    
C21   C45   A    
N39   H108  S    
C58   C64   A    
C83   C89   A    
C23   C47   A    
C8    N14   A    
C94   N22   A    
C114  H87   S    
C115  H88   S    
C76   C82   A    
C108  H72   S    
C34   H16   S    
C57   C87   A    
N32   H34   S    
C92   N2    A    
N5    N11   A    
N6    N12   A    
C104  H60   S    
C106  H67   S    
C73   C79   A    
C96   N6    A    
C9    N15   A    
C102  H56   S    
C26   N38   S    
C104  H62   S    
C12   N18   A    
C51   O21   A    
Cr6   O12   S    
C71   C77   A    
Cr4   O10   S    
C5    C60   S    
C29   N41   S    
C54   O24   A    
Cr4   O16   S    
C112  H80   S    
N18   N24   A    
C59   C65   A    
C100  H52   S    
C111  C112  S    
C82   C88   A    
C55   C61   A    
C105  H63   S    
C62   C68   A    
C54   O17   A    
C35   C41   A    
C120  H102  S    
C49   O19   A    
C1    O3    A    
C28   C34   A    
N15   N21   A    
C98   H47   S    
N36   H41   S    
C113  H84   S    
C91   N1    A    
C116  H90   S    
C49   O15   A    
C24   O32   S    
C7    N7    A    
C6    O12   A    
O33   C109  S    
C52   O18   A    
N33   H36   S    
C4    O10   A    
C95   N23   A    
C71   H5    S    
C83   H11   S    
O31   C105  S    
C115  C116  S    
C101  H53   S    
C108  H70   S    
C2    O1    A    
C42   C96   S    
N1    N7    A    
C106  H65   S    
C88   N34   S    
C39   C93   S    
N16   N22   A    
C43   C53   S    
C22   O30   S    
Cr2   O14   S    
N28   H26   S    
C97   H43   S    
Cr1   O19   S    
N38   H106  S    
O36   C115  S    
C27   N39   S    
C67   C73   A    
C27   C45   A    
C119  H99   S    
C60   C66   A    
N41   H111  S    
C74   C80   A    
C19   C43   A    
C13   C19   A    
C26   C44   A    
O27   C97   S    
C14   C20   A    
C70   H4    S    
C40   C94   S    
O38   C119  S    
Cr4   O26   S    
C105  C106  S    
C11   N11   A    
C82   H10   S    
C55   C85   A    
C120  H100  S    
C10   N10   A    
C23   O31   S    
C98   H45   S    
Cr6   O18   S    
Cr1   O7    S    
C81   C87   A    
Cr6   O6    S    
C91   N19   A    
C22   C46   A    
N30   H30   S    
C92   N20   A    
C101  C102  S    
C100  H50   S    
C93   N21   A    
C107  H68   S    
C25   N37   S    
C53   O16   A    
C16   C22   A    
C68   H2    S    
C10   N16   A    
C51   O14   A    
C30   N42   S    
C11   N17   A    
N32   H33   S    
C112  H81   S    
C41   C95   S    
C97   C98   S    
Cr3   O9    S    
C103  H58   S    
N40   H110  S    
C1    O7    A    
N2    N8    A    
N31   H31   S    
C36   H18   S    
N26   H22   S    
C14   O34   S    
C111  H79   S    
N27   H23   S    
C89   N35   S    
N25   H19   S    
C33   H15   S    
C116  H91   S    
N35   H39   S    
C35   H17   S    
N29   H27   S    
C110  H77   S    
C47   C49   S    
N39   H107  S    
C33   C39   A    
C34   C40   A    
C114  H86   S    
C115  H89   S    
C16   O36   S    
N29   H28   S    
N14   N20   A    
C64   N28   S    
C108  H71   S    
C14   C38   A    
C77   C83   A    
C62   N26   S    
C3    O9    A    
Cr1   O25   S    
Cr4   O22   S    
Cr5   O23   S    
C52   O22   A    
C10   C76   S    
C53   O23   A    
C48   C51   S    
C81   H9    S    
C106  H66   S    
C12   C78   S    
N42   H114  S    
N34   H37   S    
C64   C70   A    
C13   C37   A    
C107  C108  S    
N17   N23   A    
N37   H103  S    
N3    N9    A    
C19   O27   S    
C104  H61   S    
C15   O35   S    
C103  H59   S    
C50   O13   A    
C28   N40   S    
N41   H112  S    
C37   C91   S    
C63   C69   A    
C118  H97   S    
C99   H48   S    
C75   C81   A    
Cr2   O2    S    
C65   C71   A    
C103  C104  S    
Cr1   O13   S    
N42   H113  S    
C100  H51   S    
C95   N5    A    
C109  H73   S    
C105  H64   S    
C120  H101  S    
C98   H46   S    
C114  H85   S    
N36   H42   S    
C45   C54   S    
C32   C38   A    
O37   C117  S    
C70   C76   A    
C110  H75   S    
C65   N29   S    
C25   C31   A    
C101  H54   S    
Cr2   O20   S    
O32   C107  S    
Cr3   O25   S    
C9    N9    A    
C46   C50   S    
C63   N27   S    
C117  H93   S    
Cr5   O17   S    
Cr4   O4    S    
C4    C59   S    
Cr5   O5    S    
C17   C41   A    
C78   C84   A    
C15   C21   A    
C102  H57   S    
C3    O2    A    
C97   H44   S    
C80   H8    S    
O30   C103  S    
C9    C75   S    
C94   N4    A    
