data_mof_unit_14319.cif
_audit_creation_date              2012-12-10T19:02:43-0500
_audit_creation_method            fapswitch 2.2
_symmetry_space_group_name_H-M    P1
_symmetry_Int_Tables_number       1
_space_group_crystal_system       triclinic
_cell_length_a                    9.545273
_cell_length_b                    10.869613
_cell_length_c                    13.890157
_cell_angle_alpha                 90.641537
_cell_angle_beta                  84.77156
_cell_angle_gamma                 91.238997
_cell_volume                      1434.75797401

loop_
_atom_site_label
_atom_site_type_symbol
_atom_type_description
_atom_site_fract_x
_atom_site_fract_y
_atom_site_fract_z
_atom_type_partial_charge
C1    C     C_R   0.500942 0.737393 0.502631 0.798563
C2    C     C_1   0.464335 0.500754 0.786150 -0.174041
C3    C     C_R   0.375429 0.931426 0.506991 0.040244
C4    C     C_R   0.500655 0.869982 0.512234 -0.104808
C5    C     C_R   0.622627 0.938551 0.528790 -0.217626
C6    C     C_R   0.620754 0.067175 0.527567 -0.229411
C7    C     C_R   0.497236 0.128493 0.509006 -0.068937
C8    C     C_R   0.373569 0.058146 0.503880 0.032215
C9    C     C_3   0.262992 0.052611 0.433112 0.003436
C10   C     C_3   0.265883 0.912583 0.437784 0.059502
C11   C     C_R   0.935571 0.457311 0.421634 0.180561
C12   C     C_R   0.477285 0.500312 0.682992 0.817115
C13   C     C_R   0.916941 0.559544 0.570346 -0.203876
C14   C     C_R   0.067339 0.559406 0.571588 0.577293
C15   C     C_R   0.082982 0.460028 0.420798 0.121477
C16   C     C_3   0.095213 0.336551 0.375608 -0.508198
C17   C     C_3   0.935659 0.329884 0.379728 0.045272
C18   C     C_R   0.498833 0.262005 0.500780 0.808929
C19   C     C_R   0.522776 0.499480 0.317071 0.831925
C20   C     C_1   0.536912 0.497549 0.214032 -0.194413
C21   C     C_2   0.567024 0.494022 0.022463 0.486777
C22   C     C_2   0.449856 0.500871 0.976659 -0.239775
C23   C     C_1   0.456217 0.500993 0.872963 0.067404
C24   C     C_1   0.550152 0.495783 0.127241 -0.177639
Cu1   Cu    Cu3+1 0.359330 0.500020 0.500000 0.990951
Cu2   Cu    Cu3+1 0.640670 0.499980 0.500000 0.937546
H1    H     H_    0.347006 0.505520 0.017066 0.110320
H2    H     H_    0.150029 0.340203 0.301486 0.215231
H3    H     H_    0.139248 0.273597 0.425493 0.197770
H4    H     H_    0.887516 0.259411 0.430937 0.152126
H5    H     H_    0.720209 0.893426 0.538720 0.160589
H6    H     H_    0.717445 0.117874 0.537198 0.158548
H7    H     H_    0.161533 0.088978 0.465450 0.107743
H8    H     H_    0.305342 0.862483 0.370908 0.153692
H9    H     H_    0.852127 0.608377 0.625205 0.166649
N1    N     N_R   0.852140 0.499070 0.499400 -0.218612
N2    N     N_R   0.148050 0.499110 0.499400 -0.218450
O1    O     O_R   0.381190 0.680360 0.500000 -0.525719
O2    O     O_R   0.618770 0.680320 0.499990 -0.594806
O3    O     O_R   0.364410 0.500000 0.637850 -0.547742
O4    O     O_R   0.602000 0.499960 0.637840 -0.573271
O5    O     O_R   0.381230 0.319680 0.500010 -0.577734
O6    O     O_R   0.618810 0.319640 0.500000 -0.594010
O7    O     O_R   0.398000 0.500040 0.362160 -0.570671
O8    O     O_R   0.635590 0.500000 0.362150 -0.575172
O9    O     O_3   0.136242 0.630318 0.637250 -0.540957
C25   C     C_3   0.071374 0.623950 0.732892 0.036835
H10   H     H_    0.154161 0.603826 0.781361 0.175042
H11   H     H_    0.990439 0.548974 0.745278 0.125766
C26   C     C_3   0.009991 0.748320 0.763141 -0.825951
H12   H     H_    0.929547 0.774806 0.714833 0.235373
H13   H     H_    0.960306 0.743827 0.838485 0.220970
H14   H     H_    0.094921 0.820055 0.759335 0.250414
N3    N     N_2   0.886886 0.323888 0.283590 -0.403391
H15   H     H_    0.872920 0.406822 0.250642 0.257775
C27   C     C_3   0.779754 0.231069 0.269385 -0.678157
H16   H     H_    0.762571 0.224376 0.191590 0.209842
H17   H     H_    0.679271 0.255642 0.310844 0.238338
H18   H     H_    0.813296 0.139743 0.292953 0.224355
O10   O     O_3   0.697941 0.490663 0.968178 -0.567848
C28   C     C_3   0.807898 0.459741 0.024574 0.095032
H19   H     H_    0.786052 0.368439 0.058794 0.146326
H20   H     H_    0.822124 0.531315 0.081045 0.146142
C29   C     C_3   0.945012 0.452231 0.960135 -0.822269
H21   H     H_    0.974224 0.544192 0.929884 0.237891
H22   H     H_    0.030324 0.421807 0.003116 0.203433
H23   H     H_    0.933476 0.385486 0.900096 0.251729
N4    N     N_2   0.307289 0.104075 0.338113 -0.416151
H24   H     H_    0.224412 0.114591 0.296443 0.261397
C30   C     C_3   0.432218 0.060107 0.281789 -0.704928
H25   H     H_    0.468486 0.130052 0.226929 0.227667
H26   H     H_    0.407701 0.973489 0.243108 0.212352
H27   H     H_    0.519457 0.044637 0.327290 0.240637
N5    N     N_2   0.137323 0.858282 0.484797 -0.381991
H28   H     H_    0.102922 0.896381 0.550969 0.260274
C31   C     C_3   0.026235 0.836848 0.422133 -0.697469
H29   H     H_    0.936580 0.787816 0.462524 0.231585
H30   H     H_    0.064243 0.778566 0.359303 0.231376
H31   H     H_    0.988962 0.925742 0.396288 0.211597

loop_
_geom_bond_atom_site_label_1
_geom_bond_atom_site_label_2
_ccdc_geom_bond_type
C16   H2    S    
C6    H6    S    
C19   C20   S    
C31   H31   S    
C2    C12   S    
C7    C8    A    
C25   H11   S    
N5    C31   S    
C11   N1    A    
C31   H30   S    
C13   H9    S    
C18   O5    A    
Cu1   O3    S    
C5    C6    A    
Cu2   O2    S    
C15   C16   S    
C27   H16   S    
C28   H20   S    
C15   N2    A    
Cu2   O8    S    
Cu1   N2    S    
N3    H15   S    
C11   C15   A    
C20   C24   T    
C16   C17   S    
C26   H13   S    
C30   H25   S    
C9    C10   S    
C13   C14   A    
C9    H7    S    
C17   H4    S    
Cu1   O7    S    
Cu2   O6    S    
C25   C26   S    
N3    C27   S    
C26   H14   S    
N5    H28   S    
C29   H23   S    
C31   H29   S    
C21   O10   S    
C14   O9    S    
C3    C8    A    
N4    H24   S    
C16   H3    S    
O10   C28   S    
C29   H22   S    
C12   O3    A    
C28   C29   S    
C12   O4    A    
Cu1   O1    S    
C25   H10   S    
C7    C18   S    
C30   H27   S    
C26   H12   S    
C8    C9    S    
C10   H8    S    
C1    O1    A    
C13   N1    A    
Cu2   N1    S    
C22   H1    S    
C3    C4    A    
C19   O7    A    
O9    C25   S    
C11   C17   S    
C4    C5    A    
Cu1   O5    S    
C19   O8    A    
C6    C7    A    
C27   H18   S    
C1    C4    S    
C29   H21   S    
Cu1   Cu2   S    
C9    N4    S    
C3    C10   S    
C18   O6    A    
C14   N2    A    
C10   N5    S    
C27   H17   S    
C28   H19   S    
C1    O2    A    
N4    C30   S    
C21   C24   S    
C2    C23   T    
C22   C23   S    
C30   H26   S    
C21   C22   D    
C17   N3    S    
Cu2   O4    S    
C5    H5    S    
