data_mof_unit_30555.cif
_audit_creation_date              2012-12-10T17:19:56-0500
_audit_creation_method            fapswitch 2.2
_symmetry_space_group_name_H-M    P1
_symmetry_Int_Tables_number       1
_space_group_crystal_system       triclinic
_cell_length_a                    9.611028
_cell_length_b                    10.77523
_cell_length_c                    15.504137
_cell_angle_alpha                 87.549347
_cell_angle_beta                  74.047227
_cell_angle_gamma                 90.05747
_cell_volume                      1542.24171576

loop_
_atom_site_label
_atom_site_type_symbol
_atom_type_description
_atom_site_fract_x
_atom_site_fract_y
_atom_site_fract_z
_atom_type_partial_charge
C1    C     C_R   0.998619 0.262614 0.503071 0.791406
C2    C     C_R   0.668693 0.531268 0.903727 0.067070
C3    C     C_R   0.765335 0.580388 0.948484 0.183183
C4    C     C_R   0.518566 0.518023 0.949307 0.074641
C5    C     C_R   0.470055 0.541029 0.042431 0.091016
C6    C     C_R   0.570224 0.590427 0.084451 -0.237877
C7    C     C_R   0.714441 0.610765 0.037916 -0.181552
C8    C     C_R   0.414945 0.485929 0.904266 -0.243024
C9    C     C_R   0.270080 0.468622 0.949980 -0.219846
C10   C     C_R   0.222402 0.480252 0.042690 0.057655
C11   C     C_R   0.322427 0.515830 0.089972 0.033050
C12   C     C_R   0.918008 0.502135 0.671838 0.776296
C13   C     C_R   0.076103 0.454997 0.089108 0.472828
C14   C     C_R   0.028707 0.467965 0.181900 -0.288118
C15   C     C_R   0.272342 0.520718 0.183852 -0.268428
C16   C     C_R   0.078534 0.120331 0.646995 -0.187936
C17   C     C_R   0.118569 0.051159 0.714204 -0.141227
C18   C     C_R   0.118772 0.922080 0.714035 -0.134281
C19   C     C_R   0.079103 0.861395 0.646602 -0.168129
C20   C     C_R   0.040107 0.929576 0.576955 0.100865
C21   C     C_R   0.039829 0.060842 0.577153 0.096765
C22   C     C_R   0.995738 0.128416 0.509108 -0.100229
C23   C     C_R   0.998913 0.737079 0.502582 0.767507
C24   C     C_R   0.946742 0.067441 0.445204 -0.194082
C25   C     C_R   0.946971 0.939414 0.445023 -0.207709
C26   C     C_R   0.996219 0.870495 0.508739 -0.087460
C27   C     C_R   0.698099 0.663202 0.379663 -0.141547
C28   C     C_R   0.652481 0.743983 0.321149 -0.214098
C29   C     C_R   0.508753 0.745794 0.322022 -0.225354
C30   C     C_R   0.409903 0.666226 0.380943 -0.146336
C31   C     C_R   0.451594 0.581282 0.441339 0.215767
C32   C     C_R   0.601226 0.580549 0.441011 0.209094
C33   C     C_R   0.548830 0.423253 0.556155 -0.059877
C34   C     C_R   0.081967 0.499916 0.328020 0.808228
C35   C     C_R   0.401076 0.423162 0.556048 -0.064521
C36   C     C_R   0.871556 0.518622 0.768898 -0.048967
C37   C     C_R   0.127213 0.497535 0.229672 -0.121567
C38   C     C_R   0.912302 0.599246 0.903051 -0.124506
C39   C     C_R   0.965130 0.568821 0.813649 -0.229435
C40   C     C_R   0.726161 0.496460 0.814775 -0.237713
Cu1   Cu    Cu3+1 0.140660 0.499990 0.500010 0.925524
Cu2   Cu    Cu3+1 0.859340 0.500010 0.499990 0.931832
H1    H     H_    0.787046 0.649558 0.072619 0.151081
H2    H     H_    0.911220 0.119488 0.393889 0.148573
H3    H     H_    0.075519 0.220149 0.651637 0.137512
H4    H     H_    0.147735 0.097910 0.767300 0.130275
H5    H     H_    0.148027 0.868617 0.767007 0.131142
H6    H     H_    0.076779 0.761086 0.650872 0.149865
H7    H     H_    0.911567 0.893834 0.393589 0.136098
H8    H     H_    0.583322 0.360273 0.602245 0.135139
H9    H     H_    0.810379 0.669847 0.373937 0.192316
H10   H     H_    0.729453 0.805973 0.274970 0.142372
H11   H     H_    0.345267 0.538982 0.223534 0.167663
H12   H     H_    0.473303 0.809168 0.276453 0.150219
H13   H     H_    0.302625 0.675667 0.375765 0.196279
H14   H     H_    0.325485 0.360120 0.602022 0.132704
H15   H     H_    0.915662 0.450894 0.216647 0.175194
H16   H     H_    0.195544 0.443899 0.912062 0.186530
H17   H     H_    0.986131 0.638817 0.936504 0.142260
H18   H     H_    0.077833 0.587621 0.779025 0.146777
H19   H     H_    0.660158 0.451157 0.779228 0.144158
H20   H     H_    0.539996 0.618542 0.152808 0.152709
H21   H     H_    0.441306 0.476827 0.832691 0.142095
N1    N     N_R   0.648320 0.501210 0.499140 -0.198851
N2    N     N_R   0.352470 0.501290 0.499110 -0.198148
O1    O     O_R   0.118810 0.319640 0.500010 -0.574081
O2    O     O_R   0.881240 0.319660 0.500000 -0.574450
O3    O     O_R   0.055570 0.499980 0.629840 -0.594921
O4    O     O_R   0.818000 0.500010 0.629830 -0.577394
O5    O     O_R   0.118760 0.680340 0.500000 -0.602194
O6    O     O_R   0.881190 0.680360 0.499990 -0.586594
O7    O     O_R   0.182000 0.499990 0.370170 -0.594930
O8    O     O_R   0.944430 0.500020 0.370160 -0.602693
O9    O     O_3   0.977749 0.423007 0.043136 -0.596665
C41   C     C_3   0.949596 0.294178 0.056095 -0.336056
H22   H     H_    0.892880 0.268649 0.127399 0.163745
H23   H     H_    0.050823 0.240058 0.033487 0.156024
H24   H     H_    0.877221 0.268049 0.014879 0.197341

loop_
_geom_bond_atom_site_label_1
_geom_bond_atom_site_label_2
_ccdc_geom_bond_type
C12   O4    A    
C16   C21   A    
Cu2   N1    S    
C34   C37   S    
Cu1   Cu2   S    
C19   C20   A    
C4    C8    A    
C18   H5    S    
C12   O3    A    
C15   H11   S    
C28   C29   A    
C5    C11   A    
C3    C7    A    
C38   C39   A    
C29   H12   S    
C35   N2    A    
C18   C19   A    
C23   C26   S    
C15   C37   A    
C1    O2    A    
C11   C15   A    
C3    C38   A    
C8    C9    A    
C7    H1    S    
C12   C36   S    
C9    C10   A    
C27   C32   A    
C1    C22   S    
C21   C22   A    
C23   O5    A    
C27   H9    S    
C17   C18   A    
Cu1   O3    S    
O9    C41   S    
C23   O6    A    
C36   C40   A    
C17   H4    S    
C32   N1    A    
C19   H6    S    
C16   C17   A    
Cu1   N2    S    
C34   O8    A    
C33   H8    S    
Cu2   O4    S    
C40   H19   S    
C2    C4    A    
C41   H22   S    
C29   C30   A    
C31   C32   A    
C30   C31   A    
C1    O1    A    
C24   C25   A    
C41   H23   S    
Cu1   O1    S    
Cu1   O7    S    
Cu2   O2    S    
C24   H2    S    
C22   C24   A    
C34   O7    A    
C31   N2    A    
C14   H15   S    
C9    H16   S    
Cu2   O8    S    
C35   H14   S    
C36   C39   A    
C4    C5    A    
C10   C13   A    
C16   H3    S    
C6    C7    A    
C30   H13   S    
C6    H20   S    
C2    C3    A    
C25   C26   A    
C14   C37   A    
C28   H10   S    
C5    C6    A    
C20   C26   A    
C33   N1    A    
C39   H18   S    
Cu2   O6    S    
C33   C35   A    
C41   H24   S    
C25   H7    S    
C10   C11   A    
C8    H21   S    
C38   H17   S    
C2    C40   A    
C20   C21   A    
C27   C28   A    
Cu1   O5    S    
C13   C14   A    
C13   O9    S    
