data_mof_unit_33099.cif
_audit_creation_date              2012-10-26T18:47:54-0400
_audit_creation_method            fapswitch 2.2
_symmetry_space_group_name_H-M    P1
_symmetry_Int_Tables_number       1
_space_group_crystal_system       triclinic
_cell_length_a                    15.859481
_cell_length_b                    8.689155
_cell_length_c                    7.451641
_cell_angle_alpha                 103.012869
_cell_angle_beta                  94.076167
_cell_angle_gamma                 92.21394
_cell_volume                      996.397156022

loop_
_atom_site_label
_atom_site_type_symbol
_atom_type_description
_atom_site_fract_x
_atom_site_fract_y
_atom_site_fract_z
_atom_type_partial_charge
C1    C     C_R   0.497478 0.199726 0.453253 0.550960
C2    C     C_2   0.503712 0.968185 0.573007 -0.141089
C3    C     C_R   0.340352 0.499716 0.502515 0.555369
C4    C     C_R   0.502512 0.800274 0.546748 0.551863
C5    C     C_R   0.659651 0.500289 0.497489 0.555483
C6    C     C_3   0.051057 0.434509 0.667144 0.088683
C7    C     C_3   0.041148 0.394500 0.316628 0.134317
C8    C     C_3   0.943248 0.395684 0.315735 -0.185297
C9    C     C_1   0.749098 0.500364 0.492815 0.017937
C10   C     C_3   0.082920 0.498319 0.502929 0.032379
C11   C     C_3   0.953006 0.433298 0.660872 -0.175761
C12   C     C_3   0.917038 0.501493 0.497659 -0.016987
C13   C     C_3   0.956439 0.672013 0.516556 0.120429
C14   C     C_3   0.054453 0.669982 0.523594 -0.188476
C15   C     C_1   0.824678 0.500848 0.493243 -0.017370
C16   C     C_1   0.175347 0.499084 0.507000 -0.008961
C17   C     C_1   0.250917 0.499612 0.507235 0.014233
C18   C     C_2   0.496266 0.031814 0.426995 -0.142989
Cl1   Cl    Cl    0.086552 0.241154 0.670365 -0.606475
Cl2   Cl    Cl    0.924529 0.809161 0.715319 -0.591572
Cu1   Cu    Cu3+1 0.509300 0.517380 0.684380 0.991294
Cu2   Cu    Cu3+1 0.490700 0.482620 0.315620 0.985276
H1    H     H_    0.925313 0.310906 0.645575 0.185120
H2    H     H_    0.916348 0.272514 0.299088 0.132216
H3    H     H_    0.916217 0.439094 0.195339 0.170836
H4    H     H_    0.083861 0.745481 0.655868 0.176436
H5    H     H_    0.077498 0.721735 0.411104 0.172679
H6    H     H_    0.121972 0.405368 0.134337 0.352984
H7    H     H_    0.077712 0.514198 0.799337 0.183214
H8    H     H_    0.933837 0.503806 0.794192 0.177507
H9    H     H_    0.933402 0.716195 0.393765 0.167004
H10   H     H_    0.489246 0.960197 0.286292 0.137746
H11   H     H_    0.510730 0.039802 0.713711 0.138507
H12   H     H_    0.434912 0.376748 0.948666 0.246751
H13   H     H_    0.565083 0.623258 0.051336 0.244374
H14   H     H_    0.059327 0.269674 0.301702 0.190747
N1    N     N_2   0.476670 0.456430 0.038530 -0.253558
N2    N     N_2   0.523330 0.543570 0.961470 -0.254694
O1    O     O_R   0.506050 0.286130 0.619770 -0.507525
O2    O     O_R   0.490330 0.256780 0.308370 -0.496169
O3    O     O_R   0.387300 0.514690 0.655770 -0.496244
O4    O     O_R   0.371580 0.485340 0.344370 -0.491910
O5    O     O_R   0.509670 0.743220 0.691630 -0.495245
O6    O     O_R   0.493950 0.713870 0.380230 -0.507713
O7    O     O_R   0.628420 0.514660 0.655630 -0.486312
O8    O     O_R   0.612700 0.485310 0.344230 -0.503816
O9    O     O_3   0.067165 0.451581 0.165741 -0.706180

loop_
_geom_bond_atom_site_label_1
_geom_bond_atom_site_label_2
_ccdc_geom_bond_type
C6    C10   S    
C7    C10   S    
C2    C4    S    
C11   C12   S    
C3    O4    A    
C5    C9    S    
N1    N2    D    
C6    Cl1   S    
C4    O5    A    
C14   H5    S    
C2    C18   D    
H12   N1    S    
C7    H14   S    
Cu1   O1    S    
C12   C15   S    
C8    C12   S    
Cu2   O2    S    
H13   N2    S    
C9    C15   T    
C7    C8    S    
H6    O9    S    
C10   C16   S    
Cu1   Cu2   S    
C14   H4    S    
C8    H3    S    
C1    C18   S    
Cu2   O4    S    
Cu1   O3    S    
C2    H11   S    
C11   H1    S    
Cu2   O8    S    
C3    C17   S    
Cu1   O7    S    
C10   C14   S    
Cu2   O6    S    
C18   H10   S    
C1    O1    A    
C1    O2    A    
C6    H7    S    
C12   C13   S    
C5    O8    A    
C6    C11   S    
C3    O3    A    
C4    O6    A    
C13   Cl2   S    
C8    H2    S    
C13   C14   S    
Cu2   N1    S    
C5    O7    A    
C13   H9    S    
Cu1   O5    S    
Cu1   N2    S    
C11   H8    S    
C16   C17   T    
C7    O9    S    
