data_mof_unit_51056.cif
_audit_creation_date              2012-12-11T13:59:59-0500
_audit_creation_method            fapswitch 2.2
_symmetry_space_group_name_H-M    P1
_symmetry_Int_Tables_number       1
_space_group_crystal_system       triclinic
_cell_length_a                    11.202393
_cell_length_b                    11.209881
_cell_length_c                    18.64509
_cell_angle_alpha                 90.616326
_cell_angle_beta                  89.576389
_cell_angle_gamma                 119.593899
_cell_volume                      2035.83811547

loop_
_atom_site_label
_atom_site_type_symbol
_atom_type_description
_atom_site_fract_x
_atom_site_fract_y
_atom_site_fract_z
_atom_type_partial_charge
C1    C     C_R   0.540741 0.479499 0.852512 0.568295
C2    C     C_R   0.478365 0.546504 0.353377 0.555680
C3    C     C_R   0.059718 0.519484 0.350333 0.556838
C4    C     C_R   0.453841 0.932957 0.353410 0.559928
C5    C     C_2   0.972199 0.478000 0.572117 -0.090696
C6    C     C_2   0.487092 0.506405 0.585121 -0.101695
C7    C     C_2   0.493947 0.978250 0.585110 -0.106431
C8    C     C_2   0.477667 0.970733 0.428356 -0.101291
C9    C     C_2   0.492352 0.521708 0.427951 -0.091713
C10   C     C_2   0.980081 0.494865 0.415271 -0.105393
C11   C     C_2   0.939876 0.378955 0.450983 -0.161486
C12   C     C_R   0.519283 0.061308 0.851822 0.568201
C13   C     C_2   0.540690 0.630415 0.473025 -0.150354
C14   C     C_2   0.369403 0.907031 0.473014 -0.152813
C15   C     C_2   0.377944 0.937533 0.549079 -0.160354
C16   C     C_2   0.563131 0.621242 0.548723 -0.160545
C17   C     C_2   0.909539 0.369906 0.526994 -0.150415
C18   C     C_2   0.873374 0.431988 0.938095 -0.122562
C19   C     C_2   0.493491 0.500973 0.922032 -0.109922
C20   C     C_2   0.492145 0.995952 0.921053 -0.098565
C21   C     C_2   0.432257 0.874486 0.061759 -0.122637
C22   C     C_2   0.499505 0.493313 0.077539 -0.110539
C23   C     C_R   0.861986 0.416112 0.860042 0.578746
C24   C     C_2   0.994880 0.491342 0.079022 -0.098827
C25   C     C_2   0.929318 0.554817 0.053778 0.059895
C26   C     C_2   0.393045 0.394693 0.039419 0.067580
C27   C     C_2   0.548396 0.903561 0.024297 0.070909
C28   C     C_2   0.555381 0.930239 0.946378 0.060340
C29   C     C_2   0.393061 0.395466 0.959391 0.068299
C30   C     C_2   0.902769 0.548110 0.975820 0.070447
C31   C     C_R   0.479107 0.540672 0.147329 0.570304
C32   C     C_R   0.061052 0.519052 0.148205 0.568314
C33   C     C_R   0.416086 0.862208 0.139772 0.578094
C34   C     C_R   0.541054 0.480873 0.649774 0.558954
C35   C     C_R   0.519163 0.059245 0.649772 0.557684
C36   C     C_R   0.933189 0.453817 0.646784 0.562493
Cr1   Cr    Cr6+3 0.464030 0.233680 0.750360 1.068971
Cr2   Cr    Cr6+3 0.766320 0.230350 0.750360 1.068446
Cr3   Cr    Cr6+3 0.769650 0.535970 0.750360 1.078768
Cr4   Cr    Cr6+3 0.233680 0.464030 0.249640 1.070967
Cr5   Cr    Cr6+3 0.230350 0.766320 0.249640 1.070189
Cr6   Cr    Cr6+3 0.535970 0.769650 0.249640 1.076470
H1    H     H_    0.940144 0.291100 0.425922 0.158921
H2    H     H_    0.578592 0.969551 0.561798 0.097684
H3    H     H_    0.393835 0.422802 0.562339 0.112029
H4    H     H_    0.041500 0.581442 0.553872 0.088907
H5    H     H_    0.017779 0.426873 0.044250 0.115270
H6    H     H_    0.596415 0.561745 0.052339 0.123147
H7    H     H_    0.340028 0.854764 0.033248 0.098392
H8    H     H_    0.427932 0.019221 0.955752 0.114673
H9    H     H_    0.562987 0.597282 0.947745 0.123880
H10   H     H_    0.852959 0.339612 0.966391 0.098094
H11   H     H_    0.575360 0.733220 0.453032 0.155518
H12   H     H_    0.267311 0.837211 0.452481 0.152655
H13   H     H_    0.290116 0.938275 0.573762 0.158807
H14   H     H_    0.651827 0.708126 0.572945 0.158851
H15   H     H_    0.840119 0.267627 0.547031 0.150468
H16   H     H_    0.971954 0.579635 0.438905 0.106062
H17   H     H_    0.456234 0.417756 0.446176 0.098224
H18   H     H_    0.580952 0.040470 0.447082 0.087072
I1    I     I_    0.878523 0.678076 0.122002 -0.244260
I2    I     I_    0.228333 0.220525 0.092881 -0.190406
I3    I     I_    0.740437 0.945554 0.070370 -0.182412
I4    I     I_    0.678316 0.878935 0.878306 -0.247900
I5    I     I_    0.217649 0.233870 0.904434 -0.192406
I6    I     I_    0.946053 0.740429 0.930224 -0.183759
O1    O     O_R   0.434100 0.092480 0.829780 -0.489372
O2    O     O_R   0.362730 0.477510 0.175360 -0.475726
O3    O     O_R   0.114780 0.637270 0.175360 -0.489796
O4    O     O_R   0.522490 0.885220 0.175360 -0.461258
O5    O     O_R   0.432250 0.092620 0.670380 -0.507188
O6    O     O_R   0.907380 0.339630 0.670380 -0.507546
O7    O     O_R   0.660370 0.567750 0.670380 -0.508189
O8    O     O_R   0.092620 0.432250 0.329620 -0.507116
O9    O     O_R   0.339630 0.907380 0.329620 -0.504418
O10   O     O_R   0.567750 0.660370 0.329620 -0.508827
O11   O     O_R   0.475790 0.362860 0.676880 -0.496615
O12   O     O_R   0.907520 0.341620 0.829780 -0.473442
O13   O     O_R   0.637140 0.112930 0.676880 -0.505091
O14   O     O_R   0.887070 0.524210 0.676880 -0.490796
O15   O     O_R   0.362860 0.475790 0.323120 -0.491601
O16   O     O_R   0.112930 0.637140 0.323120 -0.504331
O17   O     O_R   0.524210 0.887070 0.323120 -0.498456
O18   O     O_3   0.666667 0.333333 0.749450 -0.301454
O19   O     O_3   0.333333 0.666667 0.250550 -0.303181
O20   O     O_R   0.658380 0.565900 0.829780 -0.481064
O21   O     O_R   0.092480 0.434100 0.170220 -0.488895
O22   O     O_R   0.341620 0.907520 0.170220 -0.473471
O23   O     O_R   0.565900 0.658380 0.170220 -0.479024
O24   O     O_R   0.477510 0.362730 0.824640 -0.476844
O25   O     O_R   0.637270 0.114780 0.824640 -0.490284
O26   O     O_R   0.885220 0.522490 0.824640 -0.462103

loop_
_geom_bond_atom_site_label_1
_geom_bond_atom_site_label_2
_ccdc_geom_bond_type
C22   H6    S    
C1    O24   A    
C6    H3    S    
C12   O25   A    
C4    C8    S    
C21   H7    S    
C18   H10   S    
Cr1   O24   S    
Cr4   O21   S    
C10   H16   S    
C33   O22   A    
Cr3   O18   S    
C34   O11   A    
C5    C17   D    
Cr2   O13   S    
C5    C36   S    
Cr6   O4    S    
C3    O8    A    
C9    C13   D    
C4    O9    A    
C20   H8    S    
C31   O23   A    
Cr1   O18   S    
C11   H1    S    
C18   C30   D    
C20   C28   D    
C7    C15   D    
C21   C27   D    
C35   O5    A    
C16   H14   S    
C13   H11   S    
C31   O2    A    
C12   O1    A    
Cr2   O6    S    
C1    C19   S    
C22   C31   S    
C18   C23   S    
C24   C25   D    
C36   O14   A    
Cr2   O12   S    
C32   O21   A    
Cr1   O11   S    
Cr2   O25   S    
C6    C34   S    
C9    H17   S    
C15   H13   S    
Cr4   O19   S    
C24   C32   S    
Cr5   O9    S    
C12   C20   S    
C3    O16   A    
Cr6   O19   S    
C25   I1    S    
C7    H2    S    
C30   I6    S    
C27   I3    S    
C33   O4    A    
C29   I5    S    
C28   I4    S    
C14   H12   S    
Cr1   O5    S    
C22   C26   D    
C19   C29   D    
Cr3   O26   S    
C2    O10   A    
Cr5   O3    S    
C25   C30   S    
Cr5   O22   S    
C11   C17   S    
C8    C14   D    
Cr2   O18   S    
C14   C15   S    
C24   H5    S    
C7    C35   S    
Cr4   O15   S    
Cr6   O17   S    
C32   O3    A    
Cr5   O19   S    
C5    H4    S    
Cr6   O10   S    
Cr6   O23   S    
Cr3   O14   S    
C26   I2    S    
C3    C10   S    
C8    H18   S    
C4    O17   A    
Cr5   O16   S    
Cr1   O1    S    
C35   O13   A    
Cr4   O8    S    
Cr3   O7    S    
C23   O12   A    
C10   C11   D    
C34   O7    A    
C6    C16   D    
C19   H9    S    
C1    O20   A    
C21   C33   S    
C26   C29   S    
Cr4   O2    S    
C13   C16   S    
C27   C28   S    
C23   O26   A    
C2    O15   A    
Cr3   O20   S    
C2    C9    S    
C36   O6    A    
C17   H15   S    
