data_mof_unit_42117.cif
_audit_creation_date              2012-12-10T19:50:09-0500
_audit_creation_method            fapswitch 2.2
_symmetry_space_group_name_H-M    P1
_symmetry_Int_Tables_number       1
_space_group_crystal_system       triclinic
_cell_length_a                    14.285962
_cell_length_b                    14.960049
_cell_length_c                    15.440041
_cell_angle_alpha                 91.809625
_cell_angle_beta                  68.728598
_cell_angle_gamma                 91.512424
_cell_volume                      3073.08736696

loop_
_atom_site_label
_atom_site_type_symbol
_atom_type_description
_atom_site_fract_x
_atom_site_fract_y
_atom_site_fract_z
_atom_type_partial_charge
C1    C     C_R   0.501339 0.672122 0.499256 0.904134
C2    C     C_R   0.571097 0.185788 0.518418 -0.227605
C3    C     C_R   0.506282 0.767726 0.491462 -0.098889
C4    C     C_R   0.502208 0.231402 0.491681 -0.113549
C5    C     C_R   0.599305 0.810453 0.449167 -0.273904
C6    C     C_R   0.440865 0.185232 0.452258 -0.245846
C7    C     C_R   0.604240 0.901863 0.435604 0.492849
C8    C     C_R   0.448937 0.093545 0.436969 0.486420
C9    C     C_R   0.514392 0.950704 0.469206 -0.016557
C10   C     C_R   0.515966 0.047428 0.467474 -0.011933
C11   C     C_R   0.885110 0.575379 0.530830 -0.308467
C12   C     C_R   0.499450 0.327680 0.499398 0.909268
C13   C     C_R   0.121374 0.439340 0.449112 -0.290161
C14   C     C_R   0.785883 0.573642 0.532815 0.113804
C15   C     C_R   0.219330 0.436932 0.449652 0.121596
C16   C     C_R   0.437565 0.502263 0.675898 0.888003
C17   C     C_R   0.562521 0.502573 0.324249 0.896297
C18   C     C_R   0.805087 0.425927 0.470702 -0.020559
C19   C     C_R   0.186435 0.561958 0.553445 -0.014612
C20   C     C_R   0.902524 0.423699 0.473481 -0.261019
C21   C     C_R   0.086020 0.562991 0.557319 -0.262240
C22   C     C_R   0.945488 0.499864 0.502758 0.125109
C23   C     C_R   0.382393 0.582276 0.103269 -0.221926
C24   C     C_R   0.051668 0.501144 0.503636 0.123737
C25   C     C_R   0.400895 0.518752 0.776382 -0.064200
C26   C     C_R   0.599830 0.519674 0.224707 -0.062718
C27   C     C_R   0.269155 0.553238 0.923736 -0.199113
C28   C     C_R   0.733496 0.550138 0.078257 -0.201029
C29   C     C_R   0.298952 0.531310 0.829135 -0.202422
C30   C     C_R   0.702487 0.529254 0.172063 -0.205468
C31   C     C_R   0.472191 0.530075 0.818158 -0.209066
C32   C     C_R   0.529078 0.533812 0.183945 -0.236764
C33   C     C_R   0.444844 0.556774 0.911101 0.082786
C34   C     C_R   0.621883 0.578082 0.899680 -0.220360
C35   C     C_R   0.558045 0.558125 0.091488 0.079668
C36   C     C_R   0.341337 0.564509 0.965438 0.172782
C37   C     C_R   0.661969 0.562604 0.037095 0.178163
C38   C     C_R   0.517910 0.569057 0.952519 0.068051
C39   C     C_R   0.485740 0.570571 0.050310 0.069415
C40   C     C_2   0.724836 0.652055 0.576100 0.911100
C41   C     C_2   0.279352 0.360387 0.397370 0.880908
C42   C     C_3   0.720630 0.963057 0.304627 0.086344
C43   C     C_3   0.752574 0.879321 0.241405 -0.379964
C44   C     C_3   0.791966 0.903270 0.138945 -0.933566
C45   C     C_R   0.311564 0.581229 0.060817 -0.228071
C46   C     C_3   0.432670 0.017053 0.310879 0.078938
C47   C     C_3   0.464268 0.092390 0.240136 -0.380589
C48   C     C_3   0.509374 0.054816 0.140911 -0.926182
C49   C     C_R   0.692685 0.576905 0.942037 -0.237695
C50   C     C_R   0.421694 0.907399 0.512428 -0.170731
C51   C     C_R   0.576991 0.094038 0.507457 -0.167117
C52   C     C_R   0.417497 0.816056 0.522467 -0.214811
H1    H     H_    0.232940 0.589469 0.103324 0.148606
H2    H     H_    0.549418 0.515057 0.777726 0.178309
H3    H     H_    0.758402 0.520123 0.203044 0.161486
H4    H     H_    0.242677 0.524055 0.797536 0.158752
H5    H     H_    0.189909 0.560610 0.964377 0.136359
H6    H     H_    0.813142 0.555075 0.037604 0.135984
H7    H     H_    0.354750 0.594215 0.177569 0.149886
H8    H     H_    0.650121 0.587829 0.825557 0.175086
H9    H     H_    0.352688 0.944620 0.540640 0.190813
H10   H     H_    0.626652 0.059158 0.533335 0.191404
H11   H     H_    0.345178 0.783448 0.555962 0.162834
H12   H     H_    0.771769 0.582806 0.899579 0.147674
H13   H     H_    0.618856 0.220810 0.549549 0.168628
H14   H     H_    0.668133 0.772770 0.424621 0.195517
H15   H     H_    0.388072 0.220438 0.431447 0.202128
H16   H     H_    0.714493 0.786471 0.582856 0.349413
H17   H     H_    0.275179 0.231063 0.356338 0.337967
H18   H     H_    0.784591 0.011690 0.284834 0.180718
H19   H     H_    0.658128 0.997073 0.293106 0.114234
H20   H     H_    0.812384 0.844715 0.256938 0.243735
H21   H     H_    0.687364 0.832637 0.254522 0.209772
H22   H     H_    0.733029 0.937255 0.121689 0.259934
H23   H     H_    0.913432 0.635864 0.553567 0.160463
H24   H     H_    0.813381 0.841330 0.095246 0.268174
H25   H     H_    0.859203 0.947921 0.122775 0.265912
H26   H     H_    0.379174 0.971694 0.293039 0.182358
H27   H     H_    0.497693 0.975289 0.305188 0.119844
H28   H     H_    0.397732 0.132699 0.246836 0.235716
H29   H     H_    0.521118 0.136930 0.253773 0.216676
H30   H     H_    0.576705 0.014885 0.132323 0.256578
H31   H     H_    0.532110 0.110699 0.091484 0.272074
H32   H     H_    0.453335 0.011829 0.124160 0.266653
H33   H     H_    0.100898 0.392329 0.404139 0.163173
H34   H     H_    0.774979 0.367221 0.446690 0.141911
H35   H     H_    0.210962 0.610203 0.594763 0.130250
H36   H     H_    0.942297 0.361513 0.453712 0.149081
H37   H     H_    0.036260 0.611648 0.603228 0.136186
H38   H     H_    0.450809 0.522308 0.224560 0.183335
N1    N     N_R   0.747530 0.500020 0.500000 -0.128894
N2    N     N_R   0.252470 0.499980 0.500000 -0.127809
O1    O     O_R   0.420530 0.630930 0.499990 -0.634765
O2    O     O_R   0.761625 0.737677 0.546392 -0.821391
O3    O     O_2   0.365721 0.370291 0.344210 -0.628820
O4    O     O_R   0.231699 0.276716 0.402170 -0.821515
O5    O     O_3   0.697931 0.943060 0.399090 -0.648234
O6    O     O_3   0.382208 0.050215 0.402549 -0.651135
O7    O     O_R   0.579470 0.369070 0.500010 -0.636410
O8    O     O_R   0.579480 0.630940 0.499990 -0.605399
O9    O     O_R   0.420520 0.369060 0.500010 -0.599501
O10   O     O_R   0.375120 0.499990 0.632240 -0.629357
O11   O     O_R   0.624880 0.500010 0.367760 -0.631922
O12   O     O_R   0.534080 0.500000 0.632240 -0.581629
O13   O     O_R   0.465920 0.500000 0.367760 -0.572850
O14   O     O_2   0.645947 0.642911 0.641869 -0.628790
Zn1   Zn    Zn3+2 0.393860 0.499990 0.500000 0.970718
Zn2   Zn    Zn3+2 0.606140 0.500010 0.500000 0.967843

loop_
_geom_bond_atom_site_label_1
_geom_bond_atom_site_label_2
_ccdc_geom_bond_type
C25   C31   A    
C26   C32   A    
C43   H20   S    
C23   C45   A    
C27   C29   A    
C2    C4    A    
H17   O4    S    
C21   H37   S    
C23   H7    S    
O7    Zn2   S    
O13   Zn1   S    
C18   H34   S    
C18   N1    A    
C44   H25   S    
C35   C37   A    
C19   H35   S    
C46   H27   S    
C11   C14   A    
C41   O4    S    
C42   H18   S    
C33   C36   A    
C44   H24   S    
C8    O6    S    
C12   O7    A    
C19   N2    A    
C15   N2    A    
C43   H21   S    
C16   O12   A    
C32   H38   S    
C50   C52   A    
C31   C33   A    
O11   Zn2   S    
C4    C12   S    
C9    C10   S    
C2    H13   S    
C46   O6    S    
C45   H1    S    
C49   H12   S    
C34   H8    S    
C41   O3    D    
C51   H10   S    
C47   H28   S    
C10   C51   A    
C1    O8    A    
C25   C29   A    
O8    Zn2   S    
C32   C35   A    
C36   C45   A    
C15   C41   S    
C4    C6    A    
C27   H5    S    
C42   O5    S    
C5    C7    A    
C6    C8    A    
C46   H26   S    
H16   O2    S    
C48   H32   S    
C13   C24   A    
C1    C3    S    
C35   C39   A    
C43   C44   S    
C17   O13   A    
C37   C49   A    
N2    Zn1   S    
C47   C48   S    
O10   Zn1   S    
C44   H22   S    
C16   O10   A    
C6    H15   S    
C20   C22   A    
C26   C30   A    
C13   C15   A    
C22   C24   S    
C42   C43   S    
C17   C26   S    
O12   Zn2   S    
C40   O14   D    
C16   C25   S    
C7    C9    A    
C46   C47   S    
C34   C49   A    
C7    O5    S    
C19   C21   A    
C34   C38   A    
N1    Zn2   S    
C8    C10   A    
C9    C50   A    
C40   O2    S    
C5    H14   S    
C3    C5    A    
C52   H11   S    
C3    C52   A    
C29   H4    S    
C28   H6    S    
C27   C36   A    
C30   H3    S    
C11   C22   A    
C33   C38   A    
C48   H31   S    
C28   C30   A    
C17   O11   A    
C12   O9    A    
C11   H23   S    
O1    Zn1   S    
C38   C39   A    
C28   C37   A    
C23   C39   A    
C20   H36   S    
C42   H19   S    
C48   H30   S    
C18   C20   A    
C47   H29   S    
C31   H2    S    
C14   N1    A    
C2    C51   A    
C14   C40   S    
C1    O1    A    
C21   C24   A    
C13   H33   S    
O9    Zn1   S    
C50   H9    S    
