data_mof_unit_25168.cif
_audit_creation_date              2012-10-26T18:52:43-0400
_audit_creation_method            fapswitch 2.2
_symmetry_space_group_name_H-M    P1
_symmetry_Int_Tables_number       1
_space_group_crystal_system       triclinic
_cell_length_a                    10.722253
_cell_length_b                    14.69139
_cell_length_c                    14.749976
_cell_angle_alpha                 64.794865
_cell_angle_beta                  103.602386
_cell_angle_gamma                 103.031285
_cell_volume                      2022.44292807

loop_
_atom_site_label
_atom_site_type_symbol
_atom_type_description
_atom_site_fract_x
_atom_site_fract_y
_atom_site_fract_z
_atom_type_partial_charge
C1    C     C_R   0.479830 0.119950 0.312188 0.540752
C2    C     C_R   0.526456 0.360731 0.079698 0.021892
C3    C     C_R   0.510185 0.320588 0.005133 0.029189
C4    C     C_R   0.259977 0.000680 0.499525 0.544886
C5    C     C_R   0.560069 0.467238 0.053057 0.003214
C6    C     C_R   0.559263 0.533419 0.949081 0.067526
C7    C     C_R   0.554584 0.490501 0.877728 0.082137
C8    C     C_R   0.527928 0.385336 0.906277 -0.124946
C9    C     C_R   0.598619 0.509542 0.127273 -0.142094
C10   C     C_R   0.625122 0.613893 0.099971 -0.135819
C11   C     C_R   0.606422 0.679603 0.998285 0.040627
C12   C     C_3   0.878297 0.000976 0.499328 0.044962
C13   C     C_R   0.568023 0.639871 0.922000 0.048473
C14   C     C_R   0.622795 0.784781 0.972045 -0.137156
C15   C     C_R   0.596685 0.850945 0.870901 -0.143201
C16   C     C_R   0.523646 0.880044 0.687835 0.543493
C17   C     C_R   0.530895 0.707272 0.822125 -0.110478
C18   C     C_R   0.738667 0.295735 0.648779 -0.164108
C19   C     C_R   0.693239 0.208234 0.629632 0.041362
C20   C     C_R   0.516097 0.284118 0.511466 0.037639
C21   C     C_R   0.556926 0.375730 0.527966 -0.007096
C22   C     C_R   0.672252 0.380188 0.596914 0.008308
C23   C     C_3   0.924857 0.901969 0.583102 -0.237155
C24   C     C_R   0.489550 0.462672 0.477982 0.001379
C25   C     C_R   0.539144 0.552793 0.498476 0.025864
C26   C     C_R   0.665465 0.557580 0.557184 0.080778
C27   C     C_R   0.725380 0.470547 0.609199 -0.087619
C28   C     C_R   0.740071 0.000215 0.499589 0.545773
C29   C     C_R   0.375717 0.463133 0.406438 -0.142525
C30   C     C_R   0.310572 0.547094 0.357639 -0.127748
C31   C     C_R   0.350740 0.631622 0.382586 0.039251
C32   C     C_R   0.461811 0.634370 0.456266 -0.002244
C33   C     C_R   0.278396 0.712850 0.335710 -0.157050
C34   C     C_3   0.963874 0.092987 0.519977 -0.228928
C35   C     C_R   0.313701 0.795318 0.363913 0.040582
C36   C     C_R   0.485336 0.716755 0.487274 0.026099
C37   C     C_3   0.041068 0.009852 0.394781 -0.235983
C38   C     C_3   0.896938 0.009107 0.394924 -0.233112
C39   C     C_3   0.068674 0.901991 0.582890 -0.230560
C40   C     C_3   0.106799 0.093082 0.520309 -0.231898
C41   C     C_3   0.122217 0.001487 0.499368 0.046518
C42   C     C_R   0.480981 0.187757 0.204901 -0.007059
C43   C     C_R   0.549000 0.812281 0.795453 -0.016945
C44   C     C_R   0.480204 0.215363 0.030965 -0.136783
C45   C     C_R   0.466860 0.149230 0.130474 -0.140003
C46   C     C_R   0.506352 0.292833 0.178362 -0.131514
Cu1   Cu    Cu3+1 0.465900 0.918260 0.475680 0.916112
Cu2   Cu    Cu3+1 0.534100 0.081740 0.524320 0.913682
H1    H     H_    0.050211 0.945238 0.377320 0.126536
H2    H     H_    0.447424 0.068144 0.149348 0.126925
H3    H     H_    0.508602 0.320127 0.235978 0.119896
H4    H     H_    0.077804 0.081193 0.333872 0.107464
H5    H     H_    0.614294 0.463743 0.207557 0.112043
H6    H     H_    0.655054 0.815756 0.029861 0.104617
H7    H     H_    0.819511 0.475647 0.655607 0.128455
H8    H     H_    0.556547 0.718795 0.551208 0.139122
H9    H     H_    0.259450 0.858900 0.326752 0.119743
H10   H     H_    0.224942 0.544372 0.301955 0.108752
H11   H     H_    0.827142 0.298296 0.701904 0.087700
H12   H     H_    0.952709 0.089413 0.594663 0.122090
H13   H     H_    0.746261 0.143963 0.667568 0.118447
H14   H     H_    0.431565 0.274397 0.458508 0.114383
H15   H     H_    0.863606 0.079846 0.333745 0.113202
H16   H     H_    0.334762 0.399921 0.384895 0.089908
H17   H     H_    0.194838 0.712428 0.277783 0.090489
H18   H     H_    0.837603 0.943780 0.378196 0.130040
H19   H     H_    0.077838 0.834863 0.569540 0.141041
H20   H     H_    0.865604 0.834890 0.570109 0.136890
H21   H     H_    0.163560 0.089015 0.595277 0.130076
H22   H     H_    0.144629 0.165790 0.461388 0.118540
H23   H     H_    0.125885 0.894625 0.658573 0.111542
H24   H     H_    0.932947 0.165529 0.460629 0.130961
H25   H     H_    0.517082 0.538505 0.724866 0.225468
H26   H     H_    0.673960 0.526266 0.776386 0.237546
H27   H     H_    0.725397 0.710872 0.483276 0.234319
H28   H     H_    0.740824 0.666130 0.614724 0.228757
H29   H     H_    0.912377 0.894973 0.658729 0.112213
H30   H     H_    0.523364 0.354179 0.850613 0.109131
H31   H     H_    0.482121 0.678861 0.764650 0.166480
H32   H     H_    0.611834 0.931970 0.852066 0.126649
H33   H     H_    0.655687 0.643248 0.159082 0.112790
H34   H     H_    0.469150 0.184116 0.974442 0.103787
N1    N     N_R   0.585360 0.204570 0.560800 -0.231677
N2    N     N_R   0.414550 0.795430 0.439160 -0.234037
N3    N     N_3   0.591994 0.551259 0.779903 -0.668861
N4    N     N_3   0.746573 0.650963 0.552922 -0.666560
O1    O     O_R   0.455060 0.022100 0.338110 -0.505343
O2    O     O_R   0.512640 0.160150 0.379180 -0.508364
O3    O     O_R   0.288900 0.930980 0.479450 -0.507274
O4    O     O_R   0.346480 0.069030 0.520520 -0.511776
O5    O     O_R   0.487360 0.839850 0.620820 -0.507087
O6    O     O_R   0.544940 0.977900 0.661890 -0.503123
O7    O     O_R   0.653520 0.930970 0.479480 -0.509834
O8    O     O_R   0.711100 0.069020 0.520550 -0.510540

loop_
_geom_bond_atom_site_label_1
_geom_bond_atom_site_label_2
_ccdc_geom_bond_type
C1    O1    A    
C34   H12   S    
C34   H24   S    
C33   H17   S    
C7    C8    A    
C39   C41   S    
C7    N3    S    
C2    C46   A    
C12   C23   S    
C26   C27   A    
C29   C30   A    
C40   H22   S    
C12   C28   S    
C37   C41   S    
C34   C40   S    
C32   C36   A    
C19   H13   S    
C38   H15   S    
C44   H34   S    
C30   C31   A    
C11   C14   A    
C27   H7    S    
C4    C41   S    
C17   H31   S    
C28   O8    A    
C18   C19   A    
C42   C46   A    
C24   C29   A    
Cu1   Cu2   S    
Cu2   O2    S    
C9    C10   A    
C1    O2    A    
C29   H16   S    
Cu2   O4    S    
C21   C22   A    
C8    H30   S    
Cu1   O3    S    
C39   H19   S    
C19   N1    A    
C4    O4    A    
C3    C44   A    
C40   H21   S    
C38   H18   S    
C24   C25   A    
C3    C8    A    
C37   H4    S    
C25   C26   A    
C46   H3    S    
C28   O7    A    
C42   C45   A    
Cu1   O1    S    
C23   H20   S    
C17   C43   A    
C20   H14   S    
C5    C9    A    
C37   C38   S    
C36   H8    S    
C37   H1    S    
C1    C42   S    
H27   N4    S    
C15   H32   S    
C26   N4    S    
C31   C33   A    
Cu1   O7    S    
Cu1   N2    S    
C23   H29   S    
C16   C43   S    
H25   N3    S    
Cu2   O8    S    
C40   C41   S    
C14   H6    S    
C16   O6    A    
C22   C27   A    
C21   C24   A    
C2    C5    A    
C9    H5    S    
C12   C34   S    
H28   N4    S    
C44   C45   A    
C4    O3    A    
C18   C22   A    
Cu1   O5    S    
C31   C32   A    
C35   N2    A    
C6    C7    A    
C10   H33   S    
Cu2   N1    S    
C13   C17   A    
C35   H9    S    
C2    C3    A    
C15   C43   A    
C6    C13   A    
C11   C13   A    
C5    C6    A    
C45   H2    S    
C36   N2    A    
C23   C39   S    
C30   H10   S    
C33   C35   A    
H26   N3    S    
C12   C38   S    
C10   C11   A    
C18   H11   S    
C20   C21   A    
C16   O5    A    
Cu2   O6    S    
C20   N1    A    
C39   H23   S    
C14   C15   A    
C25   C32   A    
