data_mof_unit_15918.cif
_audit_creation_date              2012-12-10T16:52:09-0500
_audit_creation_method            fapswitch 2.2
_symmetry_space_group_name_H-M    P1
_symmetry_Int_Tables_number       1
_space_group_crystal_system       triclinic
_cell_length_a                    7.836937
_cell_length_b                    8.682545
_cell_length_c                    14.908773
_cell_angle_alpha                 91.665045
_cell_angle_beta                  86.224497
_cell_angle_gamma                 92.308035
_cell_volume                      1011.08324966

loop_
_atom_site_label
_atom_site_type_symbol
_atom_type_description
_atom_site_fract_x
_atom_site_fract_y
_atom_site_fract_z
_atom_type_partial_charge
Br1   Br    Br    0.559763 0.830050 0.259846 -0.264392
Br2   Br    Br    0.440237 0.169950 0.740154 -0.264392
Br3   Br    Br    0.727124 0.945317 0.895710 -0.166584
Br4   Br    Br    0.272877 0.054683 0.104290 -0.166584
Br5   Br    Br    0.791687 0.013675 0.435103 -0.237447
Br6   Br    Br    0.208313 0.986325 0.564897 -0.237447
Br7   Br    Br    0.043276 0.339047 0.378817 -0.185129
Br8   Br    Br    0.956724 0.660953 0.621182 -0.185130
C1    C     C_R   0.543881 0.793704 0.498832 0.944024
C2    C     C_R   0.554877 0.630119 0.812203 0.658337
C3    C     C_R   0.491709 0.505454 0.232603 -0.287838
C4    C     C_R   0.508291 0.494546 0.767397 -0.287838
C5    C     C_R   0.534893 0.641964 0.188266 0.235917
C6    C     C_R   0.465107 0.358036 0.811734 0.235917
C7    C     C_R   0.548399 0.638812 0.094083 -0.097647
C8    C     C_R   0.451601 0.361188 0.905917 -0.097647
C9    C     C_R   0.497055 0.501453 0.047138 -0.118267
C10   C     C_R   0.502945 0.498547 0.952861 -0.118268
C11   C     C_R   0.439404 0.367198 0.094582 -0.153183
C12   C     C_R   0.456119 0.206296 0.501168 0.944024
C13   C     C_R   0.560596 0.632802 0.905418 -0.153183
C14   C     C_R   0.614568 0.767189 0.045701 0.637969
C15   C     C_R   0.385432 0.232811 0.954299 0.637969
C16   C     C_R   0.621149 0.765012 0.952545 0.271465
C17   C     C_R   0.378852 0.234988 0.047455 0.271465
C18   C     C_2   0.566535 0.953961 0.489547 0.055899
C19   C     C_2   0.433465 0.046039 0.510453 0.055899
C20   C     C_R   0.502408 0.498355 0.672400 0.993118
C21   C     C_R   0.497592 0.501645 0.327600 0.993117
C22   C     C_R   0.445123 0.369880 0.187797 0.658337
F1    F     F_    0.410172 0.241721 0.236947 -0.587616
F2    F     F_    0.589828 0.758279 0.763053 -0.587616
F3    F     F_    0.682505 0.894072 0.087409 -0.562020
F4    F     F_    0.317495 0.105928 0.912591 -0.562020
N1    N     N_2   0.950330 0.457950 0.475660 0.072484
N2    N     N_2   0.049670 0.542050 0.524340 0.072484
O1    O     O_R   0.389250 0.738570 0.505970 -0.597355
O2    O     O_R   0.610750 0.261430 0.494030 -0.597354
O3    O     O_R   0.678390 0.711620 0.490370 -0.578006
O4    O     O_R   0.321610 0.288380 0.509630 -0.578006
O5    O     O_R   0.355420 0.513510 0.639950 -0.590297
O6    O     O_R   0.644580 0.486490 0.360050 -0.590297
O7    O     O_R   0.644560 0.486560 0.624350 -0.594895
O8    O     O_R   0.355440 0.513440 0.375650 -0.594895
Zn1   Zn    Zn3+2 0.306940 0.517990 0.510420 1.151464
Zn2   Zn    Zn3+2 0.693060 0.482010 0.489580 1.151464

loop_
_geom_bond_atom_site_label_1
_geom_bond_atom_site_label_2
_ccdc_geom_bond_type
C12   C19   S    
C21   O6    A    
C10   C13   A    
C12   O2    A    
N1    Zn2   S    
C20   O7    A    
Br6   C19   S    
C15   F4    S    
C1    O1    A    
C9    C10   A    
Br3   C16   S    
N2    Zn1   S    
C21   O8    A    
C3    C5    A    
C18   C19   D    
O4    Zn1   S    
C2    C4    A    
C4    C20   S    
O3    Zn2   S    
Br2   C6    S    
C9    C11   A    
C4    C6    A    
C1    C18   S    
Br4   C17   S    
C8    C15   A    
C14   C16   A    
C5    C7    A    
C2    C13   A    
Br8   N2    S    
C22   F1    S    
C12   O4    A    
O7    Zn2   S    
C6    C8    A    
O2    Zn2   S    
Br1   C5    S    
C11   C17   A    
O1    Zn1   S    
Br5   C18   S    
C2    F2    S    
C20   O5    A    
C1    O3    A    
C15   C17   A    
O8    Zn1   S    
C3    C21   S    
C8    C10   A    
O6    Zn2   S    
C13   C16   A    
C7    C9    A    
C14   F3    S    
O5    Zn1   S    
C11   C22   A    
Br7   N1    S    
C7    C14   A    
N1    N2    D    
C3    C22   A    
