data_mof_unit_39752.cif
_audit_creation_date              2012-10-26T20:18:11-0400
_audit_creation_method            fapswitch 2.2
_symmetry_space_group_name_H-M    P1
_symmetry_Int_Tables_number       1
_space_group_crystal_system       triclinic
_cell_length_a                    23.515133
_cell_length_b                    8.730487
_cell_length_c                    7.524208
_cell_angle_alpha                 103.05503
_cell_angle_beta                  94.966104
_cell_angle_gamma                 93.552789
_cell_volume                      1493.8366365

loop_
_atom_site_label
_atom_site_type_symbol
_atom_type_description
_atom_site_fract_x
_atom_site_fract_y
_atom_site_fract_z
_atom_type_partial_charge
C1    C     C_R   0.497168 0.200817 0.454333 0.616737
C2    C     C_R   0.705973 0.546685 0.663338 -0.088310
C3    C     C_R   0.245335 0.427567 0.647908 -0.004128
C4    C     C_R   0.764914 0.544751 0.673274 -0.025171
C5    C     C_R   0.209260 0.481949 0.523168 0.177481
C6    C     C_R   0.791969 0.492647 0.515397 0.175001
C7    C     C_2   0.486860 0.034586 0.434667 0.003305
C8    C     C_2   0.514570 0.964979 0.558254 -0.037042
C9    C     C_R   0.391083 0.501780 0.501286 0.528961
C10   C     C_R   0.608919 0.496453 0.498040 0.542144
C11   C     C_R   0.887105 0.627705 0.596192 0.411052
C12   C     C_R   0.502464 0.799639 0.544910 0.493076
C13   C     C_R   0.115817 0.339294 0.482225 0.404493
C14   C     C_R   0.876596 0.347180 0.491025 0.405209
C15   C     C_R   0.126508 0.615816 0.618787 0.410459
C16   C     C_R   0.936047 0.341735 0.494275 0.005953
C17   C     C_R   0.067330 0.619208 0.624752 0.006806
C18   C     C_R   0.971686 0.482613 0.556376 -0.064399
C19   C     C_R   0.031689 0.478537 0.557998 -0.063053
C20   C     C_R   0.947343 0.627566 0.615452 0.067734
C21   C     C_R   0.055943 0.334631 0.490923 0.057840
C22   C     C_R   0.960174 0.198509 0.435094 -0.107805
C23   C     C_R   0.231868 0.546928 0.385827 0.060062
C24   C     C_R   0.043297 0.760725 0.693686 -0.119946
C25   C     C_R   0.019521 0.192934 0.431570 0.080180
C26   C     C_R   0.983946 0.766646 0.689196 0.079794
C27   C     C_2   0.191529 0.609201 0.260960 0.322543
C28   C     C_2   0.789959 0.390641 0.176751 0.316125
C29   C     C_2   0.317238 0.621697 0.232151 0.328170
C30   C     C_2   0.662823 0.367642 0.156810 0.314800
C31   C     C_2   0.438025 0.957347 0.295968 0.255483
C32   C     C_2   0.564616 0.041694 0.691568 0.271435
C33   C     C_2   0.453677 0.317680 0.927504 0.475755
C34   C     C_R   0.759206 0.439691 0.342775 0.059626
C35   C     C_2   0.548125 0.679428 0.072310 0.453175
C36   C     C_R   0.292008 0.554956 0.375038 -0.001154
C37   C     C_R   0.698381 0.434324 0.333382 -0.013291
C38   C     C_R   0.328224 0.500328 0.504962 -0.031159
C39   C     C_R   0.671793 0.490784 0.496092 -0.028265
C40   C     C_R   0.304032 0.437656 0.639868 -0.090454
Cu1   Cu    Cu3+1 0.506340 0.517380 0.684380 1.067269
Cu2   Cu    Cu3+1 0.493660 0.482620 0.315620 1.033506
H1    H     H_    0.932726 0.089809 0.388979 0.178545
H2    H     H_    0.976524 0.996829 0.693434 0.228891
H3    H     H_    0.148216 0.553978 0.222986 0.101764
H4    H     H_    0.831674 0.448717 0.170627 0.099551
H5    H     H_    0.355623 0.701561 0.268239 0.120911
H6    H     H_    0.628390 0.276855 0.148923 0.147703
H7    H     H_    0.438748 0.840355 0.210327 0.164454
H8    H     H_    0.572728 0.005569 0.819614 0.172346
H9    H     H_    0.421670 0.322291 0.818488 0.099238
H10   H     H_    0.581963 0.670676 0.174413 0.126413
H11   H     H_    0.070463 0.868820 0.749403 0.172787
H12   H     H_    0.330565 0.393970 0.739028 0.148450
H13   H     H_    0.687088 0.593294 0.788479 0.188559
H14   H     H_    0.227651 0.379093 0.753704 0.174100
H15   H     H_    0.789992 0.584781 0.805362 0.159995
H16   H     H_    0.009618 0.955039 0.311290 0.219307
H17   H     H_    0.061980 0.011999 0.483924 0.255871
H18   H     H_    0.978096 0.952421 0.900875 0.244104
N1    N     N_R   0.853312 0.489092 0.533706 -0.427841
N2    N     N_R   0.149125 0.478545 0.543390 -0.429326
N3    N     N_2   0.484110 0.456420 0.038520 -0.191540
N4    N     N_2   0.515890 0.543580 0.961480 -0.173591
N5    N     N_3   0.042393 0.043388 0.368734 -0.544470
N6    N     N_3   0.961588 0.914134 0.763170 -0.536140
O1    O     O_R   0.504120 0.286130 0.619770 -0.509306
O2    O     O_2   0.140782 0.207529 0.410166 -0.421871
O3    O     O_2   0.842125 0.211756 0.443923 -0.435993
O4    O     O_2   0.161325 0.749186 0.684737 -0.430157
O5    O     O_2   0.204999 0.726835 0.206993 -0.400579
O6    O     O_2   0.770745 0.280993 0.049937 -0.419456
O7    O     O_2   0.296524 0.583870 0.072510 -0.479374
O8    O     O_2   0.670428 0.417223 0.020856 -0.477290
O9    O     O_2   0.396078 0.028873 0.271701 -0.466411
O10   O     O_2   0.599037 0.137756 0.655090 -0.464248
O11   O     O_2   0.462248 0.189064 0.957209 -0.473268
O12   O     O_R   0.495880 0.713870 0.380230 -0.567327
O13   O     O_2   0.539959 0.809696 0.047033 -0.527824
O14   O     O_R   0.493410 0.256770 0.308360 -0.429029
O15   O     O_R   0.506590 0.743230 0.691640 -0.455459
O16   O     O_R   0.423230 0.514630 0.655730 -0.534107
O17   O     O_R   0.576770 0.485370 0.344270 -0.561710
O18   O     O_R   0.412530 0.485280 0.344320 -0.508165
O19   O     O_R   0.587470 0.514720 0.655680 -0.466590
O20   O     O_2   0.862227 0.764800 0.636088 -0.421916

loop_
_geom_bond_atom_site_label_1
_geom_bond_atom_site_label_2
_ccdc_geom_bond_type
C10   O19   A    
Cu2   O14   S    
C34   C37   A    
Cu1   Cu2   S    
H2    N6    S    
C7    C8    D    
Cu1   O1    S    
C29   C36   S    
C28   H4    S    
C29   H5    S    
C6    N1    S    
C30   H6    S    
C19   C21   A    
C24   C26   A    
C2    H13   S    
C30   O8    D    
C29   O7    D    
C11   O20   S    
C10   O17   A    
C18   C19   A    
C17   C19   A    
C2    C39   A    
C13   N2    A    
C22   C25   A    
C12   O12   A    
C4    H15   S    
C12   O15   A    
C35   N4    S    
C23   C27   S    
C33   N3    S    
C9    O16   A    
C27   H3    S    
H18   N6    S    
C28   O6    D    
C31   H7    S    
C11   C20   A    
C17   C24   A    
C7    C31   S    
C26   N6    S    
Cu2   O18   S    
C4    C6    A    
C3    C5    A    
C24   H11   S    
C14   N1    A    
C6    C34   A    
C30   C37   S    
C10   C39   S    
C8    C32   S    
C2    C4    A    
C3    H14   S    
H16   N5    S    
C31   O9    D    
C22   H1    S    
C5    C23   A    
C8    C12   S    
Cu1   O15   S    
C13   C21   A    
C32   H8    S    
C3    C40   A    
Cu2   O12   S    
C40   H12   S    
C14   O3    S    
C14   C16   A    
C27   O5    D    
C15   C17   A    
C15   O4    S    
C21   C25   A    
C16   C22   A    
C1    C7    S    
Cu2   O17   S    
C11   N1    A    
C32   O10   D    
C33   H9    S    
Cu1   O19   S    
C36   C38   A    
C37   C39   A    
H17   N5    S    
C38   C40   A    
C33   O11   D    
C20   C26   A    
Cu1   O16   S    
C35   O13   D    
C9    C38   S    
C1    O1    A    
C15   N2    A    
C5    N2    S    
C18   C20   A    
C9    O18   A    
C28   C34   S    
N3    N4    D    
C16   C18   A    
C23   C36   A    
C35   H10   S    
C25   N5    S    
C1    O14   A    
Cu1   N4    S    
Cu2   N3    S    
C13   O2    S    
