data_mof_unit_54421.cif
_audit_creation_date              2012-12-10T20:00:05-0500
_audit_creation_method            fapswitch 2.2
_symmetry_space_group_name_H-M    P1
_symmetry_Int_Tables_number       1
_space_group_crystal_system       triclinic
_cell_length_a                    14.944287
_cell_length_b                    14.342018
_cell_length_c                    8.871646
_cell_angle_alpha                 90.184028
_cell_angle_beta                  92.234896
_cell_angle_gamma                 90.089084
_cell_volume                      1900.01198916

loop_
_atom_site_label
_atom_site_type_symbol
_atom_type_description
_atom_site_fract_x
_atom_site_fract_y
_atom_site_fract_z
_atom_type_partial_charge
C1    C     C_R   0.328216 0.499922 0.498285 0.915974
C2    C     C_R   0.457889 0.895299 0.383201 -0.269289
C3    C     C_R   0.499636 0.499909 0.218991 0.928309
C4    C     C_R   0.500259 0.500098 0.781004 0.930846
C5    C     C_R   0.500675 0.052945 0.499350 0.076899
C6    C     C_R   0.500856 0.946975 0.499273 0.077003
C7    C     C_1   0.499775 0.499889 0.065520 -0.210380
C8    C     C_1   0.500012 0.500162 0.934471 -0.209718
C9    C     C_R   0.090760 0.559037 0.409445 0.478003
C10   C     C_R   0.906485 0.423610 0.451145 0.476686
C11   C     C_R   0.908848 0.578313 0.573478 0.499098
C12   C     C_R   0.672126 0.500123 0.501538 0.918644
C13   C     C_R   0.098633 0.442865 0.611486 0.506280
C14   C     C_R   0.183447 0.560221 0.407464 -0.316968
C15   C     C_R   0.813660 0.423381 0.451695 -0.334630
C16   C     C_R   0.814900 0.577633 0.566153 -0.375835
C17   C     C_R   0.191098 0.439945 0.600359 -0.328302
C18   C     C_R   0.232732 0.499634 0.500980 -0.145565
C19   C     C_R   0.768477 0.500464 0.506296 -0.137093
C20   C     C_R   0.049036 0.500733 0.512533 -0.023474
C21   C     C_R   0.952723 0.500114 0.515347 0.004072
C22   C     C_3   0.357113 0.249971 0.339519 -0.835857
C23   C     C_R   0.433084 0.202599 0.423971 0.303589
C24   C     C_3   0.592007 0.749604 0.744425 -0.850432
C25   C     C_3   0.642694 0.251255 0.662204 -0.823734
C26   C     C_3   0.406765 0.748636 0.256747 -0.833260
C27   C     C_3   0.029904 0.576655 0.172896 0.077830
C28   C     C_3   0.961458 0.631469 0.076446 -0.351768
C29   C     C_3   0.867879 0.625952 0.139296 -0.806787
C30   C     C_3   0.925568 0.321870 0.249831 0.046796
C31   C     C_3   0.887141 0.222921 0.249245 -0.311468
C32   C     C_3   0.856970 0.192508 0.090217 -0.961401
C33   C     C_3   0.917076 0.728062 0.692613 0.078579
C34   C     C_R   0.544078 0.797247 0.614242 0.308080
C35   C     C_3   0.886240 0.796514 0.568436 -0.318516
C36   C     C_3   0.837005 0.879481 0.634002 -0.974583
C37   C     C_3   0.081906 0.412340 0.864066 0.062265
C38   C     C_3   0.129450 0.330127 0.942162 -0.336182
C39   C     C_3   0.175185 0.359305 0.091924 -0.981380
C40   C     C_R   0.567141 0.203305 0.576214 0.297615
C41   C     C_R   0.456285 0.796735 0.385510 0.305854
C42   C     C_R   0.432190 0.103982 0.425637 -0.265795
C43   C     C_R   0.543582 0.895862 0.615591 -0.269779
C44   C     C_R   0.568772 0.104717 0.573572 -0.271863
H1    H     H_    0.216572 0.606582 0.331092 0.161768
H2    H     H_    0.323543 0.201557 0.257226 0.195992
H3    H     H_    0.305977 0.272164 0.419397 0.252028
H4    H     H_    0.632753 0.690821 0.705531 0.259961
H5    H     H_    0.638943 0.797799 0.805883 0.190966
H6    H     H_    0.542792 0.726426 0.826825 0.250963
H7    H     H_    0.619020 0.311569 0.726624 0.268540
H8    H     H_    0.675253 0.203795 0.746481 0.200592
H9    H     H_    0.694753 0.272097 0.583489 0.240243
H10   H     H_    0.367121 0.689333 0.296529 0.261827
H11   H     H_    0.358266 0.796397 0.198676 0.199826
H12   H     H_    0.776714 0.364069 0.406408 0.169323
H13   H     H_    0.454751 0.726072 0.171720 0.244711
H14   H     H_    0.005819 0.503307 0.180227 0.110251
H15   H     H_    0.094728 0.577385 0.115163 0.105060
H16   H     H_    0.982659 0.705633 0.070305 0.222620
H17   H     H_    0.959022 0.602177 0.960227 0.180623
H18   H     H_    0.845469 0.552229 0.145519 0.235429
H19   H     H_    0.819886 0.664644 0.064174 0.227123
H20   H     H_    0.867559 0.657613 0.253596 0.283893
H21   H     H_    0.985235 0.321920 0.179631 0.163461
H22   H     H_    0.876961 0.371021 0.193836 0.116328
H23   H     H_    0.776457 0.635545 0.606316 0.166300
H24   H     H_    0.939155 0.173847 0.293867 0.234381
H25   H     H_    0.829115 0.219400 0.323465 0.215539
H26   H     H_    0.803390 0.239378 0.044674 0.267145
H27   H     H_    0.830185 0.120307 0.093193 0.265028
H28   H     H_    0.914338 0.193965 0.014294 0.267769
H29   H     H_    0.965962 0.765430 0.768648 0.161544
H30   H     H_    0.862620 0.706794 0.767176 0.120316
H31   H     H_    0.945674 0.822211 0.509388 0.241475
H32   H     H_    0.841200 0.761436 0.483539 0.217812
H33   H     H_    0.776347 0.855437 0.690947 0.264685
H34   H     H_    0.230720 0.393726 0.672291 0.168346
H35   H     H_    0.816046 0.927928 0.541887 0.270556
H36   H     H_    0.881427 0.917671 0.716424 0.266473
H37   H     H_    0.020360 0.428176 0.925458 0.137838
H38   H     H_    0.124690 0.476299 0.873670 0.124825
H39   H     H_    0.079858 0.274168 0.962427 0.218854
H40   H     H_    0.180882 0.300925 0.868446 0.230159
H41   H     H_    0.230726 0.408845 0.072189 0.263905
H42   H     H_    0.202969 0.296715 0.149614 0.278018
H43   H     H_    0.127000 0.392729 0.166985 0.257655
H44   H     H_    0.376419 0.067516 0.370780 0.146689
H45   H     H_    0.575405 0.932259 0.710336 0.146045
H46   H     H_    0.624716 0.068868 0.628363 0.147379
H47   H     H_    0.426329 0.931211 0.288208 0.145825
H48   H     H_    0.380784 0.309399 0.273226 0.270079
N1    N     N_R   0.500000 0.252470 0.500000 -0.093898
N2    N     N_R   0.500000 0.747530 0.500000 -0.092747
O1    O     O_R   0.369060 0.579480 0.500010 -0.621172
O2    O     O_3   0.954023 0.347593 0.398634 -0.624688
O3    O     O_3   0.962695 0.651313 0.631248 -0.642839
O4    O     O_3   0.055481 0.387342 0.713967 -0.617278
O5    O     O_R   0.630940 0.420520 0.499990 -0.626102
O6    O     O_R   0.630940 0.579480 0.499990 -0.627649
O7    O     O_R   0.369060 0.420520 0.500010 -0.623361
O8    O     O_R   0.500000 0.579460 0.285340 -0.620851
O9    O     O_R   0.500000 0.420540 0.714660 -0.622547
O10   O     O_R   0.500000 0.579460 0.714660 -0.619350
O11   O     O_R   0.500000 0.420540 0.285340 -0.621623
O12   O     O_3   0.040722 0.618283 0.316930 -0.595958
Zn1   Zn    Zn3+2 0.500000 0.606140 0.500000 0.933534
Zn2   Zn    Zn3+2 0.500000 0.393860 0.500000 0.931998

loop_
_geom_bond_atom_site_label_1
_geom_bond_atom_site_label_2
_ccdc_geom_bond_type
C5    C42   A    
C29   H19   S    
C38   H39   S    
C14   C18   A    
C35   C36   S    
C39   H43   S    
C40   N1    A    
C4    C8    S    
C26   H11   S    
C7    C8    T    
C32   H28   S    
C3    O11   A    
C15   C19   A    
O5    Zn2   S    
C35   H31   S    
C1    C18   S    
C43   H45   S    
C23   C42   A    
C28   C29   S    
C25   H9    S    
C3    C7    S    
C36   H33   S    
N1    Zn2   S    
C30   C31   S    
C2    C41   A    
C4    O9    A    
C13   O4    S    
C12   O5    A    
C30   O2    S    
C31   C32   S    
O9    Zn2   S    
C14   H1    S    
C40   C44   A    
C28   H17   S    
O7    Zn2   S    
C22   H3    S    
C29   H20   S    
C37   H37   S    
C2    C6    A    
C26   H10   S    
C37   O4    S    
C32   H27   S    
C28   H16   S    
C10   C21   A    
C24   H6    S    
C31   H24   S    
N2    Zn1   S    
O11   Zn2   S    
C35   H32   S    
C24   H4    S    
C38   C39   S    
C36   H36   S    
C32   H26   S    
C27   O12   S    
C9    O12   S    
C11   C21   A    
C24   C34   S    
C23   N1    A    
C9    C14   A    
C25   H7    S    
C37   C38   S    
C11   C16   A    
C9    C20   A    
C41   N2    A    
C10   O2    S    
C1    O1    A    
C17   C18   A    
O8    Zn1   S    
C16   H23   S    
C30   H22   S    
O1    Zn1   S    
C3    O8    A    
C33   H29   S    
C22   H2    S    
C5    C44   A    
C6    C43   A    
C37   H38   S    
C42   H44   S    
C39   H41   S    
C1    O7    A    
C44   H46   S    
C24   H5    S    
C29   H18   S    
O6    Zn1   S    
C13   C20   A    
C38   H40   S    
C10   C15   A    
C34   C43   A    
C34   N2    A    
C36   H35   S    
C13   C17   A    
C11   O3    S    
C15   H12   S    
C25   H8    S    
C25   C40   S    
C27   H15   S    
C5    C6    S    
C27   H14   S    
C16   C19   A    
C4    O10   A    
C12   C19   S    
C17   H34   S    
C33   C35   S    
C33   O3    S    
C2    H47   S    
C26   H13   S    
C12   O6    A    
C30   H21   S    
C33   H30   S    
C31   H25   S    
C20   C21   S    
C27   C28   S    
C22   H48   S    
C22   C23   S    
C39   H42   S    
O10   Zn1   S    
C26   C41   S    
