data_mof_unit_44264.cif
_audit_creation_date              2012-12-10T16:52:07-0500
_audit_creation_method            fapswitch 2.2
_symmetry_space_group_name_H-M    P1
_symmetry_Int_Tables_number       1
_space_group_crystal_system       triclinic
_cell_length_a                    7.783945
_cell_length_b                    8.565825
_cell_length_c                    14.950383
_cell_angle_alpha                 91.618883
_cell_angle_beta                  85.146058
_cell_angle_gamma                 93.680683
_cell_volume                      990.945600029

loop_
_atom_site_label
_atom_site_type_symbol
_atom_type_description
_atom_site_fract_x
_atom_site_fract_y
_atom_site_fract_z
_atom_type_partial_charge
C1    C     C_R   0.545736 0.794690 0.497698 0.937779
C2    C     C_R   0.454264 0.205310 0.502302 0.937779
C3    C     C_R   0.802301 0.601435 0.942473 0.590591
C4    C     C_R   0.197698 0.398565 0.057527 0.590591
C5    C     C_2   0.569839 0.958185 0.496330 -0.346415
C6    C     C_2   0.430161 0.041815 0.503670 -0.346414
C7    C     C_R   0.500965 0.499336 0.673120 0.861589
C8    C     C_R   0.499035 0.500664 0.326880 0.861589
C9    C     C_R   0.347145 0.453520 0.191501 -0.168995
C10   C     C_R   0.652854 0.546480 0.808499 -0.168995
C11   C     C_R   0.497740 0.502863 0.231253 -0.103322
C12   C     C_R   0.502260 0.497137 0.768747 -0.103322
C13   C     C_R   0.648474 0.552524 0.179903 -0.134963
C14   C     C_R   0.351526 0.447475 0.820097 -0.134964
C15   C     C_R   0.650196 0.552619 0.087433 0.066112
C16   C     C_R   0.349804 0.447381 0.912566 0.066112
C17   C     C_R   0.499178 0.500944 0.046560 -0.015300
C18   C     C_R   0.500822 0.499056 0.953440 -0.015300
C19   C     C_R   0.346685 0.450983 0.098845 -0.012362
C20   C     C_R   0.653315 0.549017 0.901155 -0.012362
C21   C     C_R   0.800359 0.603164 0.035465 -0.227212
C22   C     C_R   0.199641 0.396836 0.964535 -0.227213
H1    H     H_    0.916144 0.643749 0.066824 0.187864
H2    H     H_    0.083856 0.356251 0.933176 0.187864
H3    H     H_    0.701787 0.009182 0.489292 0.208032
H4    H     H_    0.298212 0.990818 0.510708 0.208032
N1    N     N_2   0.950330 0.457950 0.475660 0.252793
N2    N     N_2   0.049670 0.542050 0.524340 0.252793
O1    O     O_R   0.389250 0.738570 0.505970 -0.607623
O2    O     O_R   0.610750 0.261430 0.494030 -0.607623
O3    O     O_R   0.678390 0.711620 0.490370 -0.585722
O4    O     O_R   0.321610 0.288380 0.509630 -0.585722
O5    O     O_R   0.355420 0.513510 0.639950 -0.607508
O6    O     O_R   0.644580 0.486490 0.360050 -0.607508
O7    O     O_R   0.644560 0.486560 0.624350 -0.592346
O8    O     O_R   0.355440 0.513440 0.375650 -0.592346
Zn1   Zn    Zn3+2 0.306940 0.517990 0.510420 1.118737
Zn2   Zn    Zn3+2 0.693060 0.482010 0.489580 1.118737
H5    H     H_    0.231951 0.414509 0.232797 0.236416
H6    H     H_    0.768049 0.585492 0.767203 0.236416
H7    H     H_    0.763994 0.591955 0.211997 0.175165
H8    H     H_    0.236006 0.408044 0.788003 0.175165
F1    F     F_    0.949137 0.651213 0.893115 -0.667243
F2    F     F_    0.050862 0.348787 0.106885 -0.667243
F3    F     F_    0.030353 0.356913 0.419443 -0.566067
F4    F     F_    0.969647 0.643087 0.580557 -0.566067

loop_
_geom_bond_atom_site_label_1
_geom_bond_atom_site_label_2
_ccdc_geom_bond_type
C4    C22   A    
C18   C20   A    
C1    C5    S    
O3    Zn2   S    
C1    O3    A    
C14   H8    S    
C3    F1    S    
N1    F3    S    
C1    O1    A    
C17   C18   A    
C3    C20   A    
C16   C18   A    
C8    O6    A    
O4    Zn1   S    
C11   C13   A    
N2    F4    S    
C6    H4    S    
C10   C12   A    
N2    Zn1   S    
C8    C11   S    
C5    H3    S    
C13   H7    S    
O8    Zn1   S    
C17   C19   A    
C12   C14   A    
C14   C16   A    
C9    C11   A    
C13   C15   A    
C5    C6    D    
C22   H2    S    
C7    C12   S    
C3    C21   A    
C2    O2    A    
C7    O5    A    
N1    Zn2   S    
C15   C21   A    
O7    Zn2   S    
O2    Zn2   S    
C2    O4    A    
C8    O8    A    
O1    Zn1   S    
N1    N2    D    
C15   C17   A    
C10   H6    S    
C16   C22   A    
C4    F2    S    
O6    Zn2   S    
C4    C19   A    
C7    O7    A    
C21   H1    S    
C9    C19   A    
C9    H5    S    
O5    Zn1   S    
C2    C6    S    
C10   C20   A    
