data_mof_unit_48020.cif
_audit_creation_date              2012-12-10T17:28:38-0500
_audit_creation_method            fapswitch 2.2
_symmetry_space_group_name_H-M    P1
_symmetry_Int_Tables_number       1
_space_group_crystal_system       triclinic
_cell_length_a                    10.623394
_cell_length_b                    11.937896
_cell_length_c                    12.829009
_cell_angle_alpha                 93.679757
_cell_angle_beta                  89.872804
_cell_angle_gamma                 87.163657
_cell_volume                      1621.62033791

loop_
_atom_site_label
_atom_site_type_symbol
_atom_type_description
_atom_site_fract_x
_atom_site_fract_y
_atom_site_fract_z
_atom_type_partial_charge
C1    C     C_R   0.495794 0.522452 0.700267 0.944532
C2    C     C_R   0.570975 0.532705 0.129365 0.316009
C3    C     C_R   0.454795 0.464025 0.976864 0.047482
C4    C     C_R   0.545204 0.535975 0.023136 0.047481
C5    C     C_R   0.364604 0.954588 0.420082 -0.336031
C6    C     C_R   0.635396 0.045412 0.579917 -0.336031
C7    C     C_R   0.379967 0.837996 0.425567 0.052915
C8    C     C_R   0.620033 0.162004 0.574433 0.052914
C9    C     C_R   0.561354 0.858074 0.531636 -0.054230
C10   C     C_R   0.438646 0.141926 0.468364 -0.054231
C11   C     C_R   0.549986 0.975659 0.528245 0.094913
C12   C     C_R   0.504206 0.477548 0.299733 0.944533
C13   C     C_R   0.450014 0.024341 0.471755 0.094913
C14   C     C_R   0.739807 0.499243 0.484775 0.906351
C15   C     C_R   0.260193 0.500757 0.515225 0.906352
C16   C     C_R   0.899433 0.293664 0.430582 -0.111728
C17   C     C_R   0.100568 0.706336 0.569419 -0.111727
C18   C     C_R   0.960766 0.191687 0.451492 -0.159975
C19   C     C_R   0.039235 0.808313 0.548508 -0.159975
C20   C     C_R   0.068863 0.191105 0.512287 -0.181512
C21   C     C_R   0.931138 0.808895 0.487713 -0.181512
C22   C     C_R   0.120585 0.292429 0.545241 -0.093726
C23   C     C_R   0.501932 0.462726 0.188669 -0.120168
C24   C     C_R   0.879416 0.707572 0.454760 -0.093728
C25   C     C_R   0.065011 0.396501 0.516739 0.078599
C26   C     C_R   0.934990 0.603499 0.483262 0.078600
C27   C     C_R   0.946040 0.396963 0.470542 0.072294
C28   C     C_R   0.053960 0.603037 0.529459 0.072294
C29   C     C_R   0.124441 0.499838 0.532161 -0.216025
C30   C     C_R   0.875559 0.500163 0.467840 -0.216026
C31   C     C_R   0.498068 0.537274 0.811331 -0.120167
C32   C     C_R   0.606011 0.610827 0.962504 -0.130686
C33   C     C_R   0.393988 0.389173 0.037495 -0.130684
C34   C     C_R   0.582648 0.611051 0.856939 -0.282219
C35   C     C_R   0.417352 0.388948 0.143060 -0.282219
C36   C     C_R   0.429025 0.467295 0.870635 0.316009
Cl1   Cl    Cl    0.690375 0.613835 0.189075 -0.670450
Cl2   Cl    Cl    0.309623 0.386167 0.810925 -0.670451
H1    H     H_    0.886210 0.887846 0.467312 0.140675
H2    H     H_    0.797542 0.711712 0.404999 0.201872
H3    H     H_    0.364752 0.335022 0.190153 0.174167
H4    H     H_    0.635249 0.664977 0.809846 0.174167
H5    H     H_    0.673653 0.667988 0.995014 0.210848
H6    H     H_    0.326346 0.332012 0.004986 0.210847
H7    H     H_    0.363445 0.181146 0.424535 0.131713
H8    H     H_    0.636555 0.818854 0.575465 0.131713
H9    H     H_    0.686272 0.216135 0.613584 0.148919
H10   H     H_    0.313727 0.783865 0.386416 0.148919
H11   H     H_    0.113791 0.112153 0.532688 0.140675
H12   H     H_    0.286695 0.989733 0.376339 0.152066
H13   H     H_    0.713305 0.010267 0.623661 0.152066
H14   H     H_    0.815404 0.291323 0.383038 0.157262
H15   H     H_    0.184596 0.708677 0.616963 0.157262
H16   H     H_    0.922543 0.113201 0.422836 0.140343
H17   H     H_    0.077458 0.886799 0.577164 0.140343
H18   H     H_    0.202458 0.288288 0.595002 0.201873
N1    N     N_R   0.523130 0.207800 0.519340 -0.103437
N2    N     N_R   0.476870 0.792200 0.480660 -0.103437
O1    O     O_R   0.506170 0.421700 0.658830 -0.577029
O2    O     O_R   0.493830 0.578300 0.341170 -0.577028
O3    O     O_R   0.491330 0.609310 0.646410 -0.636822
O4    O     O_R   0.508670 0.390690 0.353590 -0.636822
O5    O     O_R   0.690650 0.406190 0.506220 -0.635253
O6    O     O_R   0.309350 0.593810 0.493780 -0.635253
O7    O     O_R   0.675800 0.593810 0.493800 -0.624731
O8    O     O_R   0.324200 0.406190 0.506200 -0.624731
Zn1   Zn    Zn3+2 0.509910 0.374730 0.508290 0.963063
Zn2   Zn    Zn3+2 0.490090 0.625270 0.491710 0.963064

loop_
_geom_bond_atom_site_label_1
_geom_bond_atom_site_label_2
_ccdc_geom_bond_type
C19   C21   A    
C2    C4    A    
C15   O6    A    
C10   C13   A    
C15   C29   S    
C20   H11   S    
C8    N1    A    
C25   C27   A    
C11   C13   A    
C7    N2    A    
C5    C13   A    
C21   H1    S    
C22   H18   S    
O7    Zn2   S    
O1    Zn1   S    
C7    H10   S    
C10   H7    S    
C36   Cl2   S    
O8    Zn1   S    
C8    H9    S    
C9    H8    S    
C2    Cl1   S    
C15   O8    A    
C27   C30   A    
C9    C11   A    
O3    Zn2   S    
C4    C32   A    
C35   H3    S    
C3    C36   A    
N1    Zn1   S    
C6    C8    A    
C14   O5    A    
O6    Zn2   S    
N2    Zn2   S    
C28   C29   A    
C33   C35   A    
C14   O7    A    
C24   C26   A    
C26   C30   A    
C23   C35   A    
C1    O1    A    
C25   C29   A    
C6    H13   S    
O5    Zn1   S    
C5    H12   S    
C31   C34   A    
O4    Zn1   S    
C3    C33   A    
C6    C11   A    
C3    C4    A    
C12   O2    A    
C17   H15   S    
C1    C31   S    
C10   N1    A    
C12   O4    A    
O2    Zn2   S    
C18   C20   A    
C16   C18   A    
C9    N2    A    
C16   C27   A    
C21   C24   A    
C19   H17   S    
C2    C23   A    
C5    C7    A    
C18   H16   S    
C31   C36   A    
C24   H2    S    
C12   C23   S    
C17   C19   A    
C32   C34   A    
C14   C30   S    
C17   C28   A    
C26   C28   A    
C32   H5    S    
C16   H14   S    
C20   C22   A    
C34   H4    S    
C33   H6    S    
C22   C25   A    
C1    O3    A    
