data_mof_unit_14752.cif
_audit_creation_date              2012-12-11T15:52:33-0500
_audit_creation_method            fapswitch 2.2
_symmetry_space_group_name_H-M    P1
_symmetry_Int_Tables_number       1
_space_group_crystal_system       triclinic
_cell_length_a                    6.956603
_cell_length_b                    14.718214
_cell_length_c                    15.96675
_cell_angle_alpha                 90.148403
_cell_angle_beta                  89.536808
_cell_angle_gamma                 90.256773
_cell_volume                      1634.74075082

loop_
_atom_site_label
_atom_site_type_symbol
_atom_type_description
_atom_site_fract_x
_atom_site_fract_y
_atom_site_fract_z
_atom_type_partial_charge
O1    O     O_R   0.494400 0.415640 0.412830 -0.540587
O2    O     O_R   0.823920 0.405510 0.586560 -0.546771
O3    O     O_R   0.994250 0.584360 0.587170 -0.544183
C1    C     C_R   0.653180 0.384732 0.616330 0.704162
O4    O     O_R   0.824110 0.404610 0.413450 -0.538930
O5    O     O_R   0.994440 0.583460 0.412820 -0.511225
C2    C     C_R   0.655285 0.382511 0.383959 0.715472
O6    O     O_R   0.494210 0.416540 0.587180 -0.550022
O7    O     O_3   0.660810 0.558680 0.500000 -0.363451
V1    V     V_3+5 0.935650 0.489110 0.500000 1.404692
O8    O     O_R   0.324150 0.594490 0.413440 -0.549105
C3    C     C_R   0.155561 0.614838 0.383017 0.729965
O9    O     O_R   0.323970 0.595390 0.586550 -0.555465
C4    C     C_R   0.154391 0.613559 0.618393 0.698281
V2    V     V_3+5 0.435660 0.510890 0.500000 1.386262
O10   O     O_3   0.160630 0.441320 0.500000 -0.379610
C5    C     C_3   0.993108 0.644880 0.764102 0.372408
C6    C     C_3   0.007184 0.710213 0.844940 0.295285
H1    H     H_    0.889571 0.853296 0.740849 0.128377
C7    C     C_3   0.079016 0.777001 0.657638 0.396610
C8    C     C_3   0.342280 0.692865 0.733549 0.145108
C9    C     C_3   0.139283 0.680325 0.691992 -0.216066
H2    H     H_    0.446799 0.711339 0.683432 0.102698
C10   C     C_3   0.126114 0.800130 0.819389 -0.253453
C11   C     C_3   0.046627 0.841710 0.734849 0.124609
C12   C     C_3   0.341487 0.770550 0.801815 0.660494
C13   C     C_R   0.971918 0.743806 0.190622 0.156961
C14   C     C_R   0.983943 0.679206 0.256374 0.169674
C15   C     C_R   0.143364 0.679959 0.311373 -0.066957
C16   C     C_R   0.291005 0.743594 0.297475 -0.236425
H3    H     H_    0.415098 0.745463 0.337989 0.142782
C17   C     C_R   0.279118 0.807110 0.232626 -0.213749
H4    H     H_    0.394856 0.855964 0.225141 0.139900
C18   C     C_R   0.119258 0.809313 0.179241 -0.052404
C19   C     C_R   0.792685 0.260064 0.700390 -0.221124
H5    H     H_    0.918421 0.262906 0.659958 0.147246
C20   C     C_R   0.785629 0.194156 0.763344 0.201161
C21   C     C_R   0.625073 0.188314 0.818205 -0.200287
C22   C     C_R   0.473789 0.251554 0.808140 0.324047
C23   C     C_R   0.473248 0.310637 0.739388 0.194955
C24   C     C_R   0.637703 0.317873 0.686051 -0.193498
C25   C     C_R   0.779212 0.241528 0.307302 0.179461
C26   C     C_R   0.767000 0.178458 0.241374 -0.111497
H6    H     H_    0.871149 0.123991 0.237913 0.139184
C27   C     C_R   0.620855 0.183214 0.181627 -0.159412
C28   C     C_R   0.486674 0.253570 0.188028 -0.117988
H7    H     H_    0.374253 0.259102 0.141736 0.144904
C29   C     C_R   0.497799 0.319054 0.252045 0.183979
C30   C     C_R   0.644345 0.313886 0.313977 -0.153618
O11   O     O_R   0.771300 0.080930 0.910090 -0.511552
O12   O     O_R   0.441270 0.092800 0.083770 -0.549834
O13   O     O_R   0.271080 0.913920 0.084380 -0.553576
C31   C     C_R   0.610050 0.114967 0.112704 0.683229
O14   O     O_R   0.441580 0.091910 0.910670 -0.534408
O15   O     O_R   0.271390 0.913020 0.910040 -0.519417
C32   C     C_R   0.611898 0.115813 0.883435 0.759342
O16   O     O_R   0.770990 0.081830 0.084440 -0.543165
O17   O     O_3   0.604750 0.938760 0.997250 -0.377441
V3    V     V_3+5 0.329850 0.008280 0.997210 1.474428
O18   O     O_R   0.941680 0.901940 0.910610 -0.558277
C33   C     C_R   0.112398 0.873631 0.887647 0.761760
O19   O     O_R   0.941370 0.902830 0.083720 -0.525345
C34   C     C_R   0.109784 0.879590 0.111801 0.718488
V4    V     V_3+5 0.829860 0.986420 0.997150 1.470677
O20   O     O_3   0.104830 0.056030 0.997180 -0.365869
N1    N     N_3   0.792760 0.643944 0.735576 -0.614154
H8    H     H_    0.745163 0.708108 0.719554 0.266114
H9    H     H_    0.766226 0.597683 0.687690 0.241741
O21   O     O_3   0.455007 0.846184 0.776656 -0.653788
H10   H     H_    0.454518 0.853388 0.715206 0.322618
N2    N     N_3   0.231172 0.814508 0.602107 -0.666526
H11   H     H_    0.180256 0.873418 0.573362 0.284539
H12   H     H_    0.261239 0.769354 0.553161 0.195975
O22   O     O_3   0.130847 0.927153 0.718742 -0.623857
H13   H     H_    0.072661 0.970911 0.758401 0.307611
N3    N     N_3   0.812975 0.741413 0.133849 -0.661922
H14   H     H_    0.685292 0.749395 0.167923 0.230256
H15   H     H_    0.810494 0.678428 0.103521 0.229541
N4    N     N_3   0.836936 0.611126 0.266037 -0.658183
H16   H     H_    0.829749 0.572351 0.211226 0.223910
H17   H     H_    0.704847 0.643069 0.276004 0.225139
N5    N     N_3   0.940693 0.131229 0.768620 -0.642714
H18   H     H_    0.066407 0.167960 0.780426 0.277512
H19   H     H_    0.956371 0.101300 0.709512 0.226775
O23   O     O_3   0.324252 0.258891 0.865053 -0.618592
H20   H     H_    0.377348 0.250572 0.921908 0.284152
N6    N     N_3   0.039557 0.550367 0.786861 -0.619416
H21   H     H_    0.939498 0.527463 0.831409 0.259676
H22   H     H_    0.021588 0.507400 0.735309 0.225964
N7    N     N_3   0.303730 0.363820 0.727525 -0.605441
H23   H     H_    0.241461 0.346182 0.670393 0.230616
H24   H     H_    0.340995 0.432310 0.727833 0.244740
N8    N     N_3   0.927152 0.227874 0.367877 -0.665643
H25   H     H_    0.026447 0.281099 0.363651 0.247510
H26   H     H_    0.865279 0.226929 0.427769 0.227136
N9    N     N_3   0.361737 0.391889 0.250036 -0.664116
H27   H     H_    0.268769 0.386340 0.301446 0.243272
H28   H     H_    0.435581 0.453858 0.252702 0.230158
N10   N     N_3   0.100092 0.664098 0.916676 -0.631946
H29   H     H_    0.000009 0.623688 0.948950 0.237388
H30   H     H_    0.208097 0.619153 0.898723 0.328525
N11   N     N_3   0.811866 0.733089 0.874316 -0.585017
H31   H     H_    0.754970 0.787003 0.841189 0.254554
H32   H     H_    0.811216 0.751637 0.937655 0.258086
O24   O     O_3   0.906267 0.772638 0.611652 -0.660509
H33   H     H_    0.934302 0.749210 0.554550 0.296889
O25   O     O_3   0.402787 0.610760 0.769794 -0.594026
H34   H     H_    0.454715 0.571838 0.724570 0.298331
O26   O     O_3   0.424389 0.735570 0.875258 -0.598806
H35   H     H_    0.459585 0.785656 0.913585 0.324036

loop_
_geom_bond_atom_site_label_1
_geom_bond_atom_site_label_2
_ccdc_geom_bond_type
N1    H9    S    
N6    H21   S    
N8    H25   S    
O15   V3    S    
C3    C15   S    
C25   N8    S    
O11   V4    S    
C19   H5    S    
C1    O6    A    
O23   H20   S    
C5    N1    S    
O19   C34   A    
C6    C10   S    
C14   C15   A    
C19   C20   A    
N3    H15   S    
O5    C3    A    
C16   H3    S    
C1    C24   S    
V2    O10   S    
C11   O22   S    
C6    N11   S    
C14   N4    S    
O19   V4    S    
O8    V2    S    
C7    C11   S    
N9    H28   S    
O25   H34   S    
C7    N2    S    
O1    V2    S    
C15   C16   A    
O7    V1    S    
N1    H8    S    
C27   C31   S    
N8    H26   S    
O1    C2    A    
O9    C4    A    
O21   H10   S    
H1    C11   S    
C8    C12   S    
O14   C32   A    
O14   V3    S    
C13   C18   A    
O17   V4    S    
C28   C29   A    
O22   H13   S    
C10   C11   S    
C2    C30   S    
C22   C23   A    
N2    H12   S    
C31   O16   A    
O17   V3    S    
C27   C28   A    
O11   C32   A    
O18   C33   A    
O12   C31   A    
C17   C18   A    
O2    C1    A    
C26   H6    S    
C20   C21   A    
O13   V3    S    
N7    H24   S    
N10   H29   S    
O9    V2    S    
N9    H27   S    
C5    C6    S    
N3    H14   S    
N11   H32   S    
C26   C27   A    
C12   O26   S    
C8    O25   S    
O3    C4    A    
C10   C33   S    
C23   C24   A    
N10   H30   S    
C7    C9    S    
O6    V2    S    
N5    H19   S    
N6    H22   S    
C20   N5    S    
O12   V3    S    
C6    N10   S    
C22   O23   S    
C13   N3    S    
O2    V1    S    
O16   V4    S    
O4    C2    A    
C7    O24   S    
C28   H7    S    
C29   C30   A    
C29   N9    S    
C5    N6    S    
C10   C12   S    
O13   C34   A    
O5    V1    S    
O8    C3    A    
O24   H33   S    
N4    H17   S    
C5    C9    S    
O18   V4    S    
C17   H4    S    
C4    C9    S    
C8    H2    S    
O7    V2    S    
O4    V1    S    
O3    V1    S    
V1    O10   S    
O26   H35   S    
V4    O20   S    
C16   C17   A    
N7    H23   S    
C21   C22   A    
O15   C33   A    
C18   C34   S    
N11   H31   S    
C19   C24   A    
C25   C30   A    
N4    H16   S    
N2    H11   S    
C21   C32   S    
N5    H18   S    
C25   C26   A    
C13   C14   A    
C12   O21   S    
C23   N7    S    
C8    C9    S    
V3    O20   S    
