data_mof_unit_57716.cif
_audit_creation_date              2012-12-10T18:10:18-0500
_audit_creation_method            fapswitch 2.2
_symmetry_space_group_name_H-M    P1
_symmetry_Int_Tables_number       1
_space_group_crystal_system       triclinic
_cell_length_a                    10.865622
_cell_length_b                    9.85627
_cell_length_c                    15.772972
_cell_angle_alpha                 90.876096
_cell_angle_beta                  90.110055
_cell_angle_gamma                 88.703158
_cell_volume                      1688.56642667

loop_
_atom_site_label
_atom_site_type_symbol
_atom_type_description
_atom_site_fract_x
_atom_site_fract_y
_atom_site_fract_z
_atom_type_partial_charge
C1    C     C_R   0.261073 0.501295 0.494117 0.840628
C2    C     C_3   0.631195 0.498735 0.948825 -0.568265
C3    C     C_3   0.636431 0.496631 0.048138 0.335080
C4    C     C_1   0.497971 0.503170 0.824246 -0.041084
C5    C     C_1   0.500615 0.497343 0.175913 0.028404
C6    C     C_1   0.500533 0.497431 0.251677 -0.059566
C7    C     C_3   0.073510 0.491659 0.584174 -0.304783
C8    C     C_3   0.072078 0.371761 0.441625 -0.189878
C9    C     C_3   0.930849 0.469752 0.585281 -0.239044
C10   C     C_3   0.927939 0.379633 0.433688 -0.224709
C11   C     C_3   0.060389 0.632976 0.445720 0.305262
C12   C     C_3   0.121176 0.502853 0.490038 0.047021
C13   C     C_3   0.876252 0.494422 0.494690 -0.047503
C14   C     C_R   0.500325 0.499151 0.341431 0.826021
C15   C     C_3   0.920367 0.632209 0.462707 -0.408397
C16   C     C_3   0.630628 0.080730 0.494849 0.346075
C17   C     C_3   0.630743 0.913900 0.500963 0.393723
C18   C     C_3   0.441089 0.089371 0.584277 0.138052
C19   C     C_3   0.426713 0.921992 0.578699 0.099967
C20   C     C_3   0.425046 0.079199 0.429585 -0.102381
C21   C     C_3   0.437371 0.918230 0.424007 -0.082807
C22   C     C_R   0.738113 0.498094 0.497361 0.775662
C23   C     C_R   0.500048 0.500897 0.658665 0.891435
C24   C     C_3   0.428998 0.626839 0.052501 -0.441326
C25   C     C_3   0.430002 0.374582 0.048383 -0.426993
C26   C     C_3   0.432339 0.371604 0.949747 0.021981
C27   C     C_3   0.430893 0.633072 0.954023 0.020738
C28   C     C_1   0.499332 0.502926 0.748460 0.005397
C29   C     C_3   0.500771 0.498685 0.083420 0.226987
C30   C     C_3   0.495835 0.501816 0.916858 0.235855
Cu1   Cu    Cu3+1 0.499860 0.642410 0.500040 0.944322
Cu2   Cu    Cu3+1 0.499860 0.357590 0.500040 0.969648
H1    H     H_    0.895310 0.710037 0.511732 0.187091
H2    H     H_    0.869476 0.660751 0.404399 0.149178
H3    H     H_    0.327786 0.097110 0.444101 0.039369
H4    H     H_    0.343726 0.882248 0.423772 0.066582
H5    H     H_    0.332431 0.624121 0.075964 0.195999
H6    H     H_    0.468880 0.277799 0.073253 0.172334
H7    H     H_    0.333314 0.380533 0.071804 0.203205
H8    H     H_    0.467256 0.721180 0.080365 0.163919
H9    H     H_    0.487678 0.280631 0.928510 0.139575
H10   H     H_    0.485004 0.722806 0.935553 0.125842
H11   H     H_    0.679807 0.588240 0.924198 0.185894
H12   H     H_    0.680862 0.408522 0.921088 0.192570
H13   H     H_    0.116575 0.397945 0.611249 0.171892
H14   H     H_    0.093209 0.283761 0.483005 0.081108
H15   H     H_    0.916899 0.360617 0.599438 0.169087
H16   H     H_    0.893922 0.280834 0.455689 0.168368
N1    N     N_3   0.500250 0.143650 0.501830 -0.224219
N2    N     N_3   0.500250 0.856350 0.501830 -0.225824
O1    O     O_R   0.317570 0.620260 0.500050 -0.547473
O2    O     O_R   0.317570 0.379740 0.500050 -0.576878
O3    O     O_R   0.499890 0.620310 0.379470 -0.628103
O4    O     O_R   0.499890 0.379690 0.379470 -0.553964
O5    O     O_R   0.682190 0.620260 0.500020 -0.622791
O6    O     O_R   0.682190 0.379740 0.500020 -0.617595
O7    O     O_R   0.499870 0.620210 0.620600 -0.577553
O8    O     O_R   0.499870 0.379790 0.620600 -0.543764
N3    N     N_3   0.305141 0.650983 0.921196 -0.511331
H17   H     H_    0.309445 0.669817 0.856264 0.282886
H18   H     H_    0.266572 0.739481 0.948498 0.214391
N4    N     N_3   0.306934 0.359054 0.916130 -0.513692
H19   H     H_    0.311746 0.341820 0.850646 0.263844
H20   H     H_    0.269253 0.271217 0.940727 0.215485
C31   C     C_2   0.863655 0.549628 0.654903 0.359693
H21   H     H_    0.860478 0.659604 0.654722 0.067396
O9    O     O_2   0.812003 0.490706 0.711815 -0.571726
C32   C     C_2   0.881698 0.395411 0.342979 0.375051
H22   H     H_    0.892639 0.489034 0.309167 0.120271
O10   O     O_2   0.834181 0.300676 0.305653 -0.540766
N5    N     N_3   0.106931 0.761150 0.479967 -0.609509
H23   H     H_    0.179346 0.788924 0.442082 0.221348
H24   H     H_    0.043198 0.840846 0.470683 0.187347
N6    N     N_3   0.081278 0.628238 0.353245 -0.573637
H25   H     H_    0.038610 0.712942 0.325534 0.199526
H26   H     H_    0.175245 0.636819 0.340708 0.235497
N7    N     N_3   0.713461 0.131262 0.561894 -0.642525
H27   H     H_    0.689257 0.221281 0.592971 0.272631
H28   H     H_    0.806033 0.129266 0.543774 0.226830
N8    N     N_3   0.704050 0.863945 0.574404 -0.631200
H29   H     H_    0.669740 0.776907 0.600413 0.254243
H30   H     H_    0.717742 0.929276 0.625387 0.192611
N9    N     N_3   0.689063 0.123985 0.415076 -0.534278
H31   H     H_    0.673617 0.063988 0.362002 0.319432
H32   H     H_    0.660238 0.220345 0.398372 0.322785
N10   N     N_3   0.698914 0.863076 0.426111 -0.541495
H33   H     H_    0.674949 0.770311 0.400119 0.296310
H34   H     H_    0.793913 0.873895 0.432875 0.218282
C33   C     C_2   0.512892 0.125222 0.667327 0.401419
H35   H     H_    0.602588 0.084186 0.681617 0.036529
O11   O     O_2   0.464137 0.187576 0.726496 -0.560287
C34   C     C_2   0.463527 0.862438 0.666226 0.459268
H36   H     H_    0.554395 0.869077 0.692531 -0.004686
O12   O     O_2   0.388510 0.811704 0.713302 -0.543684
C35   C     C_2   0.418415 0.144912 0.342505 0.456806
H37   H     H_    0.329646 0.176657 0.318001 0.068147
O13   O     O_2   0.505399 0.152583 0.294314 -0.519313
C36   C     C_2   0.466571 0.863780 0.334359 0.430442
H38   H     H_    0.398215 0.803199 0.301447 0.043533
O14   O     O_2   0.558534 0.891205 0.294585 -0.528972
N11   N     N_3   0.320418 0.160366 0.600073 -0.493184
H39   H     H_    0.277505 0.123400 0.654104 0.221176
H40   H     H_    0.253903 0.160048 0.552985 0.187568
N12   N     N_3   0.294423 0.888150 0.570051 -0.493463
H41   H     H_    0.244049 0.905078 0.625745 0.241253
H42   H     H_    0.247181 0.950693 0.528356 0.162761
N13   N     N_3   0.702163 0.615903 0.081029 -0.553852
H43   H     H_    0.667965 0.704701 0.053317 0.208174
H44   H     H_    0.794684 0.608321 0.062970 0.222253
N14   N     N_3   0.703025 0.373419 0.076845 -0.522420
H45   H     H_    0.795539 0.377958 0.059092 0.226569
H46   H     H_    0.669531 0.287189 0.046043 0.206364
C37   C     C_2   0.115350 0.607479 0.641096 0.461816
H47   H     H_    0.077064 0.709135 0.634031 0.091836
O15   O     O_2   0.191213 0.586757 0.696888 -0.533693
C38   C     C_2   0.133882 0.330002 0.358606 0.354501
H48   H     H_    0.105234 0.237451 0.326853 0.079078
O16   O     O_2   0.215482 0.395191 0.326890 -0.591010

loop_
_geom_bond_atom_site_label_1
_geom_bond_atom_site_label_2
_ccdc_geom_bond_type
C23   O8    A    
N11   H39   S    
C35   H37   S    
C27   H10   S    
C24   C27   S    
Cu2   O8    S    
N12   H42   S    
C21   H4    S    
N7    H27   S    
C20   N1    S    
N6    H26   S    
C7    H13   S    
C18   C19   S    
C5    C6    T    
C11   N5    S    
C3    N14   S    
C38   H48   S    
C23   O7    A    
C16   N7    S    
C3    C29   S    
C9    C13   S    
C24   C29   S    
Cu2   O2    S    
N4    H20   S    
C19   C34   S    
N14   H45   S    
C20   H3    S    
C11   C15   S    
N9    H31   S    
C2    H12   S    
C32   H22   S    
C31   O9    D    
N13   H43   S    
C33   O11   D    
C15   H2    S    
N3    H17   S    
N11   H40   S    
C27   C30   S    
N13   H44   S    
C1    C12   S    
Cu2   O4    S    
N12   H41   S    
C4    C28   T    
C5    C29   S    
N7    H28   S    
C25   C29   S    
C7    C12   S    
N3    H18   S    
N6    H25   S    
C17   N10   S    
C16   N1    S    
N8    H30   S    
N5    H24   S    
N10   H33   S    
C16   C17   S    
C22   O6    A    
C3    N13   S    
C25   C26   S    
C11   N6    S    
C17   N8    S    
C18   N11   S    
N4    H19   S    
C25   H6    S    
C6    C14   S    
C19   N12   S    
Cu1   Cu2   S    
C2    H11   S    
C8    C12   S    
C9    C31   S    
C34   O12   D    
C24   H5    S    
C23   C28   S    
Cu1   O3    S    
C1    O1    A    
C8    C10   S    
N9    H32   S    
C20   C35   S    
C9    H15   S    
C36   O14   D    
C13   C15   S    
C10   H16   S    
Cu1   N2    S    
C37   H47   S    
C7    C9    S    
C14   O4    A    
C18   C33   S    
Cu1   O1    S    
N8    H29   S    
C15   H1    S    
C10   C13   S    
C17   N2    S    
C11   C12   S    
C35   O13   D    
C26   C30   S    
C22   O5    A    
C10   C32   S    
C2    C30   S    
Cu1   O7    S    
C2    C3    S    
C26   N4    S    
N5    H23   S    
C31   H21   S    
C27   N3    S    
C25   H7    S    
C21   C36   S    
C19   N2    S    
C7    C37   S    
C34   H36   S    
C24   H8    S    
C38   O16   D    
C13   C22   S    
N10   H34   S    
C16   N9    S    
C1    O2    A    
N14   H46   S    
Cu2   N1    S    
C8    C38   S    
C14   O3    A    
C20   C21   S    
C18   N1    S    
C32   O10   D    
C36   H38   S    
C21   N2    S    
C8    H14   S    
Cu1   O5    S    
C33   H35   S    
Cu2   O6    S    
C4    C30   S    
C26   H9    S    
C37   O15   D    
