data_mof_unit_13847.cif
_audit_creation_date              2012-12-10T17:06:43-0500
_audit_creation_method            fapswitch 2.2
_symmetry_space_group_name_H-M    P1
_symmetry_Int_Tables_number       1
_space_group_crystal_system       triclinic
_cell_length_a                    15.857452
_cell_length_b                    11.07136
_cell_length_c                    9.828008
_cell_angle_alpha                 111.674452
_cell_angle_beta                  97.803591
_cell_angle_gamma                 91.062898
_cell_volume                      1584.16957972

loop_
_atom_site_label
_atom_site_type_symbol
_atom_type_description
_atom_site_fract_x
_atom_site_fract_y
_atom_site_fract_z
_atom_type_partial_charge
C1    C     C_R   0.493622 0.253742 0.439656 0.786696
C2    C     C_R   0.505812 0.746249 0.560355 0.785346
C3    C     C_2   0.497345 0.069250 0.513565 -0.191694
C4    C     C_2   0.495425 0.930559 0.486488 -0.193744
C5    C     C_2   0.507137 0.511088 0.081477 -0.030727
C6    C     C_2   0.492352 0.489656 0.918706 -0.039074
C7    C     C_R   0.339970 0.500161 0.501531 0.823519
C8    C     C_R   0.660085 0.499860 0.498489 0.826025
C9    C     C_3   0.968035 0.377362 0.469302 -0.219948
C10   C     C_3   0.032598 0.624135 0.536416 -0.304667
C11   C     C_3   0.017121 0.422172 0.367494 -0.298265
C12   C     C_3   0.982975 0.578492 0.637681 -0.318333
C13   C     C_1   0.250668 0.500808 0.504555 -0.166089
C14   C     C_1   0.749531 0.499236 0.495781 -0.147529
C15   C     C_3   0.035131 0.457207 0.603730 0.533160
C16   C     C_3   0.965914 0.544062 0.401659 0.550130
C17   C     C_3   0.083575 0.501094 0.503718 0.032050
C18   C     C_3   0.917121 0.499597 0.500770 0.073077
C19   C     C_1   0.175216 0.501042 0.504848 -0.024152
C20   C     C_1   0.825168 0.499178 0.496845 0.024081
C21   C     C_2   0.489697 0.113531 0.403207 0.201428
C22   C     C_2   0.508308 0.886423 0.596803 0.202300
Cu1   Cu    Cu3+1 0.514700 0.521810 0.644910 1.000044
Cu2   Cu    Cu3+1 0.485300 0.478190 0.355090 0.993138
H1    H     H_    0.031660 0.360168 0.256663 0.158467
H2    H     H_    0.967524 0.641051 0.747602 0.150715
H3    H     H_    0.940925 0.277048 0.444702 0.163593
H4    H     H_    0.060035 0.724391 0.561786 0.159404
H5    H     H_    0.483449 0.861652 0.372596 0.207305
H6    H     H_    0.505665 0.138059 0.627469 0.207715
H7    H     H_    0.442731 0.417069 0.845642 0.158390
H8    H     H_    0.556449 0.584149 0.154673 0.165275
H9    H     H_    0.583445 0.622900 0.934686 0.217140
H10   H     H_    0.416770 0.376744 0.065221 0.210430
N1    N     N_2   0.463210 0.445420 0.137360 -0.275408
N2    N     N_2   0.536790 0.554580 0.862640 -0.268334
O1    O     O_R   0.507840 0.332340 0.577400 -0.610971
O2    O     O_R   0.492160 0.667660 0.422600 -0.613000
O3    O     O_R   0.483020 0.295500 0.332650 -0.511462
O4    O     O_R   0.516980 0.704500 0.667350 -0.512524
O5    O     O_R   0.391490 0.518400 0.622350 -0.572378
O6    O     O_R   0.608510 0.481600 0.377650 -0.562885
O7    O     O_R   0.366660 0.481570 0.377600 -0.578982
O8    O     O_R   0.633340 0.518430 0.622400 -0.566719
O9    O     O_3   0.923646 0.588326 0.294922 -0.601883
C23   C     C_3   0.982966 0.629578 0.222643 0.043866
H11   H     H_    0.963859 0.577268 0.101297 0.169667
H12   H     H_    0.050171 0.607515 0.249668 0.126683
C24   C     C_3   0.979451 0.776060 0.259678 -0.327919
H13   H     H_    0.913000 0.797434 0.228417 0.239230
H14   H     H_    0.998444 0.829272 0.380896 0.218731
C25   C     C_3   0.038659 0.824686 0.177640 -0.909104
H15   H     H_    0.105800 0.806920 0.209483 0.258509
H16   H     H_    0.034318 0.931089 0.207041 0.267323
H17   H     H_    0.019824 0.774591 0.055984 0.245538
O10   O     O_3   0.072449 0.402409 0.704360 -0.605606
C26   C     C_3   0.117460 0.500928 0.832111 0.055552
H18   H     H_    0.071584 0.560105 0.900635 0.134746
H19   H     H_    0.160099 0.565933 0.803134 0.154689
C27   C     C_3   0.172326 0.437046 0.923142 -0.328083
H20   H     H_    0.130430 0.375569 0.957767 0.224180
H21   H     H_    0.216123 0.373409 0.853691 0.229523
C28   C     C_3   0.225239 0.538464 0.060743 -0.903185
H22   H     H_    0.269277 0.598972 0.028671 0.269566
H23   H     H_    0.263722 0.488468 0.124189 0.272899
H24   H     H_    0.182955 0.602344 0.133104 0.248439
Cl1   Cl    Cl    0.528298 0.991433 0.786010 -0.549019
Cl2   Cl    Cl    0.475637 0.008689 0.213953 -0.556887

loop_
_geom_bond_atom_site_label_1
_geom_bond_atom_site_label_2
_ccdc_geom_bond_type
C16   O9    S    
C2    C22   S    
C3    H6    S    
Cu2   O2    S    
Cu1   Cu2   S    
C28   H23   S    
C1    C21   S    
C2    O4    A    
C4    C22   D    
C11   C16   S    
C2    O2    A    
C4    H5    S    
Cu1   O5    S    
C25   H17   S    
C1    O1    A    
C5    H8    S    
C15   O10   S    
C24   C25   S    
C12   C18   S    
C6    H7    S    
C9    C15   S    
C28   H24   S    
C25   H16   S    
C10   C16   S    
O9    C23   S    
O10   C26   S    
C9    C11   S    
C23   C24   S    
C8    O8    A    
C26   H18   S    
C10   C12   S    
C27   C28   S    
C5    N1    D    
C16   C18   S    
C17   C19   S    
Cu1   O1    S    
C8    O6    A    
Cu1   N2    S    
C12   C15   S    
C18   C20   S    
C7    O5    A    
C21   Cl2   S    
C5    C6    S    
C23   H12   S    
C22   Cl1   S    
C3    C21   D    
Cu2   N1    S    
C26   H19   S    
C13   C19   T    
C10   C17   S    
C10   H4    S    
Cu1   O4    S    
C11   H1    S    
C14   C20   T    
C9    C18   S    
C7    C13   S    
H9    N2    S    
Cu2   O6    S    
C25   H15   S    
C9    H3    S    
C27   H21   S    
H10   N1    S    
C12   H2    S    
C7    O7    A    
C24   H13   S    
Cu2   O7    S    
C1    O3    A    
C23   H11   S    
C11   C17   S    
C26   C27   S    
C8    C14   S    
C24   H14   S    
C15   C17   S    
Cu2   O3    S    
C3    C4    S    
C28   H22   S    
C6    N2    D    
C27   H20   S    
Cu1   O8    S    
