data_mof_unit_54198.cif
_audit_creation_date              2012-10-26T18:29:58-0400
_audit_creation_method            fapswitch 2.2
_symmetry_space_group_name_H-M    P1
_symmetry_Int_Tables_number       1
_space_group_crystal_system       triclinic
_cell_length_a                    10.736267
_cell_length_b                    12.998576
_cell_length_c                    11.665735
_cell_angle_alpha                 99.705788
_cell_angle_beta                  93.766511
_cell_angle_gamma                 90.486037
_cell_volume                      1600.93986835

loop_
_atom_site_label
_atom_site_type_symbol
_atom_type_description
_atom_site_fract_x
_atom_site_fract_y
_atom_site_fract_z
_atom_type_partial_charge
C1    C     C_R   0.497806 0.299067 0.478732 0.543714
C2    C     C_R   0.502325 0.031107 0.556040 0.045269
C3    C     C_R   0.494994 0.968746 0.444072 0.042743
C4    C     C_R   0.259897 0.500502 0.500487 0.572910
C5    C     C_R   0.495373 0.860737 0.433632 -0.133939
C6    C     C_R   0.510405 0.876422 0.644671 -0.150036
C7    C     C_R   0.509835 0.984500 0.655827 -0.146237
C8    C     C_R   0.377498 0.406012 0.022377 -0.179366
C9    C     C_R   0.389710 0.414515 0.144486 0.043122
C10   C     C_R   0.553559 0.539957 0.156739 0.044816
C11   C     C_R   0.544617 0.534014 0.033996 0.007238
C12   C     C_3   0.878192 0.502140 0.500463 0.013100
C13   C     C_R   0.455266 0.466096 0.966020 0.006930
C14   C     C_R   0.446332 0.460144 0.843280 0.041630
C15   C     C_R   0.610284 0.585493 0.855517 0.039273
C16   C     C_R   0.501923 0.700905 0.521281 0.556072
C17   C     C_R   0.622418 0.594071 0.977633 -0.180342
C18   C     C_R   0.740306 0.500920 0.499984 0.547976
C19   C     C_3   0.080139 0.513358 0.628056 -0.242943
C20   C     C_3   0.937708 0.516582 0.627513 -0.241010
C21   C     C_3   0.066502 0.587962 0.434370 0.159452
C22   C     C_3   0.066992 0.395039 0.436333 -0.284172
C23   C     C_3   0.923493 0.594190 0.443540 -0.209235
C24   C     C_3   0.122417 0.501558 0.501286 0.043543
C25   C     C_3   0.139768 0.738587 0.569702 0.016656
C26   C     C_3   0.157155 0.855530 0.570694 -0.251740
C27   C     C_3   0.176229 0.915898 0.694786 -0.487912
C28   C     C_3   0.922693 0.397209 0.432144 -0.252244
C29   C     C_R   0.502934 0.814221 0.533605 -0.003550
C30   C     C_R   0.496052 0.185678 0.466462 -0.003178
C31   C     C_R   0.487584 0.015335 0.344274 -0.141180
C32   C     C_R   0.488169 0.123433 0.355397 -0.140613
C33   C     C_R   0.502578 0.139140 0.566456 -0.136438
Cu1   Cu    Cu3+1 0.509350 0.507730 0.615930 0.912311
Cu2   Cu    Cu3+1 0.490650 0.492270 0.384070 0.936219
H1    H     H_    0.122259 0.582690 0.686359 0.110045
H2    H     H_    0.508331 0.186743 0.652515 0.119311
H3    H     H_    0.378068 0.407956 0.790092 0.109976
H4    H     H_    0.112729 0.445411 0.667944 0.120993
H5    H     H_    0.670763 0.631982 0.812946 0.118274
H6    H     H_    0.307750 0.352924 0.972574 0.078785
H7    H     H_    0.692169 0.647158 0.027432 0.082109
H8    H     H_    0.329283 0.367976 0.187046 0.116504
H9    H     H_    0.621774 0.592192 0.209931 0.110006
H10   H     H_    0.904172 0.453573 0.672499 0.138572
H11   H     H_    0.909751 0.592425 0.677856 0.111595
H12   H     H_    0.884769 0.386844 0.339723 0.129389
H13   H     H_    0.895994 0.669689 0.494288 0.117737
H14   H     H_    0.097691 0.377840 0.345879 0.110230
H15   H     H_    0.100990 0.330483 0.481219 0.118063
H16   H     H_    0.886891 0.330704 0.470249 0.124035
H17   H     H_    0.223764 0.710708 0.615229 0.157171
H18   H     H_    0.055751 0.727562 0.617191 0.115710
H19   H     H_    0.239418 0.869219 0.521898 0.190585
H20   H     H_    0.073402 0.885259 0.526509 0.165416
H21   H     H_    0.092550 0.906944 0.743671 0.140588
H22   H     H_    0.191437 0.000050 0.692157 0.148892
H23   H     H_    0.078030 0.557789 0.340512 0.147371
H24   H     H_    0.259141 0.887112 0.740975 0.150198
H25   H     H_    0.876914 0.589720 0.354623 0.100204
H26   H     H_    0.489546 0.813142 0.347573 0.125941
H27   H     H_    0.516006 0.841678 0.722915 0.125877
H28   H     H_    0.481732 0.968326 0.257960 0.102486
H29   H     H_    0.515259 0.031470 0.742148 0.101260
H30   H     H_    0.482762 0.158157 0.277133 0.128034
N1    N     N_R   0.523430 0.519360 0.790130 -0.229276
N2    N     N_R   0.476570 0.480640 0.209880 -0.227896
O1    O     O_R   0.506640 0.354460 0.582000 -0.509701
O2    O     O_R   0.490840 0.341410 0.386200 -0.510804
O3    O     O_R   0.325590 0.506510 0.597900 -0.521956
O4    O     O_R   0.309790 0.493450 0.402100 -0.496615
O5    O     O_R   0.509160 0.658590 0.613800 -0.515257
O6    O     O_R   0.493360 0.645540 0.418000 -0.497742
O7    O     O_R   0.690210 0.506550 0.597900 -0.510263
O8    O     O_R   0.674410 0.493490 0.402100 -0.511720
O9    O     O_3   0.129639 0.686865 0.452840 -0.572965

loop_
_geom_bond_atom_site_label_1
_geom_bond_atom_site_label_2
_ccdc_geom_bond_type
C28   H12   S    
C8    C13   A    
C2    C7    A    
C16   O5    A    
C26   H20   S    
Cu1   N1    S    
C4    O3    A    
C10   N2    A    
C12   C23   S    
Cu2   O8    S    
C26   C27   S    
C18   O8    A    
C12   C28   S    
C25   H18   S    
C19   H1    S    
C4    C24   S    
C28   H16   S    
C1    O1    A    
Cu1   Cu2   S    
C17   H7    S    
C11   C17   A    
C19   C20   S    
C8    C9    A    
Cu1   O3    S    
C20   H10   S    
C22   H15   S    
Cu2   O4    S    
C18   O7    A    
C22   C28   S    
C13   C14   A    
C26   H19   S    
C5    C29   A    
C23   H25   S    
C15   H5    S    
C9    H8    S    
C10   H9    S    
C16   O6    A    
C31   H28   S    
C8    H6    S    
C27   H22   S    
Cu1   O1    S    
C27   H21   S    
C25   C26   S    
C15   N1    A    
C1    O2    A    
C9    N2    A    
C14   H3    S    
C31   C32   A    
C21   O9    S    
Cu2   N2    S    
C12   C20   S    
C14   N1    A    
C5    H26   S    
C3    C31   A    
C19   H4    S    
Cu1   O7    S    
C22   H14   S    
C2    C33   A    
C21   C23   S    
C22   C24   S    
Cu1   O5    S    
C15   C17   A    
Cu2   O6    S    
C23   H13   S    
C30   C33   A    
C3    C5    A    
C6    C7    A    
C25   O9    S    
C6    H27   S    
C2    C3    A    
C16   C29   S    
C25   H17   S    
C21   H23   S    
C27   H24   S    
C30   C32   A    
C11   C13   A    
C1    C30   S    
C19   C24   S    
C33   H2    S    
C7    H29   S    
C10   C11   A    
C6    C29   A    
Cu2   O2    S    
C21   C24   S    
C12   C18   S    
C4    O4    A    
C20   H11   S    
C32   H30   S    
