data_mof_unit_61835.cif
_audit_creation_date              2012-12-10T19:45:58-0500
_audit_creation_method            fapswitch 2.2
_symmetry_space_group_name_H-M    P1
_symmetry_Int_Tables_number       1
_space_group_crystal_system       monoclinic
_cell_length_a                    18.403211
_cell_length_b                    18.403211
_cell_length_c                    27.665131
_cell_angle_alpha                 90.0
_cell_angle_beta                  90.0
_cell_angle_gamma                 90.182229
_cell_volume                      9369.52869208

loop_
_atom_site_label
_atom_site_type_symbol
_atom_type_description
_atom_site_fract_x
_atom_site_fract_y
_atom_site_fract_z
_atom_type_partial_charge
C1    C     C_1   1.000000 0.500000 0.775511 -0.011788
C2    C     C_3   0.203343 0.143667 0.936823 -0.134649
C3    C     C_R   0.234928 0.818852 0.521117 -0.151615
C4    C     C_1   0.500000 0.000000 0.224512 -0.019884
C5    C     C_1   0.000000 0.500000 0.224512 -0.019884
C6    C     C_1   0.000000 0.500000 0.724512 -0.019884
C7    C     C_1   0.500000 1.000000 0.724512 -0.019884
C8    C     C_1   0.087904 0.802433 0.922381 0.238771
C9    C     C_1   0.243271 0.133305 0.891131 0.268454
C10   C     C_1   0.912096 0.197567 0.922381 0.238771
C11   C     C_1   0.756729 0.866695 0.891131 0.268454
C12   C     C_1   0.133305 0.243271 0.891131 0.268454
C13   C     C_3   0.868803 0.190292 0.967005 -0.141368
C14   C     C_1   0.197567 0.912096 0.922381 0.238771
C15   C     C_1   0.866695 0.756729 0.891131 0.268454
C16   C     C_1   0.802432 0.087904 0.922381 0.238771
C17   C     C_1   0.587904 0.302433 0.422381 0.238771
C18   C     C_1   0.743271 0.633305 0.391131 0.268454
C19   C     C_1   0.412096 0.697567 0.422381 0.238771
C20   C     C_1   0.256729 0.366694 0.391131 0.268454
C21   C     C_1   0.633305 0.743271 0.391131 0.268455
C22   C     C_1   0.697567 0.412096 0.422381 0.238771
C23   C     C_1   0.366694 0.256729 0.391131 0.268455
C24   C     C_3   0.796657 0.856333 0.936823 -0.134649
C25   C     C_1   0.302433 0.587904 0.422381 0.238771
C26   C     C_3   0.143667 0.203343 0.936823 -0.134649
C27   C     C_3   0.190292 0.868803 0.967005 -0.141368
C28   C     C_3   0.856333 0.796657 0.936823 -0.134649
C29   C     C_3   0.809707 0.131196 0.967005 -0.141368
C30   C     C_3   0.631196 0.309708 0.467005 -0.141368
C31   C     C_3   0.703343 0.643667 0.436823 -0.134648
C32   C     C_3   0.368803 0.690292 0.467005 -0.141368
C33   C     C_1   0.500000 0.000000 0.775511 -0.011788
C34   C     C_3   0.296657 0.356333 0.436823 -0.134649
C35   C     C_3   0.643667 0.703343 0.436823 -0.134649
C36   C     C_3   0.690292 0.368803 0.467005 -0.141368
C37   C     C_3   0.356333 0.296657 0.436823 -0.134649
C38   C     C_3   0.309708 0.631197 0.467005 -0.141368
C39   C     C_R   0.500000 0.000000 0.870894 0.511715
C40   C     C_R   1.000000 0.500000 0.870894 0.511715
C41   C     C_R   1.000000 0.500000 0.370894 0.511715
C42   C     C_R   0.500000 1.000000 0.370894 0.511715
C43   C     C_R   0.500000 0.000000 0.129120 0.505030
C44   C     C_1   0.500000 0.000000 0.275510 -0.011788
C45   C     C_R   0.000000 0.500000 0.129120 0.505030
C46   C     C_R   0.000000 0.500000 0.629120 0.505030
C47   C     C_R   0.500000 1.000000 0.629120 0.505030
C48   C     C_R   0.639973 0.859887 0.999985 0.509400
C49   C     C_R   0.140286 0.640083 0.999897 0.505196
C50   C     C_R   0.360026 0.140113 0.999985 0.509400
C51   C     C_R   0.859714 0.359917 0.999897 0.505196
C52   C     C_R   0.640083 0.140286 0.999897 0.505196
C53   C     C_R   0.140113 0.360026 0.999985 0.509400
C54   C     C_R   0.359917 0.859714 0.999897 0.505196
C55   C     C_1   1.000000 0.500000 0.275510 -0.011788
C56   C     C_R   0.859887 0.639973 0.999985 0.509400
C57   C     C_R   0.139974 0.359887 0.499985 0.509400
C58   C     C_R   0.640285 0.140083 0.499897 0.505196
C59   C     C_R   0.860026 0.640113 0.499985 0.509400
C60   C     C_R   0.359714 0.859917 0.499897 0.505196
C61   C     C_R   0.140083 0.640285 0.499897 0.505196
C62   C     C_R   0.640113 0.860026 0.499985 0.509400
C63   C     C_R   0.859917 0.359714 0.499897 0.505196
C64   C     C_R   0.359887 0.139973 0.499985 0.509400
C65   C     C_1   1.000000 0.500000 0.819064 0.038763
C66   C     C_1   0.500000 1.000000 0.180956 0.021947
C67   C     C_1   0.500000 0.000000 0.819064 0.038763
C68   C     C_1   0.500000 0.000000 0.319064 0.038763
C69   C     C_1   1.000000 0.500000 0.319064 0.038763
C70   C     C_R   0.244649 0.808555 0.968656 0.015970
C71   C     C_R   0.191920 0.243829 0.970902 -0.009838
C72   C     C_R   0.755351 0.191445 0.968656 0.015970
C73   C     C_R   0.808080 0.756171 0.970902 -0.009838
C74   C     C_R   0.243829 0.191920 0.970902 -0.009838
C75   C     C_R   0.191445 0.755351 0.968656 0.015970
C76   C     C_R   0.756171 0.808080 0.970902 -0.009838
C77   C     C_1   1.000000 0.500000 0.180956 0.021947
C78   C     C_R   0.808555 0.244649 0.968656 0.015970
C79   C     C_R   0.744649 0.308555 0.468656 0.015970
C80   C     C_R   0.691920 0.743829 0.470902 -0.009838
C81   C     C_R   0.255351 0.691445 0.468656 0.015970
C82   C     C_R   0.308080 0.256171 0.470902 -0.009838
C83   C     C_R   0.743829 0.691920 0.470902 -0.009838
C84   C     C_R   0.691445 0.255351 0.468656 0.015970
C85   C     C_R   0.256171 0.308080 0.470902 -0.009838
C86   C     C_R   0.308555 0.744649 0.468656 0.015970
C87   C     C_R   0.306907 0.801201 0.997108 0.018563
C88   C     C_1   0.000000 0.500000 0.680956 0.021947
C89   C     C_R   0.196633 0.305499 0.999690 0.028095
C90   C     C_R   0.693093 0.198799 0.997108 0.018563
C91   C     C_R   0.803367 0.694501 0.999690 0.028095
C92   C     C_R   0.305499 0.196633 0.999690 0.028095
C93   C     C_R   0.198799 0.693093 0.997108 0.018563
C94   C     C_R   0.694501 0.803367 0.999690 0.028095
C95   C     C_R   0.801201 0.306907 0.997108 0.018563
C96   C     C_R   0.806907 0.301201 0.497108 0.018563
C97   C     C_R   0.696633 0.805499 0.499690 0.028095
C98   C     C_R   0.193093 0.698799 0.497108 0.018563
C99   C     C_1   0.500000 1.000000 0.680956 0.021947
C100  C     C_R   0.303367 0.194501 0.499690 0.028095
C101  C     C_R   0.805499 0.696633 0.499690 0.028095
C102  C     C_R   0.698799 0.193093 0.497108 0.018563
C103  C     C_R   0.194501 0.303367 0.499690 0.028095
C104  C     C_R   0.301201 0.806907 0.497108 0.018563
C105  C     C_R   0.318852 0.734928 0.021117 -0.151615
C106  C     C_R   0.259204 0.313148 0.028850 -0.148614
C107  C     C_R   0.681148 0.265072 0.021117 -0.151615
C108  C     C_R   0.740796 0.686851 0.028850 -0.148614
C109  C     C_R   0.313148 0.259204 0.028850 -0.148614
C110  C     C_3   0.131197 0.809708 0.967005 -0.141369
C111  C     C_R   0.265072 0.681148 0.021117 -0.151615
C112  C     C_R   0.686851 0.740796 0.028850 -0.148613
C113  C     C_R   0.734928 0.318852 0.021117 -0.151615
C114  C     C_R   0.818852 0.234928 0.521117 -0.151615
C115  C     C_R   0.759204 0.813149 0.528850 -0.148614
C116  C     C_R   0.181148 0.765072 0.521117 -0.151615
C117  C     C_R   0.240796 0.186851 0.528850 -0.148614
C118  C     C_R   0.813149 0.759204 0.528850 -0.148614
C119  C     C_R   0.765072 0.181148 0.521117 -0.151615
C120  C     C_R   0.186851 0.240796 0.528850 -0.148614
H1    H     H_    0.097339 0.809299 0.000299 0.098706
H2    H     H_    0.685966 0.591854 0.454006 0.117542
H3    H     H_    0.402661 0.690701 0.500299 0.098706
H4    H     H_    0.314034 0.408146 0.454006 0.117542
H5    H     H_    0.591854 0.685966 0.454006 0.117542
H6    H     H_    0.690701 0.402661 0.500300 0.098706
H7    H     H_    0.408146 0.314034 0.454006 0.117542
H8    H     H_    0.309299 0.597339 0.500299 0.098706
H9    H     H_    0.368272 0.725697 0.041434 0.149876
H10   H     H_    0.266439 0.360246 0.051841 0.149885
H11   H     H_    0.631728 0.274303 0.041434 0.149876
H12   H     H_    0.185966 0.091854 0.954006 0.117542
H13   H     H_    0.733561 0.639754 0.051841 0.149885
H14   H     H_    0.360246 0.266439 0.051841 0.149885
H15   H     H_    0.274303 0.631728 0.041434 0.149876
H16   H     H_    0.639754 0.733561 0.051841 0.149885
H17   H     H_    0.725697 0.368271 0.041434 0.149876
H18   H     H_    0.868272 0.225697 0.541434 0.149876
H19   H     H_    0.766439 0.860246 0.551840 0.149885
H20   H     H_    0.131728 0.774303 0.541434 0.149876
H21   H     H_    0.233561 0.139754 0.551840 0.149885
H22   H     H_    0.860246 0.766439 0.551840 0.149885
H23   H     H_    0.902661 0.190701 0.000299 0.098706
H24   H     H_    0.774303 0.131728 0.541434 0.149876
H25   H     H_    0.139754 0.233561 0.551840 0.149885
H26   H     H_    0.225697 0.868272 0.541434 0.149876
H27   H     H_    0.814034 0.908146 0.954006 0.117542
H28   H     H_    0.091854 0.185966 0.954006 0.117542
H29   H     H_    0.190701 0.902661 0.000299 0.098706
H30   H     H_    0.908146 0.814034 0.954006 0.117542
H31   H     H_    0.809299 0.097339 0.000299 0.098706
H32   H     H_    0.597339 0.309299 0.500299 0.098706
N1    N     N_1   0.053885 0.796651 0.887403 -0.253590
N2    N     N_1   0.774685 0.625069 0.355319 -0.246142
N3    N     N_1   0.446115 0.703349 0.387403 -0.253590
N4    N     N_1   0.225315 0.374931 0.355319 -0.246142
N5    N     N_1   0.625069 0.774685 0.355319 -0.246142
N6    N     N_1   0.703349 0.446115 0.387403 -0.253590
N7    N     N_1   0.374930 0.225315 0.355319 -0.246142
N8    N     N_1   0.296651 0.553885 0.387403 -0.253591
N9    N     N_1   0.274685 0.125069 0.855319 -0.246142
N10   N     N_1   0.946115 0.203349 0.887403 -0.253590
N11   N     N_1   0.725315 0.874931 0.855319 -0.246142
N12   N     N_1   0.125069 0.274685 0.855319 -0.246142
N13   N     N_1   0.203349 0.946115 0.887403 -0.253590
N14   N     N_1   0.874931 0.725315 0.855319 -0.246142
N15   N     N_1   0.796651 0.053885 0.887403 -0.253590
N16   N     N_1   0.553885 0.296651 0.387403 -0.253590
O1    O     O_3   0.500000 0.000000 0.000010 -0.447913
O2    O     O_R   0.500000 0.939270 0.393740 -0.521520
O3    O     O_R   0.060730 0.500000 0.393740 -0.521520
O4    O     O_R   0.500000 0.060730 0.393740 -0.521520
O5    O     O_R   0.500000 0.939230 0.106280 -0.534030
O6    O     O_R   0.060770 0.500000 0.106280 -0.534030
O7    O     O_R   0.500000 0.060770 0.106280 -0.534030
O8    O     O_R   0.939230 0.500000 0.106280 -0.534030
O9    O     O_R   0.000000 0.439230 0.606280 -0.534030
O10   O     O_R   0.560770 0.000000 0.606280 -0.534030
O11   O     O_R   0.000000 0.560770 0.606280 -0.534030
O12   O     O_3   1.000000 0.500000 0.000010 -0.447913
O13   O     O_R   0.439230 0.000000 0.606280 -0.534030
O14   O     O_R   0.646160 0.914520 0.972140 -0.537251
O15   O     O_R   0.085480 0.646160 0.972140 -0.535269
O16   O     O_R   0.353840 0.085480 0.972140 -0.537251
O17   O     O_R   0.914520 0.353840 0.972140 -0.535269
O18   O     O_R   0.646160 0.085480 0.972140 -0.535269
O19   O     O_R   0.085480 0.353840 0.972140 -0.537251
O20   O     O_R   0.353840 0.914520 0.972140 -0.535269
O21   O     O_R   0.914520 0.646160 0.972140 -0.537251
O22   O     O_R   0.146160 0.414520 0.472140 -0.537251
O23   O     O_3   0.000000 0.500000 0.500010 -0.447913
O24   O     O_R   0.585480 0.146160 0.472140 -0.535269
O25   O     O_R   0.853840 0.585480 0.472140 -0.537251
O26   O     O_R   0.414520 0.853840 0.472140 -0.535269
O27   O     O_R   0.146160 0.585480 0.472140 -0.535269
O28   O     O_R   0.585480 0.853840 0.472140 -0.537251
O29   O     O_R   0.853840 0.414520 0.472140 -0.535269
O30   O     O_R   0.414520 0.146160 0.472140 -0.537251
O31   O     O_R   0.414550 0.146120 0.027860 -0.548637
O32   O     O_R   0.853880 0.414550 0.027860 -0.547279
O33   O     O_R   0.585450 0.853880 0.027860 -0.548636
O34   O     O_3   0.500000 0.000000 0.500010 -0.447913
O35   O     O_R   0.146120 0.585450 0.027860 -0.547279
O36   O     O_R   0.414550 0.853880 0.027860 -0.547279
O37   O     O_R   0.853880 0.585450 0.027860 -0.548636
O38   O     O_R   0.585450 0.146120 0.027860 -0.547279
O39   O     O_R   0.146120 0.414550 0.027860 -0.548636
O40   O     O_R   0.914550 0.646120 0.527860 -0.548636
O41   O     O_R   0.353880 0.914550 0.527860 -0.547279
O42   O     O_R   0.085450 0.353880 0.527860 -0.548636
O43   O     O_R   0.646120 0.085450 0.527860 -0.547279
O44   O     O_R   0.914550 0.353880 0.527860 -0.547279
O45   O     O_R   0.439270 0.000000 0.893740 -0.521520
O46   O     O_R   0.353880 0.085450 0.527860 -0.548636
O47   O     O_R   0.085450 0.646120 0.527860 -0.547278
O48   O     O_R   0.646120 0.914550 0.527860 -0.548636
O49   O     O_R   1.000000 0.439270 0.893740 -0.521520
O50   O     O_R   0.560730 0.000000 0.893740 -0.521520
O51   O     O_R   0.000000 0.560730 0.893740 -0.521520
O52   O     O_R   0.939270 0.500000 0.393740 -0.521520
Zn1   Zn    Zn3+2 0.500000 0.913210 0.039810 0.942505
Zn2   Zn    Zn3+2 0.000000 0.586760 0.960200 0.967905
Zn3   Zn    Zn3+2 0.413240 0.000000 0.960200 0.967905
Zn4   Zn    Zn3+2 0.000000 0.413240 0.960200 0.967905
Zn5   Zn    Zn3+2 0.086760 0.500000 0.460200 0.967905
Zn6   Zn    Zn3+2 0.500000 0.086760 0.460200 0.967905
Zn7   Zn    Zn3+2 0.913240 0.500000 0.460200 0.967905
Zn8   Zn    Zn3+2 0.500000 0.913240 0.460200 0.967905
Zn9   Zn    Zn3+2 0.086790 0.500000 0.039810 0.942505
Zn10  Zn    Zn3+2 0.500000 0.086790 0.039810 0.942505
Zn11  Zn    Zn3+2 0.913210 0.500000 0.039810 0.942505
Zn12  Zn    Zn3+2 0.000000 0.413210 0.539810 0.942505
Zn13  Zn    Zn3+2 0.586790 0.000000 0.539810 0.942505
Zn14  Zn    Zn3+2 0.000000 0.586790 0.539810 0.942505
Zn15  Zn    Zn3+2 0.413210 0.000000 0.539810 0.942505
Zn16  Zn    Zn3+2 0.586760 0.000000 0.960200 0.967905

loop_
_geom_bond_atom_site_label_1
_geom_bond_atom_site_label_2
_ccdc_geom_bond_type
C3    C104  A    
C59   O40   A    
O16   Zn3   S    
C48   O14   A    
C49   O35   A    
O12   Zn11  S    
C28   H30   S    
O48   Zn13  S    
O1    Zn16  S    
C64   O30   A    
C40   O49   A    
O38   Zn10  S    
C34   C37   S    
C19   N3    T    
C11   C24   S    
C39   O50   A    
C52   C90   S    
C103  C120  A    
C32   H3    S    
O33   Zn1   S    
C63   O44   A    
C47   O13   A    
C37   H7    S    
O5    Zn1   S    
O9    Zn12  S    
O28   Zn8   S    
C53   C89   S    
C6    C88   T    
O34   Zn6   S    
O1    Zn3   S    
C58   O43   A    
C59   O25   A    
O23   Zn14  S    
C41   O3    A    
C75   C93   A    
C56   O21   A    
C7    C99   T    
C52   O38   A    
C101  C118  A    
C13   C29   S    
O31   Zn10  S    
C90   C107  A    
C47   O10   A    
O2    Zn8   S    
C3    C116  A    
O15   Zn2   S    
C110  H1    S    
C79   C84   A    
C80   C97   A    
C54   O36   A    
C92   C109  A    
C12   N12   T    
O19   Zn4   S    
C28   C73   S    
C16   N15   T    
O26   Zn8   S    
O22   Zn5   S    
C35   C80   S    
C47   C99   S    
O1    Zn10  S    
C74   C92   A    
C35   H5    S    
C107  C113  A    
C72   C78   A    
C42   O2    A    
C71   C74   A    
C76   C94   A    
O34   Zn15  S    
C49   O15   A    
O43   Zn13  S    
C43   O7    A    
C56   C91   S    
O1    Zn1   S    
C56   O37   A    
O3    Zn5   S    
C27   C110  S    
O23   Zn12  S    
O17   Zn4   S    
C23   N7    T    
C89   C106  A    
C2    H12   S    
O34   Zn13  S    
C15   N14   T    
O12   Zn2   S    
C58   C102  S    
O32   Zn11  S    
C32   C38   S    
C14   C27   S    
C97   C115  A    
C20   N4    T    
C60   O41   A    
C61   O27   A    
C46   C88   S    
C114  C119  A    
C85   C103  A    
O14   Zn16  S    
C84   C102  A    
C29   C72   S    
C20   C34   S    
O49   Zn4   S    
O24   Zn6   S    
C105  C111  A    
C86   C104  A    
C120  H25   S    
O23   Zn5   S    
O7    Zn10  S    
C54   O20   A    
C117  C120  A    
C42   C68   S    
C26   C71   S    
C7    C33   S    
C46   O9    A    
C96   C114  A    
O47   Zn14  S    
C62   O48   A    
C112  H16   S    
O11   Zn14  S    
C70   C87   A    
C46   O11   A    
O18   Zn16  S    
C57   C103  S    
C36   H6    S    
O12   Zn9   S    
C57   O22   A    
O27   Zn5   S    
C60   O26   A    
C1    C6    S    
C59   C101  S    
C73   C91   A    
C107  H11   S    
C45   O8    A    
O35   Zn9   S    
C39   O45   A    
O21   Zn2   S    
C24   C76   S    
C98   C116  A    
O34   Zn8   S    
C4    C44   S    
C16   C29   S    
C23   C37   S    
O8    Zn11  S    
C63   C96   S    
C24   H27   S    
C22   N6    T    
C63   O29   A    
O52   Zn7   S    
C12   C26   S    
C34   C85   S    
C117  H21   S    
O41   Zn15  S    
C51   O17   A    
C8    C110  S    
C25   C38   S    
C29   H31   S    
C62   C97   S    
C72   C90   A    
O13   Zn15  S    
C1    C65   T    
C87   C105  A    
C78   C95   A    
C43   O5    A    
C115  C118  A    
C32   C86   S    
C25   N8    T    
C11   N11   T    
C17   C30   S    
C31   C83   S    
C27   H29   S    
C2    C26   S    
C18   N2    T    
C14   N13   T    
C9    N9    T    
C8    N1    T    
O25   Zn7   S    
C55   C69   T    
C27   C70   S    
C48   C94   S    
C71   C89   A    
C36   C79   S    
C62   O28   A    
O29   Zn7   S    
C114  H18   S    
C50   C92   S    
C100  C117  A    
C38   H8    S    
C115  H19   S    
C106  C109  A    
C40   C65   S    
C40   O51   A    
C58   O24   A    
C73   C76   A    
C31   C35   S    
C37   C82   S    
C44   C68   T    
C119  H24   S    
C52   O18   A    
O40   Zn14  S    
C41   O52   A    
C34   H4    S    
C33   C67   T    
O46   Zn15  S    
C41   C69   S    
C42   O4    A    
C64   O46   A    
C19   C32   S    
C106  H10   S    
C57   O42   A    
C30   H32   S    
C75   C110  S    
O23   Zn7   S    
C83   C101  A    
C109  H14   S    
C39   C67   S    
C91   C108  A    
C5    C55   S    
C50   O16   A    
C24   C28   S    
C31   H2    S    
C21   N5    T    
C118  H22   S    
C10   C13   S    
C2    C74   S    
O10   Zn13  S    
C105  H9    S    
C50   O31   A    
C21   C35   S    
C79   C96   A    
C82   C85   A    
C22   C36   S    
C26   H28   S    
C30   C36   S    
C81   C86   A    
O39   Zn9   S    
C53   O19   A    
O50   Zn16  S    
C108  H13   S    
C38   C81   S    
C45   O6    A    
O51   Zn2   S    
C4    C66   T    
O45   Zn3   S    
C61   C98   S    
C111  H15   S    
C15   C28   S    
C54   C87   S    
C95   C113  A    
C43   C66   S    
O44   Zn12  S    
C48   O33   A    
C82   C100  A    
C80   C83   A    
C53   O39   A    
O12   Zn4   S    
C113  H17   S    
C13   H23   S    
C30   C84   S    
O4    Zn6   S    
O6    Zn9   S    
O37   Zn11  S    
C51   O32   A    
C13   C78   S    
O20   Zn3   S    
C108  C112  A    
C64   C100  S    
C3    H26   S    
C10   N10   T    
C81   C98   A    
C70   C75   A    
C17   N16   T    
O42   Zn12  S    
C45   C77   S    
C18   C31   S    
C61   O47   A    
C49   C93   S    
C60   C104  S    
C2    C9    S    
C5    C77   T    
C93   C111  A    
C94   C112  A    
C102  C119  A    
O30   Zn6   S    
C51   C95   S    
C116  H20   S    
O36   Zn1   S    
