data_mof_unit_41837.cif
_audit_creation_date              2013-03-05T16:19:05-0500
_audit_creation_method            fapswitch 2.2
_symmetry_space_group_name_H-M    P1
_symmetry_Int_Tables_number       1
_space_group_crystal_system       triclinic
_cell_length_a                    10.641913
_cell_length_b                    9.754287
_cell_length_c                    19.172135
_cell_angle_alpha                 89.330667
_cell_angle_beta                  89.530996
_cell_angle_gamma                 90.202133
_cell_volume                      1989.93401407

loop_
_atom_site_label
_atom_site_type_symbol
_atom_site_description
_atom_site_fract_x
_atom_site_fract_y
_atom_site_fract_z
_atom_type_partial_charge
O1    O     O_R   0.314910 0.616040 0.499990 -0.617767
O2    O     O_R   0.314910 0.383960 0.499990 -0.594518
C1    C     C_R   0.257771 0.500117 0.499625 0.872648
O3    O     O_R   0.500100 0.616080 0.398110 -0.635478
O4    O     O_R   0.500100 0.383920 0.398110 -0.629531
C2    C     C_R   0.499609 0.500838 0.365519 0.844139
Zn1   Zn    Zn3+2 0.500150 0.654960 0.499970 0.945413
Zn2   Zn    Zn3+2 0.500150 0.345040 0.499970 0.974610
O5    O     O_R   0.685320 0.616040 0.499960 -0.642629
O6    O     O_R   0.685320 0.383960 0.499960 -0.635256
O7    O     O_R   0.500130 0.616000 0.601840 -0.603704
O8    O     O_R   0.500130 0.384000 0.601840 -0.574778
C3    C     C_R   0.742146 0.500433 0.499478 0.843058
C4    C     C_R   0.499233 0.499666 0.634120 0.920673
C5    C     C_R   0.514347 0.627240 0.253568 -0.195131
C6    C     C_R   0.461621 0.384729 0.253705 -0.178012
H1    H     H_    0.539038 0.720309 0.280632 0.146830
H2    H     H_    0.444319 0.288515 0.280973 0.145446
C7    C     C_R   0.503642 0.631888 0.181655 -0.147310
C8    C     C_R   0.450005 0.389612 0.181724 -0.141834
H3    H     H_    0.520326 0.728452 0.154629 0.153196
H4    H     H_    0.425830 0.296476 0.154631 0.153231
C9    C     C_R   0.471151 0.513228 0.145345 0.087661
C10   C     C_R   0.493308 0.503710 0.289903 -0.021649
N1    N     N_R   0.410151 0.412992 0.034527 -0.166177
N2    N     N_R   0.515440 0.623845 0.033225 -0.166855
N3    N     N_R   0.409649 0.413902 0.965330 -0.160531
N4    N     N_R   0.515324 0.624537 0.964080 -0.162297
C11   C     C_R   0.463130 0.519200 0.929011 0.304677
C12   C     C_R   0.463805 0.517563 0.069583 0.290050
C13   C     C_R   0.557358 0.599838 0.817542 -0.124942
C14   C     C_R   0.393170 0.425964 0.816226 -0.128761
H5    H     H_    0.618067 0.669793 0.845089 0.158483
H6    H     H_    0.323852 0.362127 0.842714 0.169052
C15   C     C_R   0.568107 0.592588 0.745627 -0.075122
C16   C     C_R   0.403474 0.419781 0.744198 -0.128810
H7    H     H_    0.635497 0.657856 0.718400 0.144113
H8    H     H_    0.339339 0.355434 0.715715 0.203326
C17   C     C_R   0.492464 0.501081 0.709167 -0.007786
C18   C     C_R   0.470444 0.515742 0.853268 0.058230
C19   C     C_3   0.071267 0.427904 0.566007 -0.432204
C20   C     C_3   0.073882 0.425479 0.433616 -0.399107
H9    H     H_    0.111092 0.477898 0.612967 0.174039
H10   H     H_    0.109732 0.479829 0.385979 0.177531
H11   H     H_    0.102841 0.319527 0.567041 0.232673
H12   H     H_    0.111700 0.319216 0.432167 0.174931
C21   C     C_3   0.926554 0.429442 0.567016 -0.162585
C22   C     C_3   0.928897 0.418869 0.434840 -0.159257
H13   H     H_    0.893484 0.320740 0.567306 0.175061
H14   H     H_    0.900708 0.309383 0.441997 0.150771
H15   H     H_    0.102617 0.705478 0.544880 0.234138
H16   H     H_    0.110072 0.707108 0.450979 0.175553
H17   H     H_    0.892479 0.713976 0.538251 0.179319
H18   H     H_    0.899196 0.702904 0.445655 0.173580
C23   C     C_3   0.071972 0.650518 0.497377 -0.368874
C24   C     C_3   0.121302 0.500774 0.499132 0.084775
C25   C     C_3   0.878569 0.501282 0.498926 -0.003849
C26   C     C_3   0.929605 0.651184 0.494661 -0.430058
C27   C     C_3   0.393906 0.080581 0.457423 -0.244276
C28   C     C_3   0.400689 0.919666 0.452479 -0.248780
H19   H     H_    0.395677 0.125725 0.403877 0.143803
H20   H     H_    0.420609 0.891543 0.397365 0.146503
H21   H     H_    0.301729 0.110227 0.479428 0.214308
H22   H     H_    0.307979 0.872294 0.463445 0.198294
H23   H     H_    0.622874 0.116110 0.410123 0.188688
H24   H     H_    0.640783 0.877072 0.418169 0.183739
C29   C     C_3   0.616299 0.082395 0.465702 -0.342596
C30   C     C_3   0.620206 0.919902 0.470553 -0.361756
C31   C     C_3   0.496309 0.077399 0.571050 0.229621
C32   C     C_3   0.484175 0.916030 0.570466 0.225000
N5    N     N_3   0.499750 0.138610 0.498490 -0.094371
N6    N     N_3   0.499750 0.861390 0.498490 -0.102808
H25   H     H_    0.588520 0.101467 0.595541 0.062789
H26   H     H_    0.563421 0.875629 0.602303 0.067338
H27   H     H_    0.700935 0.124809 0.491440 0.168784
H28   H     H_    0.699675 0.887936 0.504324 0.159211
N7    N     N_R   0.402233 0.137633 0.617835 0.248001
O9    O     O_R   0.416236 0.120942 0.684766 -0.380386
O10   O     O_R   0.296115 0.184941 0.595245 -0.396195
N8    N     N_R   0.367250 0.866887 0.604658 0.256479
O11   O     O_R   0.372961 0.813209 0.667009 -0.360759
O12   O     O_R   0.257424 0.901787 0.581236 -0.410535
C33   C     C_2   0.877418 0.494814 0.633013 0.394295
H29   H     H_    0.903176 0.599229 0.645719 0.079433
O13   O     O_2   0.809467 0.429898 0.673089 -0.572370
C34   C     C_2   0.875135 0.465341 0.365605 0.400959
H30   H     H_    0.819545 0.558016 0.361381 0.053281
O14   O     O_2   0.894216 0.398229 0.313238 -0.558088

loop_
_geom_bond_atom_site_label_1
_geom_bond_atom_site_label_2
_geom_bond_distance
_ccdc_geom_bond_type
H24   C30   1.112634 S    
C23   C24   1.553942 S    
N3    C11   1.355140 A    
C31   N7    1.467585 S    
C22   C25   1.567810 S    
C21   H13   1.115952 S    
N7    O9    1.301447 A    
C5    C7    1.384589 A    
C14   C16   1.386408 A    
N4    C11   1.354441 A    
C7    H3    1.083092 S    
O4    C2    1.294031 A    
Zn2   O6    2.005480 S    
O7    C4    1.286159 A    
C34   O14   1.220957 D    
C3    C25   1.451741 S    
C28   N6    1.490076 S    
C13   C18   1.403102 A    
C28   H20   1.113657 S    
C20   H12   1.113796 S    
C31   N5    1.507548 S    
O5    C3    1.281554 A    
C20   C24   1.549562 S    
C4    C17   1.440254 S    
H23   C29   1.113063 S    
C32   H26   1.115449 S    
C13   H5    1.082977 S    
C31   H25   1.116706 S    
C21   C33   1.513736 S    
H15   C23   1.112746 S    
H16   C23   1.114198 S    
C6    C8    1.386853 A    
C22   H14   1.114898 S    
C27   C28   1.575451 S    
C6    C10   1.400769 A    
C19   H9    1.114912 S    
C20   H10   1.114580 S    
O3    Zn1   1.993706 S    
N7    O10   1.297242 A    
C27   H19   1.112296 S    
C32   N8    1.477457 S    
C29   C30   1.587356 S    
C9    C12   1.455405 S    
N8    O12   1.300520 A    
Zn1   N6    2.013467 S    
C7    C9    1.401350 A    
C22   C34   1.514909 S    
C30   N6    1.494092 S    
O1    C1    1.282098 A    
C14   H6    1.083074 S    
Zn1   O7    1.985332 S    
C19   C24   1.548396 S    
C21   C25   1.564633 S    
C1    C24   1.452434 S    
C33   H29   1.084763 S    
C8    C9    1.402445 A    
Zn2   O8    1.994048 S    
C2    C10   1.451776 S    
C19   C21   1.540112 S    
C20   C22   1.544013 S    
O3    C2    1.292471 A    
C5    C10   1.401148 A    
C33   O13   1.220874 D    
C8    H4    1.082997 S    
N2    C12   1.354767 A    
C13   C15   1.385222 A    
N1    N3    1.326631 A    
C34   H30   1.084684 S    
H18   C26   1.112234 S    
N1    C12   1.355125 A    
C5    H1    1.083498 S    
Zn2   N5    2.014100 S    
C15   H7    1.083967 S    
O1    Zn1   2.006212 S    
C27   H21   1.105401 S    
C16   C17   1.395945 A    
O2    Zn2   2.008844 S    
O8    C4    1.293181 A    
N8    O11   1.301391 A    
O6    C3    1.285058 A    
O4    Zn2   1.985009 S    
H17   C26   1.112623 S    
C30   H28   1.112545 S    
N2    N4    1.325614 A    
C28   H22   1.105551 S    
C16   H8    1.081232 S    
O2    C1    1.287752 A    
C25   C26   1.559012 S    
C15   C17   1.397154 A    
C11   C18   1.454385 S    
C29   N5    1.494752 S    
C14   C18   1.402319 A    
C31   C32   1.579050 S    
Zn1   O5    2.008112 S    
C29   H27   1.111444 S    
C6    H2    1.083384 S    
C23   C26   1.516412 S    
C19   H11   1.110390 S    
C32   N6    1.493257 S    
C27   N5    1.493139 S    
