data_mof_unit_65523.cif
_audit_creation_date              2012-12-10T16:38:40-0500
_audit_creation_method            fapswitch 2.2
_symmetry_space_group_name_H-M    P1
_symmetry_Int_Tables_number       1
_space_group_crystal_system       triclinic
_cell_length_a                    19.034812
_cell_length_b                    18.89239
_cell_length_c                    19.04136
_cell_angle_alpha                 109.391949
_cell_angle_beta                  109.509057
_cell_angle_gamma                 109.299536
_cell_volume                      5285.03066644

loop_
_atom_site_label
_atom_site_type_symbol
_atom_type_description
_atom_site_fract_x
_atom_site_fract_y
_atom_site_fract_z
_atom_type_partial_charge
C1    C     C_R   0.384082 0.882504 0.001638 0.862282
C2    C     C_R   0.615906 0.117517 0.998362 0.860732
C3    C     C_2   0.322960 0.817984 0.008269 -0.339850
C4    C     C_2   0.676929 0.182113 0.991696 -0.327672
C5    C     C_R   0.998498 0.117890 0.615636 0.826429
C6    C     C_R   0.001515 0.882116 0.384384 0.864063
C7    C     C_R   0.882890 0.004722 0.387526 0.866280
C8    C     C_R   0.117070 0.004887 0.621929 0.866113
C9    C     C_R   0.001418 0.619333 0.117057 0.847000
C10   C     C_R   0.998582 0.380666 0.882943 0.847453
C11   C     C_R   0.117144 0.614937 0.997243 0.836784
C12   C     C_R   0.882869 0.385051 0.002747 0.837420
C13   C     C_2   0.926323 0.249548 0.743742 -0.161691
C14   C     C_2   0.073680 0.750441 0.256266 -0.159778
C15   C     C_2   0.997197 0.310306 0.819505 -0.287841
C16   C     C_2   0.002807 0.689694 0.180498 -0.286486
C17   C     C_2   0.926289 0.176687 0.682972 -0.157745
C18   C     C_2   0.073724 0.823303 0.317047 -0.151826
C19   C     C_2   0.997090 0.186813 0.677726 -0.300489
C20   C     C_2   0.002920 0.813190 0.322284 -0.297768
C21   C     C_R   0.619309 0.001118 0.117004 0.787927
C22   C     C_R   0.380685 0.998026 0.882106 0.789290
C23   C     C_2   0.833261 0.071667 0.305994 -0.114630
C24   C     C_2   0.166806 0.974282 0.739170 -0.116102
C25   C     C_2   0.816510 0.016031 0.334995 -0.308538
C26   C     C_2   0.183400 0.019445 0.699838 -0.304110
C27   C     C_2   0.762413 0.075881 0.246850 0.027078
C28   C     C_2   0.237830 0.986348 0.814210 0.028848
C29   C     C_2   0.690392 0.001106 0.179044 -0.201719
C30   C     C_2   0.309702 0.989704 0.811583 -0.196121
C31   C     C_2   0.252544 0.675087 0.993675 -0.089880
C32   C     C_2   0.748166 0.325512 0.007564 -0.082077
C33   C     C_2   0.181265 0.676821 0.990673 -0.394975
C34   C     C_2   0.818779 0.323054 0.009227 -0.393514
C35   C     C_2   0.310479 0.737420 0.980694 -0.159117
C36   C     C_2   0.690331 0.263058 0.020523 -0.182631
Cu1   Cu    Cu3+1 0.500010 0.938980 0.938990 1.021686
Cu2   Cu    Cu3+1 0.499990 0.061020 0.061010 0.954026
Cu3   Cu    Cu3+1 0.061010 0.061020 0.499990 0.978318
Cu4   Cu    Cu3+1 0.938990 0.938980 0.500010 0.979051
Cu5   Cu    Cu3+1 0.061030 0.500010 0.061020 1.004224
Cu6   Cu    Cu3+1 0.938970 0.499990 0.938980 1.004882
H1    H     H_    0.898973 0.113568 0.324779 0.167264
H2    H     H_    0.101154 0.927357 0.715588 0.167149
H3    H     H_    0.054445 0.304224 0.839350 0.167715
H4    H     H_    0.945563 0.695783 0.160654 0.169890
H5    H     H_    0.866368 0.115813 0.639077 0.167138
H6    H     H_    0.133654 0.884166 0.360958 0.167900
H7    H     H_    0.054284 0.250156 0.714875 0.168783
H8    H     H_    0.945715 0.749853 0.285117 0.168305
H9    H     H_    0.751219 0.977262 0.319766 0.154382
H10   H     H_    0.248619 0.069594 0.726149 0.157302
H11   H     H_    0.164057 0.720426 0.973435 0.164993
H12   H     H_    0.835615 0.278793 0.025439 0.164840
H13   H     H_    0.347492 0.718647 0.953318 0.194006
H14   H     H_    0.654181 0.282156 0.049015 0.186654
H15   H     H_    0.292592 0.839866 0.043212 0.155240
H16   H     H_    0.706521 0.160090 0.955837 0.162082
H17   H     H_    0.866389 0.250485 0.727964 0.166830
H18   H     H_    0.133610 0.749494 0.272044 0.167208
O1    O     O_R   0.410990 0.859440 0.948490 -0.571212
O2    O     O_R   0.589010 0.140560 0.051510 -0.586558
O3    O     O_R   0.948450 0.589020 0.037490 -0.571844
O4    O     O_R   0.051550 0.410980 0.962510 -0.573121
O5    O     O_R   0.140550 0.589040 0.051520 -0.574342
O6    O     O_R   0.859450 0.410960 0.948480 -0.573675
O7    O     O_R   0.037480 0.589020 0.948460 -0.580465
O8    O     O_R   0.962520 0.410980 0.051540 -0.580912
O9    O     O_R   0.410980 0.962500 0.051530 -0.592932
O10   O     O_R   0.589020 0.037500 0.948470 -0.577212
O11   O     O_R   0.589050 0.948480 0.037510 -0.564490
O12   O     O_R   0.410950 0.051520 0.962490 -0.596327
O13   O     O_R   0.589030 0.051540 0.140550 -0.595773
O14   O     O_R   0.410970 0.948460 0.859450 -0.562374
O15   O     O_R   0.051510 0.140560 0.589010 -0.587827
O16   O     O_R   0.948490 0.859440 0.410990 -0.576142
O17   O     O_R   0.948470 0.037500 0.589020 -0.588133
O18   O     O_R   0.051530 0.962500 0.410980 -0.577422
O19   O     O_R   0.962480 0.051520 0.410960 -0.586010
O20   O     O_R   0.037520 0.948480 0.589040 -0.586072
O21   O     O_R   0.859440 0.948460 0.410980 -0.583810
O22   O     O_R   0.140560 0.051540 0.589020 -0.584607
O23   O     O_R   0.051520 0.589040 0.140540 -0.583070
O24   O     O_R   0.948480 0.410960 0.859460 -0.583580
C37   C     C_3   0.772094 0.163818 0.260945 -0.359955
C38   C     C_3   0.860872 0.241942 0.331987 -0.380779
C39   C     C_3   0.863321 0.326575 0.342521 -0.798035
H19   H     H_    0.849334 0.328081 0.281683 0.259252
H20   H     H_    0.815437 0.333898 0.360787 0.254486
H21   H     H_    0.928155 0.381808 0.393844 0.248602
H22   H     H_    0.876314 0.242949 0.394137 0.230244
H23   H     H_    0.910566 0.237608 0.315375 0.223698
H24   H     H_    0.758891 0.164911 0.199921 0.195588
H25   H     H_    0.723567 0.171684 0.277769 0.222606
C40   C     C_3   0.228362 0.991798 0.892124 -0.359543
C41   C     C_3   0.139930 0.975668 0.881676 -0.373481
C42   C     C_3   0.137748 0.985116 0.963599 -0.815391
H26   H     H_    0.151215 0.937825 0.979481 0.251677
H27   H     H_    0.186110 0.051611 0.018077 0.255959
H28   H     H_    0.073151 0.972735 0.954137 0.248517
H29   H     H_    0.125018 0.022865 0.866850 0.230609
H30   H     H_    0.089754 0.909080 0.828373 0.222919
H31   H     H_    0.240972 0.943372 0.906548 0.192959
H32   H     H_    0.277383 0.057399 0.947942 0.223977
C43   C     C_2   0.685757 0.915055 0.152203 0.862200
O25   O     O_2   0.618639 0.851044 0.126024 -0.583302
O26   O     O_R   0.756484 0.906817 0.153388 -0.747044
H33   H     H_    0.744803 0.845170 0.133112 0.339929
C44   C     C_2   0.314091 0.966778 0.730653 0.858801
O27   O     O_2   0.380893 0.007887 0.733504 -0.590256
O28   O     O_R   0.243511 0.896392 0.652482 -0.748153
H34   H     H_    0.254968 0.887400 0.602775 0.333369
C45   C     C_2   0.271901 0.607649 0.002297 0.929179
O29   O     O_2   0.261098 0.549447 0.939680 -0.550782
O30   O     O_R   0.304671 0.610884 0.081493 -0.703449
H35   H     H_    0.314396 0.663778 0.129539 0.302647
C46   C     C_2   0.729621 0.393883 0.000581 0.920582
O31   O     O_2   0.740982 0.451643 0.063959 -0.553580
O32   O     O_R   0.696974 0.392035 0.922080 -0.704076
H36   H     H_    0.686562 0.339311 0.873254 0.304935

loop_
_geom_bond_atom_site_label_1
_geom_bond_atom_site_label_2
_ccdc_geom_bond_type
C39   H19   S    
C4    C36   D    
C41   H30   S    
C27   C29   D    
C8    C26   S    
Cu5   Cu6   S    
C14   C18   S    
O28   H34   S    
C32   C46   S    
Cu1   O14   S    
C42   H26   S    
C37   C38   S    
C12   O8    A    
C21   O11   A    
C28   C40   S    
C8    O22   A    
C32   C36   S    
C9    C16   S    
C24   C26   D    
C38   H22   S    
C46   O32   S    
C6    O18   A    
O30   H35   S    
Cu5   O23   S    
C21   O13   A    
C23   H1    S    
C10   O24   A    
C27   C37   S    
C20   H8    S    
C44   O28   S    
C37   H24   S    
C40   C41   S    
C40   H31   S    
O26   H33   S    
Cu4   O20   S    
Cu3   O15   S    
Cu2   O9    S    
Cu1   O10   S    
C29   C43   S    
C2    O10   A    
C22   O12   A    
C42   H27   S    
C11   O7    A    
Cu5   O8    S    
C33   H11   S    
Cu2   O12   S    
C30   C44   S    
C35   H13   S    
Cu3   O18   S    
C17   H5    S    
C11   C33   S    
Cu6   O24   S    
C44   O27   D    
C16   H4    S    
Cu3   Cu4   S    
C38   C39   S    
Cu5   O5    S    
C21   C29   S    
C1    O9    A    
Cu4   O16   S    
C1    O1    A    
C1    C3    S    
Cu3   O19   S    
C5    O15   A    
C2    C4    S    
C25   H9    S    
Cu1   Cu2   S    
C36   H14   S    
C26   H10   S    
C43   O26   S    
C37   H25   S    
C19   H7    S    
C3    C35   D    
C8    O20   A    
C41   C42   S    
C31   C33   D    
C9    O23   A    
C13   H17   S    
C3    H15   S    
C7    O21   A    
C34   H12   S    
C23   C27   S    
Cu1   O11   S    
Cu6   O7    S    
C24   H2    S    
C14   C16   D    
C22   O14   A    
C12   C34   S    
C42   H28   S    
C6    C20   S    
C40   H32   S    
C7    O19   A    
C45   O29   D    
C22   C30   S    
C9    O3    A    
Cu4   O21   S    
C10   O4    A    
C24   C28   S    
Cu3   O22   S    
C18   H6    S    
Cu1   O1    S    
O32   H36   S    
C6    O16   A    
C5    C19   S    
C14   H18   S    
C43   O25   D    
C7    C25   S    
C13   C17   S    
C10   C15   S    
C13   C15   D    
C38   H23   S    
C46   O31   D    
C12   O6    A    
C31   C35   S    
C28   C30   D    
C17   C19   D    
C18   C20   D    
C23   C25   D    
C2    O2    A    
C39   H21   S    
C4    H16   S    
Cu6   O6    S    
C39   H20   S    
C15   H3    S    
Cu4   O17   S    
Cu5   O4    S    
Cu2   O2    S    
C41   H29   S    
C5    O17   A    
Cu6   O3    S    
C31   C45   S    
C11   O5    A    
C32   C34   D    
C45   O30   S    
Cu2   O13   S    
