data_mof_unit_31132.cif
_audit_creation_date              2012-12-10T16:52:10-0500
_audit_creation_method            fapswitch 2.2
_symmetry_space_group_name_H-M    P1
_symmetry_Int_Tables_number       1
_space_group_crystal_system       triclinic
_cell_length_a                    7.768326
_cell_length_b                    8.549428
_cell_length_c                    14.875121
_cell_angle_alpha                 90.841089
_cell_angle_beta                  86.053792
_cell_angle_gamma                 93.576879
_cell_volume                      983.611627909

loop_
_atom_site_label
_atom_site_type_symbol
_atom_type_description
_atom_site_fract_x
_atom_site_fract_y
_atom_site_fract_z
_atom_type_partial_charge
C1    C     C_R   0.545725 0.794686 0.497640 0.960128
C2    C     C_R   0.608484 0.609245 0.810356 -0.237648
C3    C     C_R   0.492711 0.505048 0.232144 -0.062832
C4    C     C_R   0.507288 0.494953 0.767856 -0.062832
C5    C     C_R   0.593322 0.620372 0.184467 -0.245405
C6    C     C_R   0.406678 0.379628 0.815533 -0.245401
C7    C     C_R   0.594531 0.622741 0.091056 0.091205
C8    C     C_R   0.405465 0.377263 0.908944 0.091203
C9    C     C_R   0.497391 0.502505 0.046847 0.005119
C10   C     C_R   0.502603 0.497501 0.953153 0.005118
C11   C     C_R   0.395187 0.386883 0.096577 0.110078
C12   C     C_R   0.454275 0.205314 0.502360 0.960129
C13   C     C_R   0.604806 0.613123 0.903423 0.110080
C14   C     C_R   0.692697 0.740005 0.040895 0.208393
C15   C     C_R   0.307298 0.260000 0.959105 0.208394
C16   C     C_3   0.680977 0.997075 0.108274 -0.803744
C17   C     C_3   0.319025 0.002924 0.891737 -0.803753
C18   C     C_R   0.698907 0.732602 0.947052 -0.298008
C19   C     C_R   0.301086 0.267404 0.052948 -0.298005
C20   C     C_2   0.569876 0.958180 0.496252 -0.381739
C21   C     C_2   0.430124 0.041820 0.503747 -0.381738
C22   C     C_R   0.502308 0.498756 0.672802 0.880228
C23   C     C_R   0.497692 0.501244 0.327197 0.880228
C24   C     C_R   0.391512 0.390759 0.189644 -0.237647
H1    H     H_    0.315124 0.302235 0.229118 0.135384
H2    H     H_    0.986225 0.617221 0.567920 0.191642
H3    H     H_    0.900186 0.901327 0.050006 0.223450
H4    H     H_    0.639416 0.051897 0.046642 0.248387
H5    H     H_    0.758609 0.086244 0.145805 0.245047
H6    H     H_    0.565045 0.958425 0.152157 0.249453
H7    H     H_    0.099810 0.098679 0.949991 0.223449
H8    H     H_    0.360553 0.948096 0.953374 0.248386
H9    H     H_    0.434981 0.041570 0.847870 0.249455
H10   H     H_    0.241401 0.913767 0.854194 0.245055
H11   H     H_    0.684870 0.697770 0.770882 0.135383
H12   H     H_    0.669978 0.707214 0.220851 0.174540
H13   H     H_    0.330026 0.292784 0.779149 0.174541
H14   H     H_    0.774792 0.822179 0.908276 0.151386
H15   H     H_    0.225202 0.177827 0.091724 0.151389
H16   H     H_    0.701900 0.009143 0.489073 0.181266
H17   H     H_    0.298100 0.990857 0.510927 0.181266
H18   H     H_    0.013775 0.382779 0.432080 0.191643
N1    N     N_2   0.950330 0.457950 0.475660 -0.172563
N2    N     N_2   0.049670 0.542050 0.524340 -0.172563
N3    N     N_2   0.784523 0.865880 0.084139 -0.313863
N4    N     N_2   0.215479 0.134122 0.915861 -0.313867
O1    O     O_R   0.389250 0.738570 0.505970 -0.612183
O2    O     O_R   0.610750 0.261430 0.494030 -0.612183
O3    O     O_R   0.678390 0.711620 0.490370 -0.633210
O4    O     O_R   0.321610 0.288380 0.509630 -0.633211
O5    O     O_R   0.355420 0.513510 0.639950 -0.615162
O6    O     O_R   0.644580 0.486490 0.360050 -0.615162
O7    O     O_R   0.644560 0.486560 0.624350 -0.624395
O8    O     O_R   0.355440 0.513440 0.375650 -0.624395
Zn1   Zn    Zn3+2 0.306940 0.517990 0.510420 0.945041
Zn2   Zn    Zn3+2 0.693060 0.482010 0.489580 0.945041

loop_
_geom_bond_atom_site_label_1
_geom_bond_atom_site_label_2
_ccdc_geom_bond_type
C2    H11   S    
C16   H4    S    
C2    C4    A    
N1    N2    D    
C5    C7    A    
C14   N3    S    
C22   O7    A    
O3    Zn2   S    
C4    C22   S    
C9    C10   A    
C14   C18   A    
C12   O4    A    
O4    Zn1   S    
C12   O2    A    
N1    Zn2   S    
H3    N3    S    
C18   H14   S    
C6    H13   S    
H2    N2    S    
C24   H1    S    
C15   C19   A    
C9    C11   A    
N2    Zn1   S    
C11   C19   A    
C23   O6    A    
C17   H9    S    
C13   C18   A    
C21   H17   S    
C19   H15   S    
O1    Zn1   S    
C8    C15   A    
O5    Zn1   S    
C20   H16   S    
C8    C10   A    
H18   N1    S    
C16   N3    S    
C16   H6    S    
C5    H12   S    
C7    C9    A    
C11   C24   A    
C17   N4    S    
C16   H5    S    
C23   O8    A    
C4    C6    A    
C17   H10   S    
O7    Zn2   S    
C17   H8    S    
O2    Zn2   S    
C2    C13   A    
O8    Zn1   S    
C1    O1    A    
C1    C20   S    
C6    C8    A    
C15   N4    S    
C20   C21   D    
C3    C23   S    
C12   C21   S    
C10   C13   A    
C7    C14   A    
O6    Zn2   S    
C3    C24   A    
C22   O5    A    
C3    C5    A    
H7    N4    S    
C1    O3    A    
