data_mof_unit_17806.cif
_audit_creation_date              2012-12-11T15:18:13-0500
_audit_creation_method            fapswitch 2.2
_symmetry_space_group_name_H-M    P1
_symmetry_Int_Tables_number       1
_space_group_crystal_system       triclinic
_cell_length_a                    15.637694
_cell_length_b                    15.637647
_cell_length_c                    34.450797
_cell_angle_alpha                 90.035868
_cell_angle_beta                  90.036991
_cell_angle_gamma                 119.432889
_cell_volume                      7337.1471857

loop_
_atom_site_label
_atom_site_type_symbol
_atom_type_description
_atom_site_fract_x
_atom_site_fract_y
_atom_site_fract_z
_atom_type_partial_charge
C1    C     C_R   0.577268 0.442495 0.554652 0.553648
C2    C     C_R   0.511067 0.958310 0.213862 0.382300
C3    C     C_2   0.304171 0.933757 0.103850 0.300382
C4    C     C_2   0.626230 0.697598 0.104167 0.298232
C5    C     C_2   0.043749 0.358213 0.094458 0.296081
C6    C     C_2   0.959815 0.632370 0.577211 0.240292
C7    C     C_2   0.368492 0.328749 0.577657 0.242113
C8    C     C_2   0.679915 0.045155 0.577421 0.239758
C9    C     C_2   0.632370 0.959788 0.077213 0.240306
C10   C     C_2   0.328742 0.368485 0.077654 0.242114
C11   C     C_2   0.045128 0.679883 0.077408 0.239720
C12   C     C_2   0.978718 0.670959 0.661592 0.298177
C13   C     C_R   0.449250 0.490281 0.213916 0.387465
C14   C     C_2   0.329923 0.311932 0.661756 0.302577
C15   C     C_2   0.663214 0.977562 0.657825 0.307127
C16   C     C_2   0.670965 0.978743 0.161593 0.298206
C17   C     C_2   0.311953 0.329927 0.161756 0.302526
C18   C     C_2   0.977479 0.663204 0.157797 0.307026
C19   C     C_2   0.003546 0.352877 0.828913 0.255127
C20   C     C_2   0.647847 0.650893 0.829136 0.247319
C21   C     C_2   0.250934 0.824146 0.814243 0.259769
C22   C     C_2   0.352878 0.003572 0.328912 0.255123
C23   C     C_2   0.650927 0.647838 0.329132 0.247303
C24   C     C_R   0.952637 0.491696 0.204434 0.379190
C25   C     C_2   0.824214 0.250982 0.314240 0.259758
C26   C     C_R   0.018683 0.442101 0.850049 0.009001
C27   C     C_R   0.558935 0.577545 0.850141 0.006651
C28   C     C_R   0.336233 0.830934 0.835897 0.012425
C29   C     C_R   0.442106 0.018710 0.350047 0.008998
C30   C     C_R   0.577571 0.558928 0.350136 0.006645
C31   C     C_R   0.830947 0.336255 0.335895 0.012430
C32   C     C_R   0.050470 0.451962 0.888608 -0.143966
C33   C     C_R   0.557212 0.133421 0.554222 0.559288
C34   C     C_R   0.548771 0.598908 0.888740 -0.152768
C35   C     C_R   0.327642 0.819326 0.876181 -0.147972
C36   C     C_R   0.451963 0.050480 0.388607 -0.143965
C37   C     C_R   0.598919 0.548770 0.388738 -0.152775
C38   C     C_R   0.819342 0.327658 0.376179 -0.147975
C39   C     C_R   0.066088 0.613656 0.892423 -0.143277
C40   C     C_R   0.387405 0.454899 0.892149 -0.126322
C41   C     C_R   0.485926 0.826971 0.879811 -0.130732
C42   C     C_R   0.613666 0.066116 0.392417 -0.143268
C43   C     C_R   0.454913 0.387400 0.392144 -0.126323
C44   C     C_R   0.865620 0.422920 0.554587 0.568962
C45   C     C_R   0.826904 0.485904 0.379811 -0.130737
C46   C     C_R   0.032472 0.604185 0.854417 -0.139095
C47   C     C_R   0.397304 0.431228 0.854137 -0.129823
C48   C     C_R   0.496501 0.840624 0.839751 -0.129029
C49   C     C_R   0.604199 0.032518 0.354409 -0.139093
C50   C     C_R   0.431257 0.397294 0.354128 -0.129822
C51   C     C_R   0.840550 0.496484 0.339750 -0.129028
C52   C     C_R   0.010750 0.520178 0.832634 0.051372
C53   C     C_R   0.481302 0.492744 0.832573 0.048501
C54   C     C_R   0.424075 0.846556 0.817760 0.053822
C55   C     C_R   0.442497 0.577264 0.054649 0.553667
C56   C     C_R   0.520189 0.010796 0.332628 0.051371
C57   C     C_R   0.492780 0.481291 0.332565 0.048502
C58   C     C_R   0.846525 0.424084 0.317759 0.053837
C59   C     C_R   0.078893 0.539184 0.909278 0.018090
C60   C     C_R   0.461593 0.540767 0.909245 0.015841
C61   C     C_R   0.403145 0.820236 0.898486 0.010845
C62   C     C_R   0.539187 0.078903 0.409276 0.018098
C63   C     C_R   0.540774 0.461592 0.409243 0.015839
C64   C     C_R   0.820217 0.403142 0.398485 0.010835
C65   C     C_R   0.577993 0.442167 0.445429 0.540919
C66   C     C_R   0.133431 0.557215 0.054226 0.559247
C67   C     C_R   0.558053 0.135571 0.445418 0.545446
C68   C     C_R   0.808300 0.391344 0.440846 0.563440
C69   C     C_R   0.442166 0.577993 0.945429 0.540926
C70   C     C_R   0.135570 0.558053 0.945418 0.545426
C71   C     C_R   0.391346 0.808304 0.940846 0.563429
C72   C     C_R   0.922348 0.459631 0.591483 -0.009832
C73   C     C_R   0.540916 0.462765 0.591647 -0.010195
C74   C     C_R   0.531514 0.065817 0.588330 -0.013118
C75   C     C_R   0.459640 0.922362 0.091478 -0.009832
C76   C     C_R   0.462778 0.540899 0.091640 -0.010194
C77   C     C_R   0.422922 0.865623 0.054586 0.568974
C78   C     C_R   0.065847 0.531525 0.088340 -0.013108
C79   C     C_R   0.931119 0.393160 0.616915 -0.019476
C80   C     C_R   0.607820 0.536812 0.617101 -0.019765
C81   C     C_R   0.444523 0.039409 0.609818 -0.014318
C82   C     C_R   0.393179 0.931162 0.116906 -0.019469
C83   C     C_R   0.536851 0.607787 0.117088 -0.019749
C84   C     C_R   0.039506 0.444576 0.109848 -0.014365
C85   C     C_R   0.939328 0.411686 0.656610 -0.157222
C86   C     C_R   0.589483 0.527083 0.656758 -0.156120
C87   C     C_R   0.436309 0.004908 0.647540 -0.152172
C88   C     C_R   0.958252 0.511057 0.713868 0.382295
C89   C     C_R   0.411705 0.939387 0.156601 -0.157234
C90   C     C_R   0.527144 0.589454 0.156745 -0.156124
C91   C     C_R   0.004997 0.436380 0.147567 -0.152169
C92   C     C_R   0.949017 0.498976 0.671548 0.015143
C93   C     C_R   0.502116 0.451347 0.671677 0.014598
C94   C     C_R   0.508090 0.987873 0.663999 0.013224
C95   C     C_R   0.498989 0.949068 0.171542 0.015147
C96   C     C_R   0.451402 0.502099 0.171668 0.014602
C97   C     C_R   0.987896 0.508136 0.164007 0.013264
C98   C     C_R   0.958254 0.573952 0.646091 0.006866
C99   C     C_R   0.490291 0.449185 0.713926 0.387458
C100  C     C_R   0.426994 0.386640 0.646282 0.010434
C101  C     C_R   0.589216 0.000998 0.641438 0.009839
C102  C     C_R   0.573960 0.958280 0.146088 0.006882
C103  C     C_R   0.386668 0.426985 0.146277 0.010418
C104  C     C_R   0.000976 0.589225 0.141431 0.009824
C105  C     C_R   0.946722 0.554762 0.605533 -0.049765
C106  C     C_R   0.446024 0.393423 0.605764 -0.045069
C107  C     C_R   0.599764 0.037911 0.602957 -0.046767
C108  C     C_R   0.554768 0.946727 0.105531 -0.049754
C109  C     C_R   0.393433 0.446012 0.105758 -0.045089
C110  C     C_R   0.491638 0.952623 0.704427 0.379124
C111  C     C_R   0.037900 0.599756 0.102953 -0.046769
C112  C     C_R   0.987697 0.519846 0.791421 0.372241
C113  C     C_R   0.481837 0.470536 0.791387 0.376053
C114  C     C_R   0.447353 0.882292 0.777729 0.382697
C115  C     C_R   0.519855 0.987752 0.291414 0.372248
C116  C     C_R   0.470586 0.481827 0.291378 0.376057
C117  C     C_R   0.882280 0.447386 0.277731 0.382709
C118  C     C_2   0.933698 0.304139 0.603865 0.300356
C119  C     C_2   0.697655 0.626182 0.604188 0.298232
C120  C     C_2   0.358132 0.043557 0.594401 0.296061
Cr1   Cr    Cr6+3 0.522350 0.263930 0.500020 1.075958
Cr2   Cr    Cr6+3 0.736070 0.258420 0.500020 1.067149
Cr3   Cr    Cr6+3 0.741580 0.477650 0.500020 1.076956
Cr4   Cr    Cr6+3 0.263930 0.522350 0.000020 1.075934
Cr5   Cr    Cr6+3 0.258420 0.736070 0.000020 1.067207
Cr6   Cr    Cr6+3 0.477650 0.741580 0.000020 1.076955
H1    H     H_    0.941064 0.358314 0.676261 0.150305
H2    H     H_    0.681397 0.086784 0.407880 0.127701
H3    H     H_    0.408713 0.319454 0.407382 0.141450
H4    H     H_    0.824277 0.543643 0.396235 0.143241
H5    H     H_    0.026509 0.664173 0.841460 0.134741
H6    H     H_    0.337538 0.366378 0.840981 0.146292
H7    H     H_    0.563543 0.851338 0.826169 0.154106
H8    H     H_    0.664191 0.026569 0.341450 0.134747
H9    H     H_    0.366413 0.337527 0.340970 0.146296
H10   H     H_    0.851231 0.563516 0.326168 0.154112
H11   H     H_    0.907615 0.241157 0.623021 0.159729
H12   H     H_    0.643145 0.581205 0.676400 0.156413
H13   H     H_    0.761764 0.659462 0.622933 0.159207
H14   H     H_    0.316817 0.065611 0.613285 0.153946
H15   H     H_    0.241190 0.907697 0.123005 0.159692
H16   H     H_    0.659551 0.761701 0.122914 0.159195
H17   H     H_    0.065930 0.317016 0.113352 0.154012
H18   H     H_    0.988489 0.632615 0.548498 0.131230
H19   H     H_    0.366201 0.356764 0.549078 0.123034
H20   H     H_    0.665631 0.027650 0.546785 0.127361
H21   H     H_    0.632630 0.988462 0.048498 0.131221
H22   H     H_    0.356742 0.366196 0.049071 0.123050
H23   H     H_    0.370985 0.988305 0.664156 0.146538
H24   H     H_    0.027542 0.665553 0.046779 0.127301
H25   H     H_    0.060455 0.394227 0.901509 0.128252
H26   H     H_    0.606139 0.665690 0.901799 0.124512
H27   H     H_    0.261235 0.808921 0.890253 0.113055
H28   H     H_    0.394224 0.060451 0.401511 0.128258
H29   H     H_    0.665695 0.606140 0.401800 0.124511
H30   H     H_    0.808974 0.261262 0.390251 0.113061
H31   H     H_    0.030474 0.737980 0.646921 0.159707
H32   H     H_    0.263001 0.296846 0.646693 0.157624
H33   H     H_    0.690282 0.937915 0.640514 0.155394
H34   H     H_    0.358339 0.941142 0.176249 0.150278
H35   H     H_    0.737986 0.030479 0.146916 0.159704
H36   H     H_    0.296848 0.262997 0.146694 0.157635
H37   H     H_    0.937914 0.690310 0.140456 0.155385
H38   H     H_    0.986032 0.286741 0.845118 0.111308
H39   H     H_    0.713597 0.699171 0.845449 0.108515
H40   H     H_    0.194273 0.831239 0.829714 0.100289
H41   H     H_    0.286744 0.986055 0.345118 0.111312
H42   H     H_    0.699180 0.713598 0.345444 0.108525
H43   H     H_    0.831316 0.194327 0.329712 0.100294
H44   H     H_    0.581286 0.643105 0.176384 0.156394
H45   H     H_    0.988441 0.371087 0.164196 0.146560
H46   H     H_    0.086754 0.681386 0.907886 0.127700
H47   H     H_    0.319459 0.408701 0.907388 0.141449
H48   H     H_    0.543682 0.824373 0.896235 0.143239
N1    N     N_R   0.907867 0.442545 0.775455 -0.160441
N2    N     N_R   0.438038 0.893768 0.237267 -0.181763
N3    N     N_R   0.456476 0.563348 0.237354 -0.179261
N4    N     N_R   0.993115 0.456989 0.230481 -0.189318
N5    N     N_R   0.036804 0.589485 0.729975 -0.153798
N6    N     N_R   0.412102 0.451146 0.729930 -0.168873
N7    N     N_R   0.504163 0.876252 0.715745 -0.170520
N8    N     N_R   0.589492 0.036865 0.229968 -0.153807
N9    N     N_R   0.451205 0.412090 0.229923 -0.168865
N10   N     N_R   0.876179 0.504096 0.215733 -0.170442
N11   N     N_R   0.051021 0.593948 0.768156 -0.163049
N12   N     N_R   0.559002 0.466401 0.775522 -0.158304
N13   N     N_R   0.407769 0.461206 0.768085 -0.189256
N14   N     N_R   0.483223 0.842189 0.751947 -0.181987
N15   N     N_R   0.593954 0.051082 0.268149 -0.163079
N16   N     N_R   0.461259 0.407758 0.268078 -0.189247
N17   N     N_R   0.842103 0.483145 0.251933 -0.181920
N18   N     N_R   0.435555 0.958853 0.766468 -0.168678
N19   N     N_R   0.442558 0.907919 0.275449 -0.160438
N20   N     N_R   0.466459 0.558995 0.275511 -0.158318
N21   N     N_R   0.958925 0.435708 0.266488 -0.168730
N22   N     N_R   0.893715 0.438025 0.737273 -0.181761
N23   N     N_R   0.563355 0.456412 0.737365 -0.179266
N24   N     N_R   0.456822 0.993029 0.730459 -0.189298
O1    O     O_R   0.498680 0.159540 0.541860 -0.442402
O2    O     O_R   0.358060 0.532760 0.040030 -0.506269
O3    O     O_R   0.174700 0.641940 0.040030 -0.514034
O4    O     O_R   0.467240 0.825300 0.040030 -0.505206
O5    O     O_R   0.498590 0.161190 0.456930 -0.505845
O6    O     O_R   0.838810 0.337400 0.456930 -0.496990
O7    O     O_R   0.662600 0.501410 0.456930 -0.524449
O8    O     O_R   0.161190 0.498590 0.956930 -0.505861
O9    O     O_R   0.337400 0.838810 0.956930 -0.496982
O10   O     O_R   0.501410 0.662600 0.956930 -0.524436
O11   O     O_R   0.532680 0.359580 0.461300 -0.511278
O12   O     O_R   0.840460 0.339140 0.541860 -0.440548
O13   O     O_R   0.640420 0.173100 0.461300 -0.533767
O14   O     O_R   0.826900 0.467320 0.461300 -0.499060
O15   O     O_R   0.359580 0.532680 0.961300 -0.511282
O16   O     O_R   0.173100 0.640420 0.961300 -0.533760
O17   O     O_R   0.467320 0.826900 0.961300 -0.499074
O18   O     O_3   0.666667 0.333333 0.499990 -0.291386
O19   O     O_3   0.333333 0.666667 0.999990 -0.291388
O20   O     O_2   0.971289 0.302685 0.572999 -0.439735
O21   O     O_2   0.698739 0.667379 0.573948 -0.443611
O22   O     O_2   0.327971 0.015409 0.561560 -0.448788
O23   O     O_R   0.660860 0.501320 0.541860 -0.445192
O24   O     O_2   0.302725 0.971334 0.072979 -0.439740
O25   O     O_2   0.667382 0.698665 0.073918 -0.443667
O26   O     O_2   0.015542 0.327940 0.061633 -0.448700
O27   O     O_2   0.935383 0.693593 0.584767 -0.492739
O28   O     O_2   0.309948 0.243291 0.585228 -0.491977
O29   O     O_2   0.762602 0.073108 0.589832 -0.494757
O30   O     O_2   0.693570 0.935329 0.084774 -0.492751
O31   O     O_2   0.243288 0.309942 0.085230 -0.491997
O32   O     O_2   0.073171 0.762601 0.089803 -0.494738
O33   O     O_2   0.936263 0.676778 0.690354 -0.458939
O34   O     O_R   0.159540 0.498680 0.041860 -0.442441
O35   O     O_2   0.323928 0.264826 0.690875 -0.457110
O36   O     O_2   0.696847 0.005088 0.690315 -0.447193
O37   O     O_2   0.676781 0.936307 0.190362 -0.458904
O38   O     O_2   0.264869 0.323952 0.190878 -0.457152
O39   O     O_2   0.004870 0.696783 0.190302 -0.447202
O40   O     O_2   0.015448 0.353045 0.793904 -0.448972
O41   O     O_2   0.647811 0.662305 0.794099 -0.447354
O42   O     O_2   0.240494 0.806641 0.779494 -0.439461
O43   O     O_2   0.353040 0.015476 0.293903 -0.448980
O44   O     O_2   0.662369 0.647787 0.294098 -0.447353
O45   O     O_R   0.339140 0.840460 0.041860 -0.440521
O46   O     O_2   0.806746 0.240557 0.279488 -0.439479
O47   O     O_R   0.501320 0.660860 0.041860 -0.445175
O48   O     O_R   0.532760 0.358060 0.540030 -0.506252
O49   O     O_R   0.641940 0.174700 0.540030 -0.514116
O50   O     O_R   0.825300 0.467240 0.540030 -0.505199

loop_
_geom_bond_atom_site_label_1
_geom_bond_atom_site_label_2
_ccdc_geom_bond_type
C25   C31   S    
C40   C47   A    
C34   C60   A    
C49   H8    S    
C63   C65   S    
C26   C32   A    
C40   C60   A    
C22   C29   S    
C66   O34   A    
C110  N24   A    
C88   N22   A    
C3    H15   S    
C75   C82   A    
C38   H30   S    
Cr3   O50   S    
C41   H48   S    
C77   O4    A    
C6    C105  S    
C36   H28   S    
Cr6   O4    S    
C9    C108  S    
C48   C54   A    
C20   H39   S    
Cr3   O23   S    
C29   C36   A    
Cr5   O3    S    
C82   C89   A    
C62   C67   S    
C14   H32   S    
C64   C68   S    
C31   C58   A    
C2    C95   S    
C86   C93   A    
C72   C79   A    
C1    O48   A    
C4    H16   S    
C40   H47   S    
C13   N3    A    
C5    H17   S    
C65   O7    A    
C52   C112  S    
C113  N13   A    
C6    O27   D    
C46   C52   A    
C114  N14   A    
Cr3   O7    S    
C10   C109  S    
C1    O23   A    
Cr5   O16   S    
Cr2   O6    S    
C19   C26   S    
C37   H29   S    
Cr1   O1    S    
C80   C86   A    
C117  N17   A    
C2    N2    A    
C74   C107  A    
C66   O3    A    
Cr5   O19   S    
C8    C107  S    
C85   C92   A    
C44   C72   S    
C88   C92   S    
C110  N7    A    
Cr6   O10   S    
C76   C109  A    
C13   N9    A    
C118  O20   D    
Cr2   O12   S    
N12   N23   A    
C102  C108  A    
C78   C111  A    
C120  H14   S    
C84   C91   A    
C41   C61   A    
C12   H31   S    
C118  H11   S    
C42   C62   A    
C65   O11   A    
C56   C115  S    
C95   C102  A    
C42   H2    S    
C47   C53   A    
C116  N20   A    
C87   C94   A    
C61   C71   S    
C71   O9    A    
C115  N19   A    
C80   C119  S    
C45   H4    S    
Cr3   O18   S    
Cr6   O47   S    
C119  O21   D    
C90   H44   S    
C36   C62   A    
C76   C83   A    
C37   C63   A    
C8    O29   D    
C53   C113  S    
C73   C80   A    
C57   C116  S    
C38   C64   A    
Cr4   O15   S    
C27   C34   A    
C66   C78   S    
N10   N17   A    
C114  N18   A    
N3    N20   A    
C13   C96   S    
C43   C63   A    
C24   C97   S    
C70   O16   A    
C23   C30   S    
C2    N8    A    
C48   H7    S    
C43   H3    S    
C69   O15   A    
Cr1   O5    S    
C17   H36   S    
C19   O40   D    
C46   H5    S    
C5    C84   S    
C28   C54   A    
C79   C118  S    
C59   C70   S    
C16   O37   D    
C11   C111  S    
Cr5   O9    S    
C58   C117  S    
C15   C101  S    
C21   H40   S    
C14   O35   D    
C30   C37   A    
C30   C57   A    
Cr5   O45   S    
C89   C95   A    
C86   H12   S    
C92   C98   A    
Cr1   O18   S    
C15   H33   S    
C39   H46   S    
C117  N21   A    
N6    N13   A    
C26   C52   A    
Cr6   O19   S    
C75   C77   S    
C51   H10   S    
C11   H24   S    
C55   O2    A    
C81   C120  S    
C120  O22   D    
C16   H35   S    
C39   C59   A    
Cr3   O14   S    
C99   N23   A    
C3    C82   S    
C27   C53   A    
C7    C106  S    
C87   H23   S    
C12   O33   D    
C35   C61   A    
C51   C58   A    
C18   C104  S    
C91   C97   A    
C23   O44   D    
C67   O13   A    
C98   C105  A    
C93   C100  A    
Cr4   O34   S    
C112  N1    A    
C39   C46   A    
C55   C76   S    
C16   C102  S    
Cr1   O48   S    
N8    N15   A    
C21   C28   S    
C3    O24   D    
N18   N24   A    
Cr2   O18   S    
C33   O1    A    
C24   N4    A    
N2    N19   A    
C85   H1    S    
C15   O36   D    
C70   O8    A    
C22   H41   S    
C74   C81   A    
C6    H18   S    
C4    O25   D    
N9    N16   A    
N1    N22   A    
C79   C85   A    
C112  N11   A    
C89   H34   S    
C25   O46   D    
C25   H43   S    
C28   C35   A    
C83   C90   A    
C93   C99   S    
Cr4   O19   S    
C69   O10   A    
C34   H26   S    
C21   O42   D    
C94   C101  A    
Cr4   O8    S    
C77   O45   A    
C50   C57   A    
C12   C98   S    
C8    H20   S    
C35   H27   S    
C104  C111  A    
C68   O6    A    
C43   C50   A    
C90   C96   A    
N5    N11   A    
C29   C56   A    
C20   C27   S    
C24   N10   A    
C11   O32   D    
C20   O41   D    
N4    N21   A    
Cr4   O2    S    
C45   C64   A    
C100  C106  A    
C88   N5    A    
C31   C38   A    
C91   H45   S    
C47   H6    S    
C103  C109  A    
C1    C73   S    
C7    O28   D    
C17   C103  S    
C119  H13   S    
C99   N6    A    
C49   C56   A    
C81   C87   A    
C18   H37   S    
C73   C106  A    
C14   C100  S    
C4    C83   S    
C9    H21   S    
C60   C69   S    
C116  N16   A    
C71   O17   A    
C113  N12   A    
C54   C114  S    
C17   O38   D    
C32   H25   S    
C41   C48   A    
C94   C110  S    
C33   O49   A    
C9    O30   D    
C44   O12   A    
C19   H38   S    
C10   O31   D    
C97   C104  A    
C67   O5    A    
Cr6   O17   S    
C44   O50   A    
C42   C49   A    
C23   H42   S    
C115  N15   A    
C78   C84   A    
C33   C74   S    
C75   C108  A    
C5    O26   D    
C72   C105  A    
C18   O39   D    
C50   H9    S    
C55   O47   A    
C96   C103  A    
C101  C107  A    
C45   C51   A    
Cr2   O13   S    
C32   C59   A    
N7    N14   A    
Cr1   O11   S    
C22   O43   D    
C10   H22   S    
Cr2   O49   S    
C7    H19   S    
C68   O14   A    
