data_mof_unit_53381.cif
_audit_creation_date              2012-12-10T17:48:18-0500
_audit_creation_method            fapswitch 2.2
_symmetry_space_group_name_H-M    P1
_symmetry_Int_Tables_number       1
_space_group_crystal_system       triclinic
_cell_length_a                    13.935629
_cell_length_b                    14.887012
_cell_length_c                    15.08146
_cell_angle_alpha                 116.224436
_cell_angle_beta                  108.896392
_cell_angle_gamma                 74.42399
_cell_volume                      2626.3342789

loop_
_atom_site_label
_atom_site_type_symbol
_atom_type_description
_atom_site_fract_x
_atom_site_fract_y
_atom_site_fract_z
_atom_type_partial_charge
C1    C     C_R   0.513882 0.118598 0.687166 0.808570
C2    C     C_R   0.486119 0.881402 0.312833 0.808570
C3    C     C_R   0.504275 0.359347 0.923695 0.052084
C4    C     C_R   0.495737 0.640655 0.076306 0.052076
C5    C     C_R   0.554553 0.320128 0.000766 0.049404
C6    C     C_R   0.445469 0.679874 0.999234 0.049423
C7    C     C_R   0.480666 0.466453 0.949843 0.011309
C8    C     C_R   0.519346 0.533548 0.050158 0.011310
C9    C     C_R   0.581202 0.491542 0.121312 -0.249824
C10   C     C_R   0.418816 0.508460 0.878689 -0.249821
C11   C     C_R   0.596145 0.388198 0.099191 0.234904
C12   C     C_R   0.403885 0.611801 0.900806 0.234933
C13   C     C_R   0.320987 0.292934 0.329125 0.175758
C14   C     C_R   0.679016 0.707065 0.670874 0.175758
C15   C     C_R   0.352673 0.209414 0.356640 0.360561
C16   C     C_R   0.647327 0.790587 0.643361 0.360542
C17   C     C_R   0.493675 0.286049 0.486468 0.064102
C18   C     C_R   0.506325 0.713951 0.513532 0.064108
C19   C     C_R   0.465201 0.370798 0.457725 -0.123807
C20   C     C_R   0.534800 0.629201 0.542275 -0.123797
C21   C     C_R   0.368224 0.379795 0.390678 -0.042013
C22   C     C_R   0.631779 0.620203 0.609321 -0.041990
C23   C     C_R   0.685720 0.988526 0.504937 0.830753
C24   C     C_R   0.314280 0.011474 0.495063 0.830753
C25   C     C_R   0.524123 0.452052 0.500442 0.065499
C26   C     C_R   0.475879 0.547947 0.499558 0.065501
C27   C     C_R   0.369829 0.560052 0.459716 -0.248294
C28   C     C_R   0.630173 0.439946 0.540281 -0.248317
C29   C     C_R   0.318656 0.477459 0.395962 0.325979
C30   C     C_R   0.681347 0.522539 0.604034 0.325984
C31   C     C_1   0.210523 0.015335 0.491922 -0.162805
C32   C     C_1   0.789477 0.984663 0.508076 -0.162803
C33   C     C_2   0.017173 0.032784 0.490522 -0.018193
C34   C     C_2   0.982826 0.967210 0.509473 -0.018196
C35   C     C_1   0.877070 0.979721 0.509610 -0.045065
C36   C     C_1   0.122930 0.020275 0.490387 -0.045063
C37   C     C_R   0.518671 0.186338 0.794871 -0.066751
C38   C     C_R   0.481336 0.813664 0.205129 -0.066749
C39   C     C_R   0.567758 0.213331 0.973583 0.027953
C40   C     C_R   0.432267 0.786671 0.026418 0.027928
C41   C     C_R   0.554162 0.148199 0.870805 -0.217104
C42   C     C_R   0.445855 0.851803 0.129196 -0.217110
C43   C     C_R   0.485496 0.290040 0.821520 -0.222350
C44   C     C_R   0.514509 0.709960 0.178481 -0.222355
Cu1   Cu    Cu3+1 0.526370 0.916390 0.524860 0.982418
Cu2   Cu    Cu3+1 0.473630 0.083610 0.475140 0.982418
H1    H     H_    0.325169 0.633698 0.479727 0.164817
H2    H     H_    0.674831 0.366300 0.520269 0.164813
H3    H     H_    0.549492 0.684736 0.239734 0.157181
H4    H     H_    0.450506 0.315263 0.760266 0.157177
H5    H     H_    0.431052 0.932998 0.150114 0.177908
H6    H     H_    0.568964 0.067005 0.849885 0.177895
H7    H     H_    0.622577 0.537374 0.195018 0.175773
H8    H     H_    0.377442 0.462629 0.804981 0.175773
N1    N     N_R   0.433980 0.209250 0.437830 -0.241669
N2    N     N_R   0.566020 0.790750 0.562170 -0.241662
O1    O     O_R   0.534760 0.019630 0.662610 -0.557880
O2    O     O_R   0.465240 0.980370 0.337390 -0.557879
O3    O     O_R   0.490220 0.160840 0.620610 -0.581343
O4    O     O_R   0.509780 0.839160 0.379390 -0.581342
O5    O     O_R   0.663260 0.919400 0.523940 -0.525771
O6    O     O_R   0.336740 0.080600 0.476060 -0.525774
O7    O     O_R   0.618720 0.060610 0.481950 -0.604801
O8    O     O_R   0.381280 0.939390 0.518050 -0.604799
C45   C     C_R   0.048632 0.878198 0.530360 0.129725
C46   C     C_R   0.010334 0.785367 0.484225 -0.119829
C47   C     C_R   0.064955 0.703528 0.509848 -0.056335
C48   C     C_R   0.160216 0.711691 0.578840 -0.050465
C49   C     C_R   0.199418 0.803052 0.625359 -0.148451
C50   C     C_R   0.143232 0.886751 0.602919 -0.160086
H9    H     H_    0.937084 0.776655 0.429311 0.141716
H10   H     H_    0.033693 0.633282 0.475318 0.181068
H11   H     H_    0.203624 0.646752 0.595579 0.191378
H12   H     H_    0.272974 0.808972 0.679373 0.179516
H13   H     H_    0.172860 0.958110 0.643578 0.136533
C51   C     C_R   0.951367 0.121796 0.469635 0.129723
C52   C     C_R   0.989665 0.214629 0.515770 -0.119836
C53   C     C_R   0.935042 0.296467 0.490148 -0.056322
C54   C     C_R   0.839777 0.288303 0.421157 -0.050456
C55   C     C_R   0.800576 0.196939 0.374637 -0.148444
C56   C     C_R   0.856765 0.113241 0.397075 -0.160070
H14   H     H_    0.062917 0.223343 0.570684 0.141716
H15   H     H_    0.966304 0.366715 0.524677 0.181069
H16   H     H_    0.796366 0.353242 0.404421 0.191366
H17   H     H_    0.727017 0.191017 0.320623 0.179495
H18   H     H_    0.827137 0.041880 0.356416 0.136534
Br1   Br    Br    0.231615 0.276705 0.196071 -0.408276
Br2   Br    Br    0.768402 0.723287 0.803925 -0.408300
Br3   Br    Br    0.692610 0.346893 0.203174 -0.571230
Br4   Br    Br    0.307459 0.653096 0.796805 -0.571295
C57   C     C_R   0.582668 0.165814 0.046319 0.123169
C58   C     C_R   0.512573 0.196359 0.107189 -0.088351
C59   C     C_R   0.519461 0.144155 0.167164 -0.104845
C60   C     C_R   0.595496 0.060872 0.166490 -0.169196
C61   C     C_R   0.665793 0.030209 0.106665 -0.113121
C62   C     C_R   0.659461 0.082145 0.046639 -0.073536
H19   H     H_    0.451541 0.259194 0.106634 0.152675
H20   H     H_    0.465248 0.167506 0.213390 0.153381
H21   H     H_    0.600315 0.020522 0.212804 0.139103
H22   H     H_    0.724795 0.965743 0.106263 0.157399
H23   H     H_    0.713563 0.056453 0.999450 0.169124
C63   C     C_R   0.417361 0.834190 0.953684 0.123121
C64   C     C_R   0.340543 0.917822 0.953325 -0.073487
C65   C     C_R   0.334203 0.969757 0.893295 -0.113131
C66   C     C_R   0.404514 0.939125 0.833500 -0.169222
C67   C     C_R   0.480575 0.855876 0.832864 -0.104830
C68   C     C_R   0.487474 0.803675 0.892846 -0.088360
H24   H     H_    0.286426 0.943483 0.000484 0.169123
H25   H     H_    0.275178 0.034192 0.893662 0.157400
H26   H     H_    0.399684 0.979475 0.787181 0.139111
H27   H     H_    0.534798 0.832552 0.786662 0.153402
H28   H     H_    0.548524 0.740868 0.893431 0.152690
Br5   Br    Br    0.175976 0.509669 0.337208 -0.483031
Br6   Br    Br    0.824029 0.490326 0.662784 -0.483042
C69   C     C_R   0.427038 0.706939 0.417258 0.190566
C70   C     C_R   0.446767 0.631903 0.324750 -0.164471
C71   C     C_R   0.369198 0.612685 0.234960 -0.120250
C72   C     C_R   0.271360 0.668616 0.236140 -0.046749
C73   C     C_R   0.249553 0.740701 0.327889 -0.120636
C74   C     C_R   0.326099 0.757696 0.418000 -0.133520
H29   H     H_    0.521546 0.586072 0.323057 0.143410
H30   H     H_    0.384371 0.553535 0.164533 0.156238
H31   H     H_    0.211627 0.653718 0.166552 0.158926
H32   H     H_    0.172377 0.780494 0.329958 0.154572
H33   H     H_    0.304612 0.804454 0.489397 0.144972
C75   C     C_R   0.572963 0.293059 0.582741 0.190568
C76   C     C_R   0.673902 0.242302 0.581998 -0.133522
C77   C     C_R   0.750450 0.259297 0.672108 -0.120637
C78   C     C_R   0.728645 0.331382 0.763857 -0.046751
C79   C     C_R   0.630807 0.387314 0.765038 -0.120240
C80   C     C_R   0.553237 0.368096 0.675250 -0.164459
H34   H     H_    0.695388 0.195544 0.510600 0.144970
H35   H     H_    0.827626 0.219503 0.670037 0.154573
H36   H     H_    0.788379 0.346280 0.833444 0.158929
H37   H     H_    0.615637 0.446465 0.835466 0.156244
H38   H     H_    0.478458 0.413928 0.676943 0.143426
Br7   Br    Br    0.725560 0.901461 0.720178 -0.428393
Br8   Br    Br    0.274439 0.098540 0.279821 -0.428361

loop_
_geom_bond_atom_site_label_1
_geom_bond_atom_site_label_2
_ccdc_geom_bond_type
C44   H3    S    
C7    C10   A    
C52   C53   A    
C66   H26   S    
Cu1   O4    S    
C59   C60   A    
Cu2   O3    S    
C27   C29   A    
C68   H28   S    
C61   C62   A    
C4    C8    A    
C77   C78   A    
C7    C8    A    
C39   C41   A    
C73   H32   S    
C25   C28   A    
C3    C43   A    
C26   C27   A    
C75   C76   A    
Cu2   O6    S    
C52   H14   S    
C12   Br4   S    
C19   C21   A    
C5    C11   A    
C51   C56   A    
C3    C7    A    
C49   C50   A    
C1    O3    A    
C6    C12   A    
C65   H25   S    
C2    O4    A    
C17   C75   S    
C67   C68   A    
C69   C70   A    
C33   C36   S    
C75   C80   A    
C70   C71   A    
C34   C35   S    
C2    C38   S    
C76   H34   S    
C57   C62   A    
C72   C73   A    
C53   H15   S    
C16   Br7   S    
Cu1   N2    S    
C48   C49   A    
Cu2   N1    S    
C64   H24   S    
C17   N1    A    
C41   H6    S    
C18   C20   A    
C56   H18   S    
C18   N2    A    
C42   H5    S    
C15   Br8   S    
C40   C42   A    
C46   C47   A    
C24   O8    A    
C62   H23   S    
Cu2   O2    S    
C60   C61   A    
C10   H8    S    
C34   C45   S    
C39   C57   S    
C65   C66   A    
C58   H19   S    
C67   H27   S    
C23   O7    A    
C70   H29   S    
C47   C48   A    
C32   C35   T    
C49   H12   S    
C51   C52   A    
C4    C6    A    
C80   H38   S    
C57   C58   A    
C74   H33   S    
C8    C9    A    
C4    C44   A    
C48   H11   S    
Cu1   Cu2   S    
C21   C29   A    
C54   C55   A    
C15   N1    A    
C37   C43   A    
C71   H30   S    
C16   N2    A    
C38   C44   A    
C55   H17   S    
C1    O1    A    
C11   Br3   S    
C33   C51   S    
C46   H9    S    
Cu1   O1    S    
C13   Br1   S    
C33   C34   D    
C13   C21   A    
C63   C68   A    
C9    C11   A    
C10   C12   A    
C79   H37   S    
C20   C22   A    
C69   C74   A    
C13   C15   A    
C14   C16   A    
C9    H7    S    
C76   C77   A    
C64   C65   A    
C47   H10   S    
C78   C79   A    
C30   Br6   S    
C27   H1    S    
C29   Br5   S    
C28   H2    S    
C24   O6    A    
C22   C30   A    
C61   H22   S    
C55   C56   A    
C3    C5    A    
C18   C69   S    
C73   C74   A    
C2    O2    A    
C43   H4    S    
C38   C42   A    
C1    C37   S    
C66   C67   A    
Cu1   O8    S    
Cu2   O7    S    
C23   C32   S    
C14   C22   A    
C5    C39   A    
C79   C80   A    
C25   C26   A    
C24   C31   S    
C14   Br2   S    
C28   C30   A    
C77   H35   S    
C53   C54   A    
C54   H16   S    
C20   C26   A    
C60   H21   S    
Cu1   O5    S    
C58   C59   A    
C17   C19   A    
C6    C40   A    
C72   H31   S    
C37   C41   A    
C63   C64   A    
C19   C25   A    
C40   C63   S    
C78   H36   S    
C23   O5    A    
C45   C46   A    
C50   H13   S    
C31   C36   T    
C71   C72   A    
C59   H20   S    
C45   C50   A    
