data_mof_unit_10645.cif
_audit_creation_date              2012-10-26T18:33:59-0400
_audit_creation_method            fapswitch 2.2
_symmetry_space_group_name_H-M    P1
_symmetry_Int_Tables_number       1
_space_group_crystal_system       triclinic
_cell_length_a                    11.095572
_cell_length_b                    10.862475
_cell_length_c                    9.595179
_cell_angle_alpha                 92.03143
_cell_angle_beta                  102.833051
_cell_angle_gamma                 91.767055
_cell_volume                      1125.97752635

loop_
_atom_site_label
_atom_site_type_symbol
_atom_type_description
_atom_site_fract_x
_atom_site_fract_y
_atom_site_fract_z
_atom_type_partial_charge
C1    C     C_R   0.496626 0.262355 0.496743 0.546047
C2    C     C_2   0.871810 0.506818 0.587656 -0.109836
C3    C     C_2   0.066727 0.530694 0.511537 0.232464
C4    C     C_2   0.933454 0.499653 0.481054 0.255846
C5    C     C_R   0.436539 0.056031 0.371827 0.228327
C6    C     C_R   0.547874 0.945438 0.629137 0.237328
C7    C     C_R   0.444300 0.927797 0.376822 -0.209637
C8    C     C_R   0.550790 0.073224 0.618847 -0.174897
C9    C     C_R   0.498265 0.872204 0.504343 -0.024699
C10   C     C_R   0.495224 0.128396 0.493371 -0.013984
C11   C     C_3   0.864551 0.342088 0.316986 -0.125361
C12   C     C_R   0.501036 0.737935 0.502413 0.558629
C13   C     C_3   0.135187 0.704136 0.648819 -0.125174
C14   C     C_3   0.223951 0.370184 0.072357 -0.081530
C15   C     C_3   0.787394 0.602958 0.947343 -0.074860
C16   C     C_3   0.259591 0.309213 0.755254 -0.072126
C17   C     C_3   0.657149 0.765565 0.193249 -0.088603
C18   C     C_3   0.263263 0.060369 0.182610 0.036360
C19   C     C_3   0.263013 0.013085 0.030487 -0.259588
C20   C     C_3   0.132540 0.975613 0.947093 -0.496557
C21   C     C_3   0.564499 0.945478 0.874820 0.036038
C22   C     C_3   0.671193 0.022456 0.972478 -0.287096
C23   C     C_R   0.263775 0.504741 0.442236 0.514148
C24   C     C_3   0.629872 0.081846 0.099804 -0.459275
C25   C     C_R   0.736922 0.499856 0.557605 0.533343
C26   C     C_R   0.421117 0.421876 0.051266 0.337313
C27   C     C_R   0.582662 0.574557 0.950052 0.319404
C28   C     C_R   0.426404 0.416394 0.903396 0.335244
C29   C     C_R   0.581950 0.574561 0.100072 0.334713
C30   C     C_2   0.129799 0.507217 0.409389 -0.115993
Cu1   Cu    Cu3+1 0.500000 0.500020 0.640660 1.042626
Cu2   Cu    Cu3+1 0.500000 0.499980 0.359340 1.050319
H1    H     H_    0.921320 0.524448 0.697888 0.081205
H2    H     H_    0.189322 0.736869 0.571566 0.119844
H3    H     H_    0.167398 0.309237 0.986403 0.078823
H4    H     H_    0.209566 0.468810 0.046402 0.085438
H5    H     H_    0.185521 0.352352 0.166956 0.129965
H6    H     H_    0.788742 0.500633 0.934399 0.108431
H7    H     H_    0.829738 0.632808 0.059623 0.153751
H8    H     H_    0.847375 0.643050 0.880923 0.125576
H9    H     H_    0.250062 0.296762 0.638161 0.147806
H10   H     H_    0.212109 0.393553 0.778564 0.149854
H11   H     H_    0.210927 0.227533 0.786237 0.087252
H12   H     H_    0.081797 0.482264 0.300274 0.083118
H13   H     H_    0.696294 0.810167 0.300222 0.137466
H14   H     H_    0.558540 0.790522 0.161345 0.085818
H15   H     H_    0.711020 0.802065 0.119455 0.131808
H16   H     H_    0.195809 0.134147 0.177410 0.143666
H17   H     H_    0.228715 0.986099 0.242798 0.091696
H18   H     H_    0.301563 0.086626 0.973519 0.211301
H19   H     H_    0.322883 0.932567 0.034545 0.129309
H20   H     H_    0.094273 0.897922 0.998246 0.146184
H21   H     H_    0.135177 0.946124 0.835978 0.131466
H22   H     H_    0.070973 0.054789 0.942613 0.137097
H23   H     H_    0.406053 0.871133 0.281247 0.121908
H24   H     H_    0.536310 0.869120 0.935526 0.148157
H25   H     H_    0.480548 0.001572 0.845837 0.120141
H26   H     H_    0.750945 0.964028 0.010355 0.158183
H27   H     H_    0.706689 0.096567 0.914466 0.149415
H28   H     H_    0.561941 0.153418 0.062999 0.215851
H29   H     H_    0.711012 0.125536 0.176050 0.121781
H30   H     H_    0.586792 0.011986 0.156775 0.158194
H31   H     H_    0.596487 0.131338 0.709425 0.142908
H32   H     H_    0.957108 0.300907 0.342717 0.066153
H33   H     H_    0.823927 0.320910 0.201924 0.131476
H34   H     H_    0.802954 0.298364 0.379667 0.125983
H35   H     H_    0.185024 0.738592 0.757090 0.133407
H36   H     H_    0.041886 0.743834 0.626301 0.108956
N1    N     N_R   0.500030 0.500030 0.852080 -0.259466
N2    N     N_R   0.499970 0.499970 0.147920 -0.262985
O1    O     O_R   0.499990 0.319660 0.618740 -0.486474
O2    O     O_3   0.126369 0.574411 0.647786 -0.600571
O3    O     O_3   0.348865 0.335873 0.101760 -0.487587
O4    O     O_3   0.667437 0.648327 0.901852 -0.513394
O5    O     O_3   0.385828 0.308093 0.823867 -0.546661
O6    O     O_3   0.672306 0.638036 0.201745 -0.501736
O7    O     O_3   0.382006 0.112805 0.247369 -0.518708
O8    O     O_3   0.603148 0.891639 0.755641 -0.517092
O9    O     O_R   0.500010 0.680340 0.381260 -0.516405
O10   O     O_R   0.499990 0.319630 0.381170 -0.429736
O11   O     O_R   0.500010 0.680370 0.618830 -0.427814
O12   O     O_R   0.320690 0.500020 0.575130 -0.460249
O13   O     O_R   0.679310 0.499980 0.424870 -0.400056
O14   O     O_R   0.320680 0.499990 0.337560 -0.511711
O15   O     O_R   0.679320 0.500010 0.662440 -0.498744
O16   O     O_3   0.872706 0.471391 0.340103 -0.538926

loop_
_geom_bond_atom_site_label_1
_geom_bond_atom_site_label_2
_ccdc_geom_bond_type
C24   H29   S    
Cu1   O15   S    
C23   O12   A    
C27   C29   A    
C16   O5    S    
C19   C20   S    
C7    H23   S    
C6    C9    A    
C29   O6    S    
C1    O1    A    
Cu1   O12   S    
C17   H13   S    
C14   H4    S    
C6    O8    S    
C4    O16   S    
C11   O16   S    
C12   O9    A    
C26   O3    S    
C18   C19   S    
C28   N1    A    
C21   O8    S    
C17   O6    S    
C27   O4    S    
C27   N1    A    
C11   H34   S    
Cu1   O1    S    
C21   C22   S    
C30   H12   S    
C5    C10   A    
Cu2   O14   S    
C23   O14   A    
C14   O3    S    
C17   H14   S    
C20   H22   S    
C11   H32   S    
C14   H3    S    
C5    C7    A    
Cu2   N2    S    
C3    C30   D    
C2    C4    D    
C23   C30   S    
C15   H6    S    
C21   H25   S    
Cu2   O10   S    
Cu1   Cu2   S    
C24   H28   S    
C25   O15   A    
C16   H11   S    
C15   H7    S    
C2    H1    S    
C26   N2    A    
C22   C24   S    
C5    O7    S    
C3    C4    S    
C16   H10   S    
C22   H27   S    
C29   N2    A    
C13   H35   S    
C7    C9    A    
Cu2   O13   S    
C24   H30   S    
C1    C10   S    
C17   H15   S    
C20   H21   S    
C18   H16   S    
C22   H26   S    
C21   H24   S    
C6    C8    A    
C13   O2    S    
C26   C28   A    
Cu1   O11   S    
C3    O2    S    
C13   H2    S    
C20   H20   S    
C14   H5    S    
C19   H18   S    
C18   O7    S    
C12   O11   A    
C2    C25   S    
C9    C12   S    
C15   H8    S    
C8    H31   S    
C19   H19   S    
Cu1   N1    S    
C15   O4    S    
C8    C10   A    
C25   O13   A    
C1    O10   A    
C28   O5    S    
C16   H9    S    
C11   H33   S    
C18   H17   S    
Cu2   O9    S    
C13   H36   S    
