data_mof_unit_54765.cif
_audit_creation_date              2012-12-10T17:03:24-0500
_audit_creation_method            fapswitch 2.2
_symmetry_space_group_name_H-M    P1
_symmetry_Int_Tables_number       1
_space_group_crystal_system       triclinic
_cell_length_a                    15.060912
_cell_length_b                    11.069182
_cell_length_c                    9.836465
_cell_angle_alpha                 112.045418
_cell_angle_beta                  98.072316
_cell_angle_gamma                 91.20976
_cell_volume                      1500.02410638

loop_
_atom_site_label
_atom_site_type_symbol
_atom_type_description
_atom_site_fract_x
_atom_site_fract_y
_atom_site_fract_z
_atom_type_partial_charge
C1    C     C_R   0.493589 0.253275 0.438761 0.778302
C2    C     C_R   0.506416 0.746729 0.561240 0.770218
C3    C     C_R   0.063283 0.436195 0.718784 -0.002953
C4    C     C_R   0.934014 0.523349 0.257650 0.012750
C5    C     C_2   0.491678 0.111900 0.399438 -0.188586
C6    C     C_2   0.508337 0.888109 0.600558 -0.189863
C7    C     C_2   0.492857 0.067684 0.509434 -0.112218
C8    C     C_2   0.507110 0.932309 0.490539 -0.124926
C9    C     C_2   0.507824 0.510299 0.081685 -0.009287
C10   C     C_2   0.492225 0.489619 0.918288 -0.011921
C11   C     C_R   0.328715 0.500419 0.501348 0.822495
C12   C     C_R   0.671208 0.498723 0.498322 0.817794
C13   C     C_R   0.803311 0.511032 0.379047 -0.185891
C14   C     C_R   0.195812 0.475484 0.614157 -0.191643
C15   C     C_R   0.767444 0.493096 0.494337 -0.109885
C16   C     C_R   0.231934 0.498480 0.501882 -0.104787
C17   C     C_R   0.823256 0.469192 0.605998 -0.207441
C18   C     C_R   0.175468 0.515716 0.386296 -0.204823
C19   C     C_R   0.915332 0.465104 0.604834 0.113025
C20   C     C_R   0.082894 0.511102 0.382212 0.115557
C21   C     C_R   0.952206 0.484596 0.489915 0.034818
C22   C     C_R   0.045736 0.486018 0.493627 0.035910
C23   C     C_R   0.895673 0.504896 0.373059 0.089021
C24   C     C_R   0.102275 0.464527 0.609633 0.091167
C25   C     C_R   0.970483 0.440813 0.716999 -0.294100
C26   C     C_R   0.027440 0.530135 0.266770 -0.290333
Cu1   Cu    Cu3+1 0.515770 0.521810 0.644910 0.982780
Cu2   Cu    Cu3+1 0.484230 0.478190 0.355090 0.982155
H1    H     H_    0.758643 0.534536 0.298216 0.198548
H2    H     H_    0.241678 0.467159 0.704307 0.200900
H3    H     H_    0.794953 0.453680 0.694215 0.181711
H4    H     H_    0.203733 0.534142 0.299708 0.164414
H5    H     H_    0.940565 0.422130 0.802067 0.153096
H6    H     H_    0.057248 0.548021 0.181260 0.127533
H7    H     H_    0.514775 0.863721 0.381216 0.207268
H8    H     H_    0.485162 0.136259 0.618747 0.210846
H9    H     H_    0.439294 0.417350 0.844433 0.162238
H10   H     H_    0.560784 0.582519 0.155524 0.155444
H11   H     H_    0.589307 0.622496 0.935400 0.206210
H12   H     H_    0.410668 0.377540 0.064612 0.213382
N1    N     N_2   0.460520 0.445420 0.137370 -0.279928
N2    N     N_2   0.539480 0.554580 0.862630 -0.276122
O1    O     O_R   0.508410 0.332340 0.577400 -0.568906
O2    O     O_R   0.491590 0.667660 0.422600 -0.574489
O3    O     O_R   0.481780 0.295500 0.332650 -0.573019
O4    O     O_R   0.518220 0.704500 0.667350 -0.576770
O5    O     O_R   0.383570 0.518390 0.622380 -0.583583
O6    O     O_R   0.616430 0.481610 0.377620 -0.577159
O7    O     O_R   0.356940 0.481550 0.377630 -0.570416
O8    O     O_R   0.643060 0.518450 0.622370 -0.567869
C27   C     C_2   0.114503 0.397852 0.834772 0.353916
H13   H     H_    0.090059 0.418991 0.939237 0.064009
O9    O     O_2   0.180119 0.334682 0.812063 -0.555222
C28   C     C_2   0.881059 0.534384 0.124109 0.316931
H14   H     H_    0.909753 0.592343 0.070733 0.068871
O10   O     O_2   0.808374 0.472745 0.066328 -0.544100
C29   C     C_2   0.509986 0.973796 0.759613 0.369129
H15   H     H_    0.476164 0.938497 0.829602 0.099266
O11   O     O_2   0.553530 0.079761 0.816147 -0.536448
C30   C     C_2   0.490077 0.026238 0.240379 0.359682
H16   H     H_    0.523922 0.061572 0.170422 0.102821
O12   O     O_2   0.446544 0.920257 0.183800 -0.549517

loop_
_geom_bond_atom_site_label_1
_geom_bond_atom_site_label_2
_ccdc_geom_bond_type
C12   O8    A    
Cu1   O8    S    
C15   C17   A    
C11   O7    A    
C10   N2    D    
C11   C16   S    
C11   O5    A    
C6    C29   S    
C12   C15   S    
C25   H5    S    
C12   O6    A    
C4    C28   S    
C22   C24   A    
C13   C15   A    
Cu2   O2    S    
C3    C24   A    
C7    C8    S    
C21   C22   A    
C2    O4    A    
Cu1   N2    S    
C1    O3    A    
C29   H15   S    
C2    C6    S    
C20   C26   A    
C14   H2    S    
C10   H9    S    
C1    C5    S    
Cu1   O4    S    
C16   C18   A    
H12   N1    S    
C19   C21   A    
C20   C22   A    
C9    C10   S    
H11   N2    S    
C14   C16   A    
C21   C23   A    
C7    H8    S    
C17   H3    S    
C28   O10   D    
C4    C26   A    
C29   O11   D    
C26   H6    S    
C18   H4    S    
C13   H1    S    
C19   C25   A    
Cu1   O5    S    
C27   H13   S    
Cu1   O1    S    
Cu2   N1    S    
C3    C25   A    
C13   C23   A    
C18   C20   A    
C30   O12   D    
Cu2   O7    S    
C14   C24   A    
Cu1   Cu2   S    
C5    C7    D    
Cu2   O3    S    
C3    C27   S    
C28   H14   S    
C9    H10   S    
C6    C8    D    
C5    C30   S    
C17   C19   A    
C4    C23   A    
C9    N1    D    
C1    O1    A    
Cu2   O6    S    
C2    O2    A    
C30   H16   S    
C27   O9    D    
C8    H7    S    
