data_mof_unit_61114.cif
_audit_creation_date              2013-03-05T15:50:48-0500
_audit_creation_method            fapswitch 2.2
_symmetry_space_group_name_H-M    P1
_symmetry_Int_Tables_number       1
_space_group_crystal_system       triclinic
_cell_length_a                    43.977813
_cell_length_b                    30.294631
_cell_length_c                    32.010254
_cell_angle_alpha                 89.941616
_cell_angle_beta                  136.627014
_cell_angle_gamma                 90.058397
_cell_volume                      29287.5859508

loop_
_atom_site_label
_atom_site_type_symbol
_atom_site_description
_atom_site_fract_x
_atom_site_fract_y
_atom_site_fract_z
_atom_type_partial_charge
O1    O     O_R   0.564870 0.962420 0.064890 -0.582131
O2    O     O_R   0.435130 0.962420 0.935110 -0.582424
O3    O     O_R   0.064870 0.462420 0.064890 -0.582275
O4    O     O_R   0.935130 0.462420 0.935110 -0.582531
O5    O     O_R   0.564810 0.037500 0.064830 -0.579299
O6    O     O_R   0.435190 0.037500 0.935170 -0.579289
O7    O     O_R   0.064810 0.537500 0.064830 -0.580424
O8    O     O_R   0.935190 0.537500 0.935170 -0.579277
C1    C     C_R   0.585590 0.000003 0.085506 0.800759
C2    C     C_R   0.414410 0.999988 0.914500 0.800772
C3    C     C_R   0.085595 0.500006 0.085516 0.801078
C4    C     C_R   0.914411 0.499987 0.914498 0.801253
O9    O     O_R   0.500000 0.962430 0.060460 -0.570296
O10   O     O_R   0.500000 0.962430 0.939540 -0.569290
O11   O     O_R   1.000000 0.462430 0.060460 -0.570197
O12   O     O_R   0.000000 0.462430 0.939540 -0.569824
O13   O     O_R   0.499940 0.037510 0.060410 -0.568601
O14   O     O_R   0.500060 0.037510 0.939590 -0.569873
O15   O     O_R   0.999940 0.537510 0.060410 -0.568992
O16   O     O_R   0.000060 0.537510 0.939590 -0.570075
C5    C     C_R   0.499953 0.999946 0.080012 0.805228
C6    C     C_R   0.500047 0.999986 0.919988 0.805975
C7    C     C_R   0.999953 0.499946 0.080012 0.805579
C8    C     C_R   0.000045 0.499985 0.919986 0.806469
Cu1   Cu    Cu3+1 0.500000 0.955510 0.000000 1.016011
Cu2   Cu    Cu3+1 1.000000 0.455510 0.000000 1.014227
Cu3   Cu    Cu3+1 0.500000 0.044420 0.000000 1.023882
Cu4   Cu    Cu3+1 1.000000 0.544420 0.000000 1.021276
C9    C     C_3   0.541253 0.987895 0.305320 -0.407389
C10   C     C_3   0.459714 0.985065 0.695685 -0.406593
C11   C     C_3   0.041290 0.488030 0.305358 -0.407283
C12   C     C_3   0.959807 0.484743 0.695772 -0.406454
C13   C     C_3   0.529922 0.028314 0.266508 0.275782
C14   C     C_3   0.468073 0.026223 0.731426 0.275917
C15   C     C_3   0.029829 0.528412 0.266414 0.276160
C16   C     C_3   0.967869 0.525957 0.731221 0.275846
H1    H     H_    0.574788 0.978946 0.350198 0.201896
H2    H     H_    0.426920 0.973680 0.651574 0.202637
H3    H     H_    0.074853 0.479189 0.350264 0.201978
H4    H     H_    0.927097 0.473125 0.651741 0.202498
C17   C     C_1   0.499915 0.999897 0.124773 -0.116646
C18   C     C_1   0.500080 0.000029 0.875223 -0.116151
C19   C     C_1   0.999914 0.499897 0.124772 -0.117042
C20   C     C_1   0.000071 0.500021 0.875213 -0.116989
C21   C     C_1   0.500115 0.999713 0.375240 -0.076096
C22   C     C_1   0.499888 0.999749 0.624765 -0.075070
C23   C     C_1   0.000115 0.499720 0.375240 -0.074698
C24   C     C_1   0.999887 0.499740 0.624763 -0.074848
C25   C     C_3   0.510269 0.959733 0.246133 0.454257
C26   C     C_3   0.492666 0.959265 0.756904 0.450773
C27   C     C_3   0.010397 0.459768 0.246263 0.453984
C28   C     C_3   0.992942 0.459175 0.757173 0.453843
C29   C     C_3   0.499864 0.000125 0.208157 -0.087473
C30   C     C_3   0.500104 0.000327 0.791813 -0.086289
C31   C     C_3   0.999862 0.500125 0.208155 -0.087485
C32   C     C_3   0.000084 0.500288 0.791791 -0.087409
C33   C     C_3   0.470255 0.970925 0.233680 0.278313
C34   C     C_3   0.531758 0.973335 0.768403 0.276137
C35   C     C_3   0.970347 0.470833 0.233774 0.277744
C36   C     C_3   0.031934 0.473527 0.768575 0.277285
C37   C     C_3   0.500310 0.999114 0.292020 -0.089685
C38   C     C_3   0.499730 0.999230 0.708025 -0.089628
C39   C     C_3   0.000312 0.499120 0.292022 -0.089839
C40   C     C_3   0.999722 0.499197 0.708015 -0.089951
C41   C     C_3   0.458922 0.011345 0.194869 -0.413973
C42   C     C_3   0.540119 0.014494 0.804143 -0.413386
C43   C     C_3   0.958884 0.511216 0.194831 -0.413569
C44   C     C_3   0.039997 0.514743 0.804022 -0.413783
C45   C     C_3   0.489909 0.039503 0.254052 0.452426
C46   C     C_3   0.507164 0.040291 0.742927 0.452379
C47   C     C_3   0.989780 0.539473 0.253922 0.452359
C48   C     C_3   0.006860 0.540307 0.742624 0.452700
C49   C     C_1   0.499894 0.999939 0.162392 0.135257
C50   C     C_1   0.500091 0.000123 0.837595 0.135971
C51   C     C_1   0.999893 0.499939 0.162391 0.135340
C52   C     C_1   0.000076 0.500098 0.837579 0.135377
C53   C     C_1   0.500214 0.999456 0.337707 0.144371
C54   C     C_1   0.499803 0.999530 0.662312 0.145094
C55   C     C_1   0.000214 0.499463 0.337708 0.144726
C56   C     C_1   0.999798 0.499509 0.662306 0.144784
H5    H     H_    0.425384 0.020294 0.149996 0.198320
H6    H     H_    0.572916 0.025880 0.848248 0.198519
H7    H     H_    0.925317 0.520056 0.149930 0.198670
H8    H     H_    0.072712 0.526361 0.848047 0.198357
C57   C     C_R   0.843187 0.035049 0.318795 0.310077
C58   C     C_R   0.156842 0.035025 0.681189 0.309928
C59   C     C_R   0.343181 0.535317 0.319131 0.310074
C60   C     C_R   0.656851 0.534947 0.681295 0.308156
C61   C     C_R   0.865933 0.003722 0.366227 -0.136168
C62   C     C_R   0.134070 0.003716 0.633770 -0.136401
C63   C     C_R   0.365943 0.503731 0.366269 -0.135745
C64   C     C_R   0.634074 0.503718 0.633782 -0.135811
C65   C     C_R   0.842708 0.973489 0.367583 -0.210567
C66   C     C_R   0.157270 0.973495 0.632433 -0.210267
C67   C     C_R   0.342732 0.473271 0.367403 -0.212721
C68   C     C_R   0.657273 0.473565 0.632367 -0.209979
C69   C     C_R   0.796701 0.972277 0.320588 0.128364
C70   C     C_R   0.203275 0.972272 0.679437 0.128116
C71   C     C_R   0.296723 0.472071 0.320420 0.128236
C72   C     C_R   0.703279 0.472338 0.679368 0.128103
C73   C     C_R   0.773280 0.004292 0.273907 -0.015993
C74   C     C_R   0.226723 0.004263 0.726111 -0.016084
C75   C     C_R   0.273296 0.504357 0.274082 -0.018374
C76   C     C_R   0.726729 0.504264 0.726121 -0.015684
C77   C     C_R   0.796291 0.037518 0.274188 -0.109864
C78   C     C_R   0.203742 0.037479 0.725811 -0.109956
C79   C     C_R   0.296302 0.537839 0.274703 -0.113251
C80   C     C_R   0.703749 0.537414 0.725910 -0.109543
C81   C     C_R   0.773803 0.939233 0.319551 -0.164259
C82   C     C_R   0.226144 0.939239 0.680492 -0.163956
C83   C     C_R   0.273830 0.438778 0.319047 -0.164179
C84   C     C_R   0.726148 0.439366 0.680340 -0.164049
C85   C     C_R   0.727741 0.937339 0.272135 -0.191330
C86   C     C_R   0.272204 0.937337 0.727914 -0.190673
C87   C     C_R   0.227766 0.436891 0.271602 -0.192354
C88   C     C_R   0.772209 0.437458 0.727759 -0.190927
C89   C     C_R   0.703921 0.968971 0.225736 0.122935
C90   C     C_R   0.296052 0.968947 0.774305 0.122624
C91   C     C_R   0.203943 0.468779 0.225524 0.122727
C92   C     C_R   0.796057 0.469006 0.774228 0.122854
C93   C     C_R   0.726667 0.002896 0.226936 0.093101
C94   C     C_R   0.273335 0.002857 0.773092 0.093107
C95   C     C_R   0.226685 0.502968 0.227099 0.092892
C96   C     C_R   0.773341 0.502857 0.773097 0.093064
C97   C     C_R   0.702695 0.035406 0.181213 0.046565
C98   C     C_R   0.297333 0.035345 0.818807 0.046599
C99   C     C_R   0.202718 0.535741 0.181732 0.046380
C100  C     C_R   0.797339 0.535287 0.818891 0.046779
C101  C     C_R   0.725069 0.069390 0.183022 -0.245430
C102  C     C_R   0.274991 0.069315 0.816986 -0.246298
C103  C     C_R   0.225096 0.570018 0.183980 -0.252313
C104  C     C_R   0.774997 0.569200 0.817155 -0.245787
C105  C     C_R   0.771345 0.071593 0.229569 0.353127
C106  C     C_R   0.228718 0.071531 0.770428 0.353203
C107  C     C_R   0.271376 0.572219 0.230576 0.357068
C108  C     C_R   0.728725 0.571413 0.770608 0.351804
C109  C     C_R   0.657663 0.967546 0.178430 -0.217853
C110  C     C_R   0.342310 0.967521 0.821611 -0.217294
C111  C     C_R   0.157685 0.467343 0.178171 -0.218798
C112  C     C_R   0.842315 0.467575 0.821533 -0.217497
C113  C     C_R   0.633950 0.000363 0.133543 -0.059622
C114  C     C_R   0.366050 0.000321 0.866483 -0.059742
C115  C     C_R   0.133967 0.500388 0.133600 -0.059978
C116  C     C_R   0.866053 0.500319 0.866483 -0.059652
C117  C     C_R   0.656472 0.034254 0.135178 -0.187804
C118  C     C_R   0.343554 0.034189 0.864844 -0.188566
C119  C     C_R   0.156496 0.534550 0.135635 -0.189702
C120  C     C_R   0.843559 0.534133 0.864923 -0.188575
H9    H     H_    0.860732 0.949366 0.404010 0.175043
H10   H     H_    0.139225 0.949389 0.596014 0.175209
H11   H     H_    0.360766 0.448964 0.403612 0.175392
H12   H     H_    0.639228 0.449508 0.595890 0.175031
H13   H     H_    0.791597 0.914529 0.355168 0.150885
H14   H     H_    0.208329 0.914553 0.644881 0.151203
H15   H     H_    0.291627 0.413868 0.354406 0.150984
H16   H     H_    0.708332 0.414729 0.644668 0.151105
H17   H     H_    0.710730 0.911307 0.271961 0.154230
H18   H     H_    0.289192 0.911317 0.728097 0.154830
H19   H     H_    0.210758 0.410657 0.271149 0.154110
H20   H     H_    0.789196 0.411484 0.727878 0.154311
H21   H     H_    0.640059 0.941636 0.177344 0.157041
H22   H     H_    0.359892 0.941628 0.822700 0.157387
H23   H     H_    0.140089 0.441228 0.176807 0.157210
H24   H     H_    0.859899 0.441727 0.822565 0.156930
H25   H     H_    0.637934 0.059543 0.100227 0.158195
H26   H     H_    0.362112 0.059464 0.899784 0.158135
H27   H     H_    0.137967 0.560032 0.100956 0.158069
H28   H     H_    0.862119 0.559364 0.899924 0.158048
H29   H     H_    0.706396 0.095440 0.149213 0.186861
H30   H     H_    0.293688 0.095349 0.850791 0.186714
H31   H     H_    0.206423 0.596283 0.150508 0.185892
H32   H     H_    0.793695 0.595193 0.851023 0.186738
O17   O     O_R   0.537500 0.935010 0.537500 -0.540583
O18   O     O_R   0.462500 0.935010 0.462500 -0.544167
O19   O     O_R   0.037500 0.435010 0.537500 -0.542903
O20   O     O_R   0.962500 0.435010 0.462500 -0.542477
C121  C     C_R   0.499983 0.914412 0.500086 0.921605
C122  C     C_R   0.999992 0.414432 0.499987 0.923448
O21   O     O_R   0.537510 0.999880 0.477060 -0.558291
O22   O     O_R   0.462490 0.999880 0.522940 -0.558559
O23   O     O_R   0.037510 0.499880 0.477060 -0.558747
O24   O     O_R   0.962490 0.499880 0.522940 -0.558230
O25   O     O_R   0.462420 0.999960 0.401940 -0.575412
O26   O     O_R   0.537580 0.999960 0.598060 -0.573748
O27   O     O_R   0.962420 0.499960 0.401940 -0.574596
O28   O     O_R   0.037580 0.499960 0.598060 -0.574251
C123  C     C_R   0.500004 0.999926 0.419915 0.829689
C124  C     C_R   0.499996 0.999928 0.580086 0.829322
C125  C     C_R   0.000004 0.499932 0.419915 0.830333
C126  C     C_R   0.999996 0.499929 0.580085 0.829996
Cu5   Cu    Cu3+1 0.544430 0.999860 0.544440 1.081847
Cu6   Cu    Cu3+1 0.455570 0.999860 0.455560 1.077656
Cu7   Cu    Cu3+1 0.044430 0.499860 0.544440 1.080583
Cu8   Cu    Cu3+1 0.955570 0.499860 0.455560 1.080971
O29   O     O_R   0.537530 0.064730 0.537550 -0.593152
O30   O     O_R   0.462470 0.064730 0.462450 -0.593233
O31   O     O_R   0.037530 0.564730 0.537550 -0.593201
O32   O     O_R   0.962470 0.564730 0.462450 -0.593128
C127  C     C_R   0.500007 0.085561 0.500007 0.778642
C128  C     C_R   0.000007 0.585562 0.500005 0.778297
O33   O     O_R   0.999920 0.064860 0.534930 -0.535529
O34   O     O_R   0.000080 0.064860 0.465070 -0.535495
O35   O     O_R   0.499920 0.564860 0.534930 -0.534903
O36   O     O_R   0.500080 0.564860 0.465070 -0.537875
C129  C     C_R   0.999988 0.085736 0.499969 0.925709
C130  C     C_R   0.500012 0.585725 0.499945 0.932879
O37   O     O_R   0.935130 0.999970 0.470150 -0.589440
O38   O     O_R   0.064870 0.999970 0.529850 -0.589349
O39   O     O_R   0.435130 0.499970 0.470150 -0.586255
O40   O     O_R   0.564870 0.499970 0.529850 -0.589537
O41   O     O_R   0.935060 0.999990 0.400100 -0.537651
O42   O     O_R   0.064940 0.999990 0.599900 -0.537832
O43   O     O_R   0.435060 0.499990 0.400100 -0.538871
O44   O     O_R   0.564940 0.499990 0.599900 -0.537820
C131  C     C_R   0.914236 0.001156 0.414298 0.891845
C132  C     C_R   0.085765 0.001156 0.585700 0.891838
C133  C     C_R   0.414239 0.501162 0.414303 0.898466
C134  C     C_R   0.585766 0.501158 0.585703 0.890773
Cu9   Cu    Cu3+1 0.000000 0.000000 0.541440 1.156106
Cu10  Cu    Cu3+1 0.000000 0.000000 0.458560 1.156943
Cu11  Cu    Cu3+1 0.500000 0.500000 0.541440 1.160680
Cu12  Cu    Cu3+1 0.500000 0.500000 0.458560 1.156160
O45   O     O_R   0.000080 0.935140 0.535060 -0.568030
O46   O     O_R   0.999920 0.935140 0.464940 -0.567701
O47   O     O_R   0.500080 0.435140 0.535060 -0.568138
O48   O     O_R   0.499920 0.435140 0.464940 -0.567901
C135  C     C_R   0.999999 0.914330 0.500017 0.909373
C136  C     C_R   0.500000 0.414329 0.500018 0.908350
C137  C     C_R   0.974114 0.157022 0.503578 0.295263
C138  C     C_R   0.025725 0.157108 0.496115 0.294983
C139  C     C_R   0.472726 0.657013 0.501062 0.286802
C140  C     C_R   0.525209 0.657049 0.495140 0.293207
C141  C     C_R   0.999939 0.134190 0.499879 -0.264101
C142  C     C_R   0.499389 0.634150 0.498906 -0.260815
C143  C     C_R   0.026149 0.203706 0.496296 -0.061555
C144  C     C_R   0.973649 0.203619 0.503330 -0.061516
C145  C     C_R   0.525455 0.703651 0.494944 -0.061562
C146  C     C_R   0.470871 0.703540 0.498092 -0.068328
C147  C     C_R   0.999904 0.226889 0.499822 -0.092341
C148  C     C_R   0.498261 0.726828 0.496716 -0.090197
C149  C     C_R   0.051929 0.227909 0.492799 0.493519
C150  C     C_R   0.947826 0.227733 0.506754 0.493987
C151  C     C_R   0.551944 0.727865 0.492742 0.493714
C152  C     C_R   0.441923 0.727618 0.495603 0.483843
C153  C     C_R   0.553060 0.773807 0.496012 -0.210137
C154  C     C_R   0.443471 0.773499 0.497612 -0.202125
C155  C     C_R   0.052994 0.273847 0.495883 -0.209593
C156  C     C_R   0.946797 0.273679 0.503733 -0.210637
C157  C     C_R   0.526695 0.797013 0.497999 -0.042089
C158  C     C_R   0.470962 0.796900 0.497778 -0.046469
C159  C     C_R   0.027146 0.297066 0.498781 -0.042284
C160  C     C_R   0.972699 0.296982 0.500933 -0.042398
C161  C     C_R   0.498500 0.773575 0.497231 0.021582
C162  C     C_R   0.999916 0.273630 0.499845 0.021487
C163  C     C_R   0.527535 0.843391 0.499638 0.278939
C164  C     C_R   0.471593 0.843288 0.498968 0.278489
C165  C     C_R   0.027490 0.343457 0.499444 0.278452
C166  C     C_R   0.972410 0.343375 0.500373 0.277962
C167  C     C_R   0.499859 0.866247 0.499856 -0.271011
C168  C     C_R   0.999968 0.366304 0.499943 -0.270473
H33   H     H_    0.575061 0.791121 0.496946 0.205013
H34   H     H_    0.422426 0.790466 0.498720 0.209967
H35   H     H_    0.074370 0.291157 0.495626 0.204827
H36   H     H_    0.925397 0.290929 0.503938 0.204825
C169  C     C_R   0.964439 0.843201 0.446158 0.261416
C170  C     C_R   0.035523 0.843194 0.553932 0.261515
C171  C     C_R   0.464480 0.343197 0.446137 0.261437
C172  C     C_R   0.535506 0.343193 0.553953 0.261486
C173  C     C_R   0.999983 0.865992 0.500041 -0.291086
C174  C     C_R   0.499990 0.365990 0.500043 -0.290711
C175  C     C_R   0.036960 0.796582 0.553689 -0.079545
C176  C     C_R   0.963012 0.796585 0.446401 -0.079635
C177  C     C_R   0.536945 0.296580 0.553716 -0.079607
C178  C     C_R   0.463045 0.296582 0.446384 -0.079634
C179  C     C_R   0.999990 0.773425 0.500042 -0.146259
C180  C     C_R   0.499998 0.273423 0.500049 -0.146237
C181  C     C_R   0.074527 0.772259 0.604977 0.517830
C182  C     C_R   0.925450 0.772260 0.395112 0.517997
C183  C     C_R   0.574493 0.272257 0.605031 0.517991
C184  C     C_R   0.425498 0.272258 0.395071 0.518263
C185  C     C_R   0.573587 0.226137 0.603986 -0.287851
C186  C     C_R   0.426416 0.226142 0.396102 -0.287852
C187  C     C_R   0.073622 0.726140 0.603933 -0.287998
C188  C     C_R   0.926373 0.726143 0.396139 -0.287527
C189  C     C_R   0.536933 0.203320 0.552184 0.054800
C190  C     C_R   0.463083 0.203325 0.447892 0.054809
C191  C     C_R   0.036948 0.703323 0.552154 0.054816
C192  C     C_R   0.963060 0.703326 0.447907 0.054647
C193  C     C_R   0.500004 0.226770 0.500042 0.107197
C194  C     C_R   1.000000 0.726772 0.500035 0.107157
C195  C     C_R   0.536889 0.157163 0.551744 -0.194614
C196  C     C_R   0.463140 0.157168 0.448312 -0.194508
C197  C     C_R   0.036905 0.657166 0.551716 -0.194595
C198  C     C_R   0.963120 0.657170 0.448327 -0.194255
C199  C     C_R   0.500017 0.133968 0.500022 -0.059018
C200  C     C_R   0.000016 0.633970 0.500017 -0.059038
H37   H     H_    0.602079 0.208163 0.644078 0.170401
H38   H     H_    0.397923 0.208170 0.356011 0.170198
H39   H     H_    0.102131 0.708166 0.644006 0.170377
H40   H     H_    0.897869 0.708169 0.356064 0.170577
H41   H     H_    0.565388 0.139269 0.591961 0.162377
H42   H     H_    0.434643 0.139281 0.408088 0.162196
H43   H     H_    0.065420 0.639273 0.591916 0.162423
H44   H     H_    0.934609 0.639282 0.408120 0.162514
N1    N     N_R   0.562555 0.060620 0.285282 0.144509
O49   O     O_R   0.585444 0.082486 0.335611 -0.296476
O50   O     O_R   0.569073 0.067771 0.252209 -0.345908
N2    N     N_R   0.433178 0.056064 0.710323 0.144460
O51   O     O_R   0.408755 0.076182 0.658416 -0.296131
O52   O     O_R   0.426162 0.062738 0.742882 -0.346807
N3    N     N_R   0.062358 0.560821 0.285083 0.144236
O53   O     O_R   0.085177 0.582761 0.335340 -0.297129
O54   O     O_R   0.068852 0.567991 0.251987 -0.347733
N4    N     N_R   0.932758 0.555546 0.709902 0.144432
O55   O     O_R   0.908193 0.575492 0.657852 -0.296134
O56   O     O_R   0.925689 0.562165 0.742408 -0.347214
N5    N     N_R   0.791681 0.110827 0.233680 0.167457
O57   O     O_R   0.815436 0.135441 0.282038 -0.259441
O58   O     O_R   0.778754 0.126842 0.185063 -0.290684
N6    N     N_R   0.208421 0.110758 0.766305 0.167438
O59   O     O_R   0.184714 0.135408 0.717957 -0.259469
O60   O     O_R   0.221348 0.126730 0.814912 -0.291922
N7    N     N_R   0.291744 0.611725 0.235346 0.167715
O61   O     O_R   0.315768 0.635725 0.284283 -0.313761
O62   O     O_R   0.278678 0.628520 0.186958 -0.293957
N8    N     N_R   0.708426 0.610595 0.766579 0.168108
O63   O     O_R   0.684697 0.635297 0.718274 -0.256376
O64   O     O_R   0.721366 0.626484 0.815228 -0.287817
N9    N     N_R   0.947446 0.132332 0.505775 0.173003
O65   O     O_R   0.909074 0.117166 0.455865 -0.281799
O66   O     O_R   0.963191 0.121757 0.557998 -0.317167
N10   N     N_R   0.052455 0.132506 0.494024 0.172834
O67   O     O_R   0.090919 0.117576 0.544017 -0.281218
O68   O     O_R   0.036715 0.121820 0.441852 -0.316628
N11   N     N_R   0.448056 0.632574 0.507021 0.170474
O69   O     O_R   0.414252 0.608753 0.462024 -0.336585
O70   O     O_R   0.461889 0.631003 0.559303 -0.258889
N12   N     N_R   0.552427 0.632445 0.493950 0.172566
O71   O     O_R   0.590636 0.617403 0.544298 -0.280901
O72   O     O_R   0.537304 0.621784 0.442156 -0.318549
O73   O     O_3   0.079077 0.206864 0.491296 -0.523015
C201  C     C_3   0.063151 0.214669 0.434551 -0.155299
H45   H     H_    0.070812 0.248817 0.431790 0.136949
H46   H     H_    0.026948 0.208078 0.395762 0.166658
H47   H     H_    0.080267 0.191796 0.429960 0.214844
O74   O     O_3   0.920583 0.206589 0.508077 -0.522528
C202  C     C_3   0.936258 0.214425 0.564640 -0.156862
H48   H     H_    0.928276 0.248483 0.567055 0.137003
H49   H     H_    0.972500 0.208134 0.603634 0.165515
H50   H     H_    0.919211 0.191357 0.569220 0.215040
O75   O     O_3   0.579808 0.706827 0.492572 -0.521634
C203  C     C_3   0.564925 0.714673 0.436530 -0.157830
H51   H     H_    0.572768 0.748861 0.434186 0.136945
H52   H     H_    0.528816 0.708005 0.396998 0.164718
H53   H     H_    0.582647 0.691879 0.432906 0.215286
O76   O     O_3   0.412690 0.706808 0.493220 -0.534923
C204  C     C_3   0.370096 0.707676 0.432580 -0.142056
H54   H     H_    0.369999 0.692319 0.400870 0.195628
H55   H     H_    0.356930 0.741923 0.417798 0.146594
H56   H     H_    0.347346 0.688161 0.429861 0.211656
N13   N     N_R   0.555136 0.867480 0.498603 0.119695
O77   O     O_R   0.597930 0.867335 0.545999 -0.315986
O78   O     O_R   0.537353 0.891665 0.451730 -0.371553
N14   N     N_R   0.444481 0.867233 0.500963 0.123780
O79   O     O_R   0.401660 0.867684 0.453775 -0.333806
O80   O     O_R   0.462771 0.891190 0.548196 -0.362284
N15   N     N_R   0.054401 0.367550 0.497133 0.119483
O81   O     O_R   0.097287 0.367536 0.543799 -0.318238
O82   O     O_R   0.035928 0.391716 0.449944 -0.370410
N16   N     N_R   0.945515 0.367382 0.502715 0.119512
O83   O     O_R   0.902632 0.367407 0.456027 -0.317350
O84   O     O_R   0.964006 0.391477 0.549930 -0.372718
N17   N     N_R   0.930046 0.867929 0.391597 0.164621
O85   O     O_R   0.927365 0.868195 0.348358 -0.270394
O86   O     O_R   0.904410 0.893640 0.387729 -0.409402
N18   N     N_R   0.069909 0.867908 0.608491 0.164600
O87   O     O_R   0.072574 0.868099 0.651716 -0.271570
O88   O     O_R   0.095566 0.893667 0.612382 -0.409489
N19   N     N_R   0.430138 0.367916 0.391542 0.164720
O89   O     O_R   0.427527 0.368125 0.348368 -0.270659
O90   O     O_R   0.404465 0.393657 0.387564 -0.409903
N20   N     N_R   0.569874 0.367910 0.608520 0.164658
O91   O     O_R   0.572496 0.368112 0.651704 -0.270297
O92   O     O_R   0.595552 0.393665 0.612450 -0.409181
O93   O     O_3   0.112172 0.793053 0.657274 -0.520657
C205  C     C_3   0.144153 0.793519 0.657088 -0.196437
H57   H     H_    0.131278 0.809800 0.615471 0.155847
H58   H     H_    0.155903 0.759587 0.661555 0.137370
H59   H     H_    0.173146 0.812878 0.696857 0.208878
O94   O     O_3   0.887791 0.793049 0.342827 -0.520167
C206  C     C_3   0.855831 0.793405 0.343053 -0.196143
H60   H     H_    0.868719 0.809640 0.384675 0.155394
H61   H     H_    0.844103 0.759442 0.338614 0.137217
H62   H     H_    0.826822 0.812750 0.303286 0.209224
O95   O     O_3   0.612118 0.293050 0.657354 -0.520358
C207  C     C_3   0.644147 0.293507 0.657259 -0.196513
H63   H     H_    0.631315 0.309782 0.615664 0.155733
H64   H     H_    0.655907 0.259573 0.661757 0.137081
H65   H     H_    0.673125 0.312867 0.697047 0.208995
O96   O     O_3   0.387854 0.293048 0.342767 -0.520293
C208  C     C_3   0.355876 0.293439 0.342958 -0.197341
H66   H     H_    0.368750 0.309701 0.384557 0.155688
H67   H     H_    0.344140 0.259484 0.338536 0.136970
H68   H     H_    0.326875 0.312776 0.303167 0.208951
O97   O     O_3   0.481170 0.081387 0.262721 -0.547310
C209  C     C_3   0.464393 0.109632 0.214793 -0.184258
H69   H     H_    0.430498 0.099403 0.171501 0.152294
H70   H     H_    0.486568 0.111243 0.209222 0.179678
H71   H     H_    0.462013 0.143455 0.225463 0.199400
O98   O     O_3   0.512830 0.082690 0.731080 -0.547355
C210  C     C_3   0.527509 0.112108 0.776838 -0.184510
H72   H     H_    0.562057 0.104390 0.820805 0.152499
H73   H     H_    0.505275 0.112114 0.782350 0.179713
H74   H     H_    0.527422 0.146005 0.763617 0.199209
O99   O     O_3   0.980907 0.581330 0.262455 -0.547191
C211  C     C_3   0.964038 0.609519 0.214434 -0.183941
H75   H     H_    0.930176 0.599182 0.171176 0.152779
H76   H     H_    0.986208 0.611200 0.208857 0.179243
H77   H     H_    0.961550 0.643335 0.224994 0.199422
O100  O     O_3   0.012222 0.582747 0.730479 -0.547170
C212  C     C_3   0.026686 0.612266 0.776026 -0.185977
H78   H     H_    0.061289 0.604796 0.820049 0.152229
H79   H     H_    0.004451 0.612110 0.781534 0.179715
H80   H     H_    0.026356 0.646163 0.762565 0.198838
N21   N     N_R   0.437643 0.938608 0.214952 0.146306
O101  O     O_R   0.414702 0.916772 0.164589 -0.291609
O102  O     O_R   0.431284 0.931333 0.248186 -0.330648
N22   N     N_R   0.566637 0.943482 0.789478 0.147601
O103  O     O_R   0.591099 0.923396 0.841414 -0.286774
O104  O     O_R   0.573532 0.936685 0.756797 -0.325554
N23   N     N_R   0.937840 0.438413 0.215152 0.146818
O105  O     O_R   0.914968 0.416502 0.164861 -0.290179
O106  O     O_R   0.931508 0.431116 0.248415 -0.327692
N24   N     N_R   0.067027 0.443925 0.789861 0.146685
O107  O     O_R   0.091633 0.424013 0.841941 -0.290155
O108  O     O_R   0.073966 0.437175 0.757224 -0.329261
O109  O     O_3   0.519018 0.917829 0.237522 -0.545261
C213  C     C_3   0.535767 0.889615 0.285468 -0.182950
H81   H     H_    0.513592 0.888060 0.291043 0.186659
H82   H     H_    0.569668 0.899830 0.328758 0.153552
H83   H     H_    0.538122 0.855768 0.274823 0.193282
O110  O     O_3   0.486993 0.916847 0.768698 -0.547420
C214  C     C_3   0.472319 0.887466 0.722906 -0.162710
H84   H     H_    0.494530 0.887517 0.717356 0.188077
H85   H     H_    0.437760 0.895173 0.678957 0.152434
H86   H     H_    0.472437 0.853547 0.736107 0.199042
O111  O     O_3   0.019281 0.417890 0.237789 -0.545458
C215  C     C_3   0.036119 0.389732 0.285826 -0.182066
H87   H     H_    0.013949 0.388108 0.291406 0.187107
H88   H     H_    0.069987 0.400056 0.329083 0.153577
H89   H     H_    0.038583 0.355893 0.275292 0.193303
O112  O     O_3   0.987571 0.416712 0.769258 -0.545086
C216  C     C_3   0.973120 0.387232 0.723679 -0.181809
H90   H     H_    0.995339 0.387449 0.718142 0.186692
H91   H     H_    0.938509 0.394690 0.679669 0.153288
H92   H     H_    0.973482 0.353311 0.737115 0.193655
N25   N     N_R   0.867553 0.061711 0.313977 0.155971
O113  O     O_R   0.899100 0.087596 0.358349 -0.305914
O114  O     O_R   0.860424 0.057529 0.266972 -0.279170
N26   N     N_R   0.132493 0.061686 0.685968 0.155949
O115  O     O_R   0.100983 0.087587 0.641575 -0.305950
O116  O     O_R   0.139584 0.057477 0.732947 -0.280255
N27   N     N_R   0.367460 0.562107 0.314262 0.157123
O117  O     O_R   0.399161 0.587818 0.358756 -0.316114
O118  O     O_R   0.359887 0.558424 0.266841 -0.279277
N28   N     N_R   0.632517 0.561495 0.686194 0.156604
O119  O     O_R   0.600994 0.587441 0.641899 -0.301026
O120  O     O_R   0.639654 0.557153 0.733199 -0.275449

loop_
_geom_bond_atom_site_label_1
_geom_bond_atom_site_label_2
_geom_bond_distance
_ccdc_geom_bond_type
C206  H62   1.109277 S    
C71   C75   1.412685 A    
C157  C161  1.412866 A    
C204  H54   1.114182 S    
C59   C63   1.413352 A    
C210  H73   1.112633 S    
C128  C200  1.466509 S    
N21   O101  1.300259 A    
C114  C118  1.400240 A    
O28   Cu7   1.946395 S    
C34   N22   1.457070 S    
C76   C80   1.421972 A    
C40   C48   1.540570 S    
C75   C95   1.408404 A    
C62   C132  1.460924 S    
C1    C113  1.460612 S    
C160  C166  1.405505 A    
O109  C213  1.408440 S    
O41   Cu10  1.971938 S    
C103  H31   1.084397 S    
C182  O94   1.382368 S    
C25   O109  1.411194 S    
C183  O95   1.382373 S    
O100  C212  1.408284 S    
C207  H64   1.112442 S    
C60   C80   1.420097 A    
C67   C71   1.390395 A    
C164  C167  1.405943 A    
Cu11  O47   1.975976 S    
C72   C76   1.412764 A    
C177  C180  1.423230 A    
C7    C19   1.434025 S    
C38   C46   1.540575 S    
N25   O113  1.300941 A    
N27   O117  1.300862 A    
C12   C28   1.556220 S    
C30   C50   1.465900 S    
C65   H9    1.085233 S    
C135  C173  1.464378 S    
N18   O88   1.300641 A    
N8    O63   1.301266 A    
O24   Cu8   1.946887 S    
C192  C198  1.398332 A    
O4    C4    1.298997 A    
C14   N2    1.457065 S    
C13   C45   1.533382 S    
C45   O97   1.411191 S    
C23   C125  1.433609 S    
C158  C161  1.413796 A    
C15   C47   1.533378 S    
C13   C29   1.541716 S    
C102  C106  1.399195 A    
C195  C199  1.400480 A    
C19   C51   1.204861 T    
C146  C148  1.423370 A    
N7    O61   1.301310 A    
O33   Cu9   1.975455 S    
C58   C62   1.413357 A    
N11   O70   1.301133 A    
C201  H45   1.110852 S    
O16   Cu4   1.947157 S    
N4    O55   1.300260 A    
C70   C74   1.412772 A    
O17   Cu5   1.975643 S    
O13   C5    1.298757 A    
O7    Cu4   1.968643 S    
C63   C133  1.460719 S    
C216  H92   1.109242 S    
C205  H58   1.112440 S    
C211  H77   1.109257 S    
C42   H6    1.110010 S    
O43   Cu12  1.971938 S    
N16   O84   1.301028 A    
C44   C48   1.556104 S    
C203  H51   1.110877 S    
C140  C142  1.407980 A    
O26   Cu5   1.946395 S    
O9    C5    1.298754 A    
C110  H22   1.084586 S    
O18   C121  1.292875 A    
C119  H27   1.084760 S    
C101  C105  1.399219 A    
N26   O116  1.301107 A    
C14   C30   1.541691 S    
C204  H56   1.109209 S    
C35   N23   1.457085 S    
O8    Cu4   1.968478 S    
C209  H70   1.112631 S    
C205  H59   1.109278 S    
C77   C105  1.424953 A    
C138  N10   1.434565 S    
C176  C182  1.422847 A    
C190  C193  1.409653 A    
C149  C155  1.393618 A    
O3    Cu2   1.970242 S    
C171  N19   1.434719 S    
C201  H47   1.109243 S    
C33   C37   1.541524 S    
C91   C95   1.414334 A    
C66   H10   1.085231 S    
C35   C39   1.541520 S    
C36   C40   1.541520 S    
O39   C133  1.285826 A    
C215  H87   1.112654 S    
C137  C144  1.411733 A    
C105  N5    1.434204 S    
C136  C174  1.464408 S    
O97   C209  1.408292 S    
C165  N15   1.436738 S    
C109  H21   1.084594 S    
C42   C46   1.556118 S    
C184  O96   1.382367 S    
C176  C179  1.423234 A    
C25   C29   1.540751 S    
C139  C142  1.406697 A    
C27   C31   1.540753 S    
C183  C185  1.397442 A    
C99   C103  1.395397 A    
C214  H85   1.111395 S    
C170  N18   1.434703 S    
C15   N3    1.457082 S    
N11   O69   1.300931 A    
C191  C197  1.398407 A    
C175  C181  1.422865 A    
O21   Cu5   1.946889 S    
N28   O119  1.300945 A    
C98   C102  1.395218 A    
O32   C128  1.297272 A    
C104  H32   1.084418 S    
C85   H17   1.083679 S    
C90   C110  1.398222 A    
C107  N7    1.434361 S    
O19   Cu7   1.975643 S    
C155  H35   1.081190 S    
C156  C160  1.396645 A    
C192  C194  1.409643 A    
C156  H36   1.081149 S    
C43   H7    1.110032 S    
C212  H78   1.111404 S    
O40   Cu12  1.970212 S    
C9    C13   1.545744 S    
C169  N17   1.434723 S    
O75   C203  1.412616 S    
C140  N12   1.434601 S    
C153  H33   1.081231 S    
N24   O108  1.300178 A    
O47   C136  1.285073 A    
N16   O83   1.301036 A    
C48   O100  1.411184 S    
N23   O106  1.300189 A    
C9    C25   1.556235 S    
C93   C97   1.406963 A    
C10   H2    1.110010 S    
C12   C16   1.545751 S    
C169  C176  1.413807 A    
C170  C175  1.413844 A    
C171  C174  1.405624 A    
O45   C135  1.285041 A    
C172  N20   1.434712 S    
C68   H12   1.085237 S    
C203  H53   1.109243 S    
C58   N26   1.436165 S    
C64   C68   1.395194 A    
C25   C33   1.533527 S    
N14   O79   1.301085 A    
N5    O58   1.301250 A    
C90   C94   1.414378 A    
O34   Cu10  1.975870 S    
C20   C52   1.204853 T    
C143  C149  1.420582 A    
C28   C36   1.533489 S    
C35   C43   1.545742 S    
O5    Cu3   1.968643 S    
C111  C115  1.400519 A    
O99   C211  1.408288 S    
C37   C53   1.465600 S    
N1    O50   1.300172 A    
C92   C112  1.398225 A    
C29   C41   1.557534 S    
C82   C86   1.393049 A    
O8    C4    1.297962 A    
C31   C51   1.465925 S    
O20   C122  1.292794 A    
C127  C199  1.466481 S    
N9    O66   1.301192 A    
C58   C78   1.420124 A    
C150  O74   1.385494 S    
O30   C127  1.297270 A    
O37   Cu9   1.970217 S    
N2    O52   1.300171 A    
O29   C127  1.297333 A    
C158  C164  1.405571 A    
C9    C37   1.557343 S    
C10   C14   1.545736 S    
O13   Cu3   1.946733 S    
C215  H89   1.109253 S    
C11   C39   1.557340 S    
O3    C3    1.299140 A    
N10   O67   1.300612 A    
C12   C40   1.557350 S    
O44   C134  1.285172 A    
O42   C132  1.285196 A    
C21   C123  1.433609 S    
C159  C162  1.413083 A    
C32   C44   1.557523 S    
C150  C156  1.393683 A    
C88   C92   1.399589 A    
N7    O62   1.301252 A    
N6    O60   1.301251 A    
C187  H39   1.084314 S    
O5    C1    1.298023 A    
Cu11  Cu12  2.653010 S    
C97   C101  1.395228 A    
C69   C81   1.402373 A    
C95   C99   1.406957 A    
N23   O105  1.300259 A    
C28   O112  1.411192 S    
C104  C108  1.399182 A    
C71   C83   1.402370 A    
C59   C79   1.419970 A    
O15   Cu4   1.946733 S    
O98   C210  1.408278 S    
N21   O102  1.300192 A    
C85   C89   1.399585 A    
C180  C193  1.413348 A    
C151  O75   1.385334 S    
Cu7   Cu8   2.683709 S    
C212  H80   1.109250 S    
N12   O72   1.301139 A    
N3    O54   1.300171 A    
C140  C145  1.411863 A    
N14   O80   1.301049 A    
C65   C69   1.390361 A    
C84   C88   1.393064 A    
C208  H68   1.109279 S    
C47   O99   1.411193 S    
N22   O103  1.300248 A    
C206  H61   1.112448 S    
C153  C157  1.397028 A    
O14   C6    1.298804 A    
C24   C126  1.433616 S    
C38   C54   1.465629 S    
C11   C27   1.556236 S    
O112  C216  1.408437 S    
C170  C173  1.405605 A    
C75   C79   1.421813 A    
O1    Cu1   1.970242 S    
O27   C125  1.296323 A    
C30   C42   1.557517 S    
C155  C159  1.396649 A    
C112  H24   1.084594 S    
O24   C126  1.296279 A    
C189  C195  1.398410 A    
C87   C91   1.399638 A    
C144  C147  1.424576 A    
C190  C196  1.398326 A    
C130  C142  1.467199 S    
C165  C168  1.405007 A    
O10   C6    1.298690 A    
C111  H23   1.084578 S    
C137  N9    1.434570 S    
C202  H50   1.109262 S    
Cu8   O32   1.976147 S    
C3    C115  1.460943 S    
C68   C72   1.390383 A    
C152  C154  1.390785 A    
C33   N21   1.457084 S    
C61   C65   1.395153 A    
Cu5   O29   1.976315 S    
C63   C67   1.395234 A    
C78   C106  1.424952 A    
C84   H16   1.083829 S    
C145  C148  1.423663 A    
O33   C129  1.286780 A    
N8    O64   1.301253 A    
O110  C214  1.408399 S    
C36   N24   1.457080 S    
C16   C48   1.533405 S    
O18   Cu6   1.975811 S    
C34   C38   1.541521 S    
N20   O91   1.300957 A    
C70   C82   1.402379 A    
O39   Cu11  1.970217 S    
C108  N8    1.434205 S    
O27   Cu8   1.946391 S    
O25   Cu6   1.946391 S    
N24   O107  1.300256 A    
N19   O89   1.300957 A    
C117  H25   1.084779 S    
N18   O87   1.300957 A    
N13   O78   1.301010 A    
C59   N27   1.436296 S    
C26   C30   1.540706 S    
C139  C146  1.411073 A    
Cu6   O30   1.976147 S    
C88   H20   1.083676 S    
C197  C200  1.400480 A    
N17   O86   1.300646 A    
C201  H46   1.114602 S    
O21   C123  1.296273 A    
C66   C70   1.390362 A    
N4    O56   1.300171 A    
C2    C114  1.460622 S    
C216  H91   1.111400 S    
C169  C173  1.405602 A    
C213  H81   1.112656 S    
C86   H18   1.083676 S    
C79   C107  1.424752 A    
O22   C124  1.296287 A    
C40   C56   1.465606 S    
O23   C125  1.296273 A    
O34   C129  1.286858 A    
C203  H52   1.114591 S    
C23   C55   1.204630 T    
C197  H43   1.084546 S    
C81   H13   1.083831 S    
C14   C46   1.533417 S    
C198  H44   1.084549 S    
C154  H34   1.081999 S    
C96   C100  1.406955 A    
C4    C116  1.460552 S    
C10   C26   1.556206 S    
C204  H55   1.112425 S    
C210  H74   1.109238 S    
C185  C189  1.392839 A    
N25   O114  1.301109 A    
C62   C66   1.395161 A    
O19   C122  1.292795 A    
O12   Cu2   1.946449 S    
O35   C130  1.287942 A    
C89   C109  1.398188 A    
C18   C50   1.204844 T    
C145  C151  1.420443 A    
C187  C191  1.392833 A    
O111  C215  1.408440 S    
C44   H8    1.110028 S    
C188  C192  1.392822 A    
O1    C1    1.298971 A    
C207  H63   1.114103 S    
C110  C114  1.400433 A    
C185  H37   1.084314 S    
C202  H48   1.110904 S    
C22   C54   1.204646 T    
C57   C61   1.413371 A    
O96   C208  1.410828 S    
C179  C194  1.413351 A    
C73   C93   1.408485 A    
Cu5   Cu6   2.683709 S    
C87   H19   1.083676 S    
C213  H83   1.109252 S    
C26   C34   1.533472 S    
C164  N14   1.436832 S    
O31   C128  1.297346 A    
C175  C179  1.423229 A    
C208  H66   1.114100 S    
C16   C32   1.541708 S    
O44   Cu11  1.971933 S    
O25   C123  1.296323 A    
C83   C87   1.393099 A    
C41   H5    1.110034 S    
O37   C131  1.285923 A    
C191  C194  1.409663 A    
C138  C143  1.411738 A    
N15   O82   1.301023 A    
C64   C134  1.460999 S    
C181  O93   1.382373 S    
C39   C47   1.540560 S    
C5    C17   1.434019 S    
C72   C84   1.402385 A    
N28   O120  1.301109 A    
C10   C38   1.557355 S    
C8    C20   1.434019 S    
C11   C15   1.545741 S    
C83   H15   1.083827 S    
C106  N6    1.434195 S    
C195  H41   1.084548 S    
O46   C135  1.284963 A    
C115  C119  1.400416 A    
Cu9   Cu10  2.653010 S    
C160  C162  1.413072 A    
O93   C205  1.410830 S    
C109  C113  1.400432 A    
O36   Cu12  1.975870 S    
C143  C147  1.424584 A    
C100  C120  1.396376 A    
C112  C116  1.400425 A    
C33   C41   1.545740 S    
O6    C2    1.297974 A    
O4    Cu2   1.970416 S    
O95   C207  1.410831 S    
O94   C206  1.410824 S    
O42   Cu9   1.971933 S    
C91   C111  1.398214 A    
C205  H57   1.114102 S    
C60   N28   1.436180 S    
C159  C165  1.405495 A    
O36   C130  1.285359 A    
C166  N16   1.436748 S    
C102  H30   1.084415 S    
C41   C45   1.556093 S    
C113  C117  1.400234 A    
C188  H40   1.084316 S    
O2    Cu1   1.970416 S    
C43   C47   1.556092 S    
O10   Cu1   1.946449 S    
Cu9   O45   1.975976 S    
N26   O115  1.300948 A    
C36   C44   1.545719 S    
N1    O49   1.300263 A    
C9    H1    1.110031 S    
C210  H72   1.111399 S    
C209  H69   1.111410 S    
C97   C117  1.396436 A    
O20   Cu8   1.975811 S    
C74   C94   1.408483 A    
C211  H76   1.112635 S    
O38   Cu10  1.970212 S    
O41   C131  1.285188 A    
N3    O53   1.300264 A    
C171  C178  1.413776 A    
O28   C126  1.296319 A    
C32   C52   1.465918 S    
C189  C193  1.409659 A    
N9    O65   1.300640 A    
O12   C8    1.298668 A    
O15   C7    1.298758 A    
N15   O81   1.301033 A    
C207  H65   1.109277 S    
C149  O73   1.385419 S    
C116  C120  1.400204 A    
C98   C118  1.396392 A    
C206  H60   1.114100 S    
C39   C55   1.465597 S    
O73   C201  1.412692 S    
O7    C3    1.298017 A    
C148  C161  1.416229 A    
C177  C183  1.422867 A    
C178  C184  1.422847 A    
C101  H29   1.084414 S    
C184  C186  1.397358 A    
C80   C108  1.424949 A    
C103  C107  1.399322 A    
Cu7   O31   1.976315 S    
N19   O90   1.300631 A    
Cu12  O48   1.975554 S    
C26   O110  1.411168 S    
C146  C152  1.418969 A    
C27   O111  1.411192 S    
O35   Cu11  1.975455 S    
C138  C141  1.406934 A    
C144  C150  1.420603 A    
C89   C93   1.414360 A    
C214  H86   1.109225 S    
C34   C42   1.545706 S    
O16   C8    1.298835 A    
C151  C153  1.393963 A    
C209  H71   1.109261 S    
C172  C177  1.413871 A    
C196  H42   1.084549 S    
C178  C180  1.423211 A    
C81   C85   1.393041 A    
C61   C131  1.460929 S    
O11   C7    1.298750 A    
C181  C187  1.397426 A    
C212  H79   1.112638 S    
C46   O98   1.411174 S    
C137  C141  1.406969 A    
O9    Cu1   1.946874 S    
C216  H90   1.112656 S    
C57   C77   1.420135 A    
C100  C104  1.395204 A    
C208  H67   1.112452 S    
N22   O104  1.300179 A    
C73   C77   1.421987 A    
C163  C167  1.405353 A    
C15   C31   1.541716 S    
C60   C64   1.413417 A    
O22   Cu6   1.946887 S    
O43   C133  1.285204 A    
O11   Cu2   1.946874 S    
C17   C49   1.204858 T    
O26   C124  1.296321 A    
C94   C98   1.406943 A    
C166  C168  1.405009 A    
C82   H14   1.083829 S    
C202  H49   1.114683 S    
O6    Cu3   1.968478 S    
O17   C121  1.293312 A    
C147  C162  1.415993 A    
C121  C167  1.459124 S    
C86   C90   1.399585 A    
C122  C168  1.458003 S    
C152  O76   1.382704 S    
C139  N11   1.435455 S    
C186  C190  1.392818 A    
O48   C136  1.284950 A    
C27   C35   1.533526 S    
C13   N1    1.457083 S    
O2    C2    1.299024 A    
Cu10  O46   1.975554 S    
N2    O51   1.300251 A    
C186  H38   1.084318 S    
C154  C158  1.397576 A    
C37   C45   1.540558 S    
N20   O92   1.300660 A    
C196  C199  1.400462 A    
C29   C49   1.465925 S    
O14   Cu3   1.947157 S    
C172  C174  1.405629 A    
C21   C53   1.204636 T    
C31   C43   1.557536 S    
C157  C163  1.405498 A    
Cu1   Cu3   2.693499 S    
N13   O77   1.301020 A    
Cu2   Cu4   2.693499 S    
O40   C134  1.285983 A    
C57   N25   1.436165 S    
C211  H75   1.111407 S    
N6    O59   1.301266 A    
C24   C56   1.204635 T    
C129  C141  1.467897 S    
C214  H84   1.112660 S    
N17   O85   1.300959 A    
C198  C200  1.400479 A    
O74   C202  1.412752 S    
C6    C18   1.433997 S    
C120  H28   1.084786 S    
O76   C204  1.411158 S    
C11   H3    1.110027 S    
C74   C78   1.422004 A    
C12   H4    1.110027 S    
C118  H26   1.084779 S    
N5    O57   1.301269 A    
C213  H82   1.111401 S    
C163  N13   1.436561 S    
C215  H88   1.111403 S    
C92   C96   1.414370 A    
N10   O68   1.301176 A    
C67   H11   1.085225 S    
O38   C132  1.285917 A    
N12   O71   1.300618 A    
N27   O118  1.301107 A    
C16   N4    1.457076 S    
C182  C188  1.397379 A    
O23   Cu7   1.946889 S    
C22   C124  1.433641 S    
C76   C96   1.408479 A    
C69   C73   1.412775 A    
C28   C32   1.540752 S    
C99   C119  1.396440 A    
