data_mof_unit_41766.cif
_audit_creation_date              2012-12-10T19:09:32-0500
_audit_creation_method            fapswitch 2.2
_symmetry_space_group_name_H-M    P1
_symmetry_Int_Tables_number       1
_space_group_crystal_system       triclinic
_cell_length_a                    15.247698
_cell_length_b                    16.229573
_cell_length_c                    9.686533
_cell_angle_alpha                 89.83776
_cell_angle_beta                  89.809136
_cell_angle_gamma                 89.748728
_cell_volume                      2397.01873455

loop_
_atom_site_label
_atom_site_type_symbol
_atom_type_description
_atom_site_fract_x
_atom_site_fract_y
_atom_site_fract_z
_atom_type_partial_charge
C1    C     C_R   0.126334 0.384888 0.500042 0.901297
C2    C     C_R   0.127728 0.613755 0.499621 0.891917
C3    C     C_R   0.626335 0.884890 0.500042 0.901295
C4    C     C_R   0.627728 0.113756 0.499621 0.891917
C5    C     C_3   0.916992 0.536539 0.081172 -0.248086
C6    C     C_3   0.918096 0.538685 0.919028 -0.246267
C7    C     C_3   0.416992 0.036539 0.081172 -0.248089
C8    C     C_3   0.418099 0.038690 0.919030 -0.246274
C9    C     C_R   0.880877 0.374884 0.499722 0.957562
C10   C     C_R   0.884185 0.627611 0.500391 0.950492
C11   C     C_R   0.380872 0.874888 0.499723 0.957561
C12   C     C_R   0.384189 0.127614 0.500391 0.950493
C13   C     C_3   0.839888 0.229861 0.597384 0.447625
C14   C     C_3   0.806333 0.260159 0.352087 0.473415
C15   C     C_3   0.834087 0.766533 0.387108 0.442771
C16   C     C_3   0.818549 0.753219 0.638265 0.443420
C17   C     C_3   0.339889 0.729863 0.597375 0.447626
C18   C     C_3   0.306321 0.760171 0.352083 0.473396
C19   C     C_3   0.334085 0.266532 0.387096 0.442766
C20   C     C_3   0.318560 0.253229 0.638256 0.443431
C21   C     C_3   0.262851 0.668527 0.616148 -0.474859
C22   C     C_3   0.248783 0.681632 0.360620 -0.492759
C23   C     C_3   0.254113 0.324650 0.371334 -0.489970
C24   C     C_3   0.252921 0.325941 0.630978 -0.497658
C25   C     C_3   0.762848 0.168527 0.616154 -0.474842
C26   C     C_3   0.748786 0.181626 0.360624 -0.492766
C27   C     C_3   0.754116 0.824652 0.371340 -0.489976
C28   C     C_3   0.752919 0.825939 0.630982 -0.497661
C29   C     C_3   0.718961 0.333391 0.540907 0.227185
C30   C     C_3   0.720928 0.664351 0.485008 0.237852
C31   C     C_3   0.218956 0.833390 0.540926 0.227201
C32   C     C_3   0.220934 0.164349 0.485023 0.237855
C33   C     C_3   0.813235 0.302737 0.497885 -0.311229
C34   C     C_3   0.816096 0.699880 0.502423 -0.276470
C35   C     C_3   0.313230 0.802741 0.497887 -0.311225
C36   C     C_3   0.316101 0.199883 0.502422 -0.276471
C37   C     C_3   0.195021 0.680648 0.498654 -0.144861
C38   C     C_3   0.193713 0.318369 0.500957 -0.127557
C39   C     C_3   0.695022 0.180647 0.498654 -0.144867
C40   C     C_3   0.693713 0.818370 0.500958 -0.127553
C41   C     C_3   0.147308 0.764651 0.515640 0.192884
C42   C     C_3   0.147729 0.233390 0.504228 0.197792
C43   C     C_3   0.647311 0.264653 0.515631 0.192867
C44   C     C_3   0.647726 0.733393 0.504224 0.197815
C45   C     C_3   0.006860 0.415084 0.081826 0.418519
C46   C     C_3   0.004753 0.415068 0.919331 0.442287
C47   C     C_3   0.075195 0.545319 0.918943 0.416901
C48   C     C_3   0.073772 0.547245 0.081188 0.424471
C49   C     C_3   0.506859 0.915084 0.081827 0.418513
C50   C     C_3   0.504749 0.915068 0.919333 0.442297
C51   C     C_3   0.575198 0.045315 0.918944 0.416901
C52   C     C_3   0.573773 0.047244 0.081188 0.424476
H1    H     H_    0.895457 0.195333 0.550931 0.104848
H2    H     H_    0.870919 0.240523 0.315644 0.162262
H3    H     H_    0.888925 0.806196 0.420127 0.104152
H4    H     H_    0.881898 0.782619 0.646908 0.120275
H5    H     H_    0.395457 0.695337 0.550913 0.104851
H6    H     H_    0.370907 0.740546 0.315622 0.162291
H7    H     H_    0.388924 0.306196 0.420102 0.104156
H8    H     H_    0.381905 0.282638 0.646877 0.120261
H9    H     H_    0.288902 0.604343 0.615306 0.159467
H10   H     H_    0.291682 0.625943 0.356826 0.143673
H11   H     H_    0.277484 0.389097 0.357757 0.164473
H12   H     H_    0.289262 0.385312 0.625128 0.144624
H13   H     H_    0.788898 0.104344 0.615318 0.159465
H14   H     H_    0.791679 0.125932 0.356833 0.143674
H15   H     H_    0.777488 0.889099 0.357766 0.164475
H16   H     H_    0.789268 0.885305 0.625130 0.144621
H17   H     H_    0.230884 0.678025 0.718236 0.291770
H18   H     H_    0.207286 0.677566 0.267201 0.306505
H19   H     H_    0.217116 0.308718 0.276500 0.259065
H20   H     H_    0.214804 0.328969 0.728625 0.256872
H21   H     H_    0.730879 0.178028 0.718240 0.291780
H22   H     H_    0.707289 0.177564 0.267204 0.306507
H23   H     H_    0.717122 0.808722 0.276503 0.259062
H24   H     H_    0.714802 0.828973 0.728628 0.256868
H25   H     H_    0.069734 0.386993 0.116604 0.041524
H26   H     H_    0.065380 0.384637 0.880533 0.048422
H27   H     H_    0.137205 0.515876 0.882851 0.008897
H28   H     H_    0.136331 0.521167 0.121392 0.013334
H29   H     H_    0.569734 0.886994 0.116602 0.041521
H30   H     H_    0.565373 0.884634 0.880533 0.048428
H31   H     H_    0.637205 0.015867 0.882857 0.008885
H32   H     H_    0.636330 0.021166 0.121395 0.013342
H33   H     H_    0.859284 0.500933 0.117933 0.253606
H34   H     H_    0.859146 0.507153 0.878393 0.243315
H35   H     H_    0.913183 0.603696 0.883618 0.284494
H36   H     H_    0.908194 0.600277 0.120222 0.286211
H37   H     H_    0.359285 0.000932 0.117927 0.253609
H38   H     H_    0.359147 0.007164 0.878389 0.243312
H39   H     H_    0.413193 0.103702 0.883626 0.284504
H40   H     H_    0.408192 0.100276 0.120227 0.286214
N1    N     N_3   0.998760 0.500000 0.138610 -0.220135
N2    N     N_3   0.998760 0.500000 0.861390 -0.226347
N3    N     N_3   0.498760 0.000000 0.138610 -0.220134
N4    N     N_3   0.498760 0.000000 0.861390 -0.226346
O1    O     O_R   0.092530 0.407440 0.616040 -0.641823
O2    O     O_R   0.092530 0.407440 0.383960 -0.641595
O3    O     O_R   0.092530 0.592560 0.383960 -0.579447
O4    O     O_R   0.092530 0.592560 0.616040 -0.571825
O5    O     O_R   0.592530 0.907440 0.616040 -0.641823
O6    O     O_R   0.592530 0.907440 0.383960 -0.641589
O7    O     O_R   0.592530 0.092560 0.383960 -0.579455
O8    O     O_R   0.592530 0.092560 0.616040 -0.571818
O9    O     O_R   0.907330 0.407420 0.616040 -0.510663
O10   O     O_R   0.907330 0.407420 0.383960 -0.529160
O11   O     O_R   0.907330 0.592580 0.383960 -0.556812
O12   O     O_R   0.907330 0.592580 0.616040 -0.579484
O13   O     O_R   0.407330 0.907420 0.616040 -0.510660
O14   O     O_R   0.407330 0.907420 0.383960 -0.529165
O15   O     O_R   0.407330 0.092580 0.383960 -0.556817
O16   O     O_R   0.407330 0.092580 0.616040 -0.579475
Zn1   Zn    Zn3+2 0.999890 0.500000 0.654960 1.063645
Zn2   Zn    Zn3+2 0.999890 0.500000 0.345040 1.064691
Zn3   Zn    Zn3+2 0.499890 0.000000 0.654960 1.063650
Zn4   Zn    Zn3+2 0.499890 1.000000 0.345040 1.064688
F1    F     F_    0.867700 0.255363 0.725410 -0.520041
F2    F     F_    0.775391 0.312074 0.249687 -0.525016
F3    F     F_    0.858907 0.734788 0.260381 -0.587477
F4    F     F_    0.807822 0.709371 0.759592 -0.601065
F5    F     F_    0.367704 0.755361 0.725401 -0.520051
F6    F     F_    0.275363 0.812092 0.249703 -0.525037
F7    F     F_    0.358899 0.234783 0.260369 -0.587480
F8    F     F_    0.307851 0.209386 0.759592 -0.601062
I1    I     I_    0.727448 0.375613 0.758728 0.027456
I2    I     I_    0.681178 0.432702 0.415066 -0.119460
I3    I     I_    0.719645 0.613967 0.270482 -0.126626
I4    I     I_    0.705162 0.575874 0.651856 -0.134810
I5    I     I_    0.227448 0.875605 0.758749 0.027477
I6    I     I_    0.181150 0.932708 0.415130 -0.119490
I7    I     I_    0.219650 0.113951 0.270504 -0.126606
I8    I     I_    0.205182 0.075883 0.651901 -0.134807
I9    I     I_    0.050634 0.767943 0.678911 -0.147452
I10   I     I_    0.059124 0.775782 0.333435 -0.042087
I11   I     I_    0.044174 0.225084 0.351883 -0.260358
I12   I     I_    0.064680 0.227992 0.692171 -0.101431
I13   I     I_    0.550638 0.267944 0.678905 -0.147434
I14   I     I_    0.559125 0.275782 0.333431 -0.042127
I15   I     I_    0.544165 0.725088 0.351888 -0.260366
I16   I     I_    0.564681 0.727994 0.692175 -0.101401
F9    F     F_    0.940478 0.365546 0.132560 -0.517005
F10   F     F_    0.934898 0.368524 0.874949 -0.482337
F11   F     F_    0.075902 0.625185 0.870961 -0.547553
F12   F     F_    0.069163 0.628131 0.125030 -0.540250
F13   F     F_    0.440479 0.865546 0.132564 -0.517031
F14   F     F_    0.434891 0.868528 0.874954 -0.482345
F15   F     F_    0.575912 0.125180 0.870958 -0.547554
F16   F     F_    0.569163 0.128130 0.125026 -0.540251

loop_
_geom_bond_atom_site_label_1
_geom_bond_atom_site_label_2
_ccdc_geom_bond_type
C16   C28   S    
C9    C33   S    
C29   I1    S    
C11   O13   A    
C10   O12   A    
C6    N2    S    
C8    N4    S    
C47   H27   S    
C13   C25   S    
C14   C33   S    
C41   I9    S    
C7    C8    S    
C46   F10   S    
C45   C46   S    
C19   F7    S    
C43   I14   S    
C32   C36   S    
O9    Zn1   S    
C28   H16   S    
C38   C42   S    
C31   I6    S    
C19   C36   S    
C16   F4    S    
C5    C6    S    
C26   C39   S    
O2    Zn2   S    
C28   C40   S    
C9    O9    A    
C7    H37   S    
C4    O7    A    
C47   F11   S    
C48   F12   S    
C52   N3    S    
C42   I12   S    
C49   H29   S    
C52   H32   S    
C16   C34   S    
C5    H36   S    
C18   H6    S    
C20   C24   S    
C29   C33   S    
C14   F2    S    
C24   C38   S    
N4    Zn3   S    
C43   I13   S    
O15   Zn4   S    
C12   C36   S    
C18   C35   S    
C27   C40   S    
C15   C34   S    
C21   H9    S    
C51   N4    S    
C5    H33   S    
C3    O5    A    
C23   H11   S    
C2    O4    A    
C24   H12   S    
C29   I2    S    
C29   C43   S    
C11   O14   A    
C45   F9    S    
C30   C44   S    
C10   O11   A    
O3    Zn2   S    
C27   H23   S    
C41   I10   S    
N2    Zn1   S    
C13   H1    S    
C30   I4    S    
C12   O16   A    
C48   N1    S    
C30   C34   S    
C51   C52   S    
C26   H14   S    
C50   H30   S    
C23   H19   S    
C25   H13   S    
C1    O1    A    
C46   H26   S    
C39   C43   S    
C19   H7    S    
C9    O10   A    
C22   C37   S    
C14   C26   S    
C6    H35   S    
C21   H17   S    
C42   I11   S    
C15   H3    S    
O12   Zn1   S    
C19   C23   S    
C16   H4    S    
O11   Zn2   S    
C13   C33   S    
C22   H10   S    
O8    Zn3   S    
C15   C27   S    
C47   C48   S    
C46   N2    S    
C4    C39   S    
C51   F15   S    
N3    Zn4   S    
C49   F13   S    
C10   C34   S    
C8    H39   S    
C49   N3    S    
C1    C38   S    
C18   F6    S    
C3    O6    A    
C17   F5    S    
C14   H2    S    
O10   Zn2   S    
C45   N1    S    
C44   I15   S    
O5    Zn3   S    
C31   C35   S    
C20   H8    S    
O1    Zn1   S    
C28   H24   S    
C51   H31   S    
C32   I8    S    
C24   H20   S    
O14   Zn4   S    
C30   I3    S    
C44   I16   S    
C31   C41   S    
C18   C22   S    
O4    Zn1   S    
C1    O2    A    
C3    C40   S    
C8    H38   S    
C5    N1    S    
C23   C38   S    
C7    N3    S    
C6    H34   S    
C48   H28   S    
C11   C35   S    
C2    O3    A    
C31   I5    S    
C25   C39   S    
C2    C37   S    
C50   F14   S    
C7    H40   S    
C4    O8    A    
C26   H22   S    
C47   N2    S    
C15   F3    S    
O7    Zn4   S    
C25   H21   S    
N1    Zn2   S    
O16   Zn3   S    
C37   C41   S    
C17   C21   S    
C20   F8    S    
O6    Zn4   S    
O13   Zn3   S    
C20   C36   S    
C40   C44   S    
C21   C37   S    
C27   H15   S    
C52   F16   S    
C49   C50   S    
C50   N4    S    
C13   F1    S    
C32   C42   S    
C45   H25   S    
C17   C35   S    
C22   H18   S    
C12   O15   A    
C32   I7    S    
C17   H5    S    
