data_mof_unit_66220.cif
_audit_creation_date              2013-03-05T16:20:57-0500
_audit_creation_method            fapswitch 2.2
_symmetry_space_group_name_H-M    P1
_symmetry_Int_Tables_number       1
_space_group_crystal_system       triclinic
_cell_length_a                    14.984318
_cell_length_b                    15.784988
_cell_length_c                    16.748243
_cell_angle_alpha                 89.874366
_cell_angle_beta                  83.66003
_cell_angle_gamma                 89.469092
_cell_volume                      3937.01722892

loop_
_atom_site_label
_atom_site_type_symbol
_atom_site_description
_atom_site_fract_x
_atom_site_fract_y
_atom_site_fract_z
_atom_type_partial_charge
O1    O     O_R   0.425740 0.622790 0.499920 -0.590092
O2    O     O_R   0.574190 0.622930 0.500090 -0.581714
C1    C     C_R   0.499559 0.662026 0.500051 0.926502
O3    O     O_R   0.417000 0.499930 0.615710 -0.602164
O4    O     O_R   0.565450 0.500080 0.615870 -0.574238
C2    C     C_R   0.486406 0.500975 0.653744 0.959777
Zn1   Zn    Zn3+2 0.400880 0.499910 0.499890 1.069903
Zn2   Zn    Zn3+2 0.599120 0.500090 0.500110 1.083273
O5    O     O_R   0.425810 0.377070 0.499910 -0.608011
O6    O     O_R   0.574260 0.377210 0.500080 -0.608624
O7    O     O_R   0.434550 0.499920 0.384130 -0.619001
O8    O     O_R   0.583000 0.500070 0.384290 -0.613588
C3    C     C_R   0.500422 0.337986 0.500020 0.881131
C4    C     C_R   0.513756 0.495943 0.346236 0.924006
C5    C     C_R   0.475116 0.495573 0.740871 -0.252395
C6    C     C_R   0.538579 0.530981 0.786509 0.212847
C7    C     C_R   0.530929 0.516533 0.869412 0.202718
C8    C     C_R   0.461559 0.463887 0.905166 -0.127570
C9    C     C_R   0.395216 0.432397 0.859916 0.321089
C10   C     C_R   0.402486 0.449694 0.777949 -0.235370
C11   C     C_R   0.463344 0.391479 0.157419 -0.139216
C12   C     C_R   0.455944 0.420851 0.235413 -0.222005
C13   C     C_R   0.604843 0.482602 0.211231 0.353952
C14   C     C_R   0.611717 0.454305 0.131366 0.306259
C15   C     C_R   0.538515 0.411706 0.103998 -0.021174
C16   C     C_2   0.459138 0.442944 0.990040 -0.057825
C17   C     C_2   0.530634 0.406836 0.018031 -0.080352
C18   C     C_R   0.524723 0.468942 0.262369 -0.173587
H1    H     H_    0.395629 0.406164 0.274638 0.198931
H2    H     H_    0.588393 0.388765 0.976481 0.214948
H3    H     H_    0.407467 0.357676 0.137001 0.206118
H4    H     H_    0.353884 0.422930 0.742003 0.233735
H5    H     H_    0.401177 0.463990 0.030091 0.191390
C19   C     C_3   0.399850 0.953048 0.500670 0.143266
C20   C     C_3   0.559903 0.949368 0.421938 0.196898
C21   C     C_3   0.569380 0.047760 0.427712 0.164219
H6    H     H_    0.628736 0.921513 0.422773 0.097146
H7    H     H_    0.637190 0.057979 0.446662 0.092132
C22   C     C_1   0.501169 0.249479 0.499191 -0.061024
C23   C     C_3   0.498538 0.916963 0.497849 -0.206634
C24   C     C_3   0.401414 0.050942 0.484749 0.474825
C25   C     C_3   0.499227 0.083097 0.496998 -0.251245
C26   C     C_3   0.527456 0.048205 0.579023 0.128451
C27   C     C_3   0.542097 0.950308 0.572841 -0.068915
C28   C     C_1   0.500780 0.174470 0.498206 0.124890
C29   C     C_1   0.498532 0.825598 0.498737 0.087467
C30   C     C_1   0.498798 0.750563 0.499451 -0.061364
H8    H     H_    0.615550 0.936785 0.561450 0.162616
H9    H     H_    0.472922 0.061715 0.627113 0.261658
H10   H     H_    0.368779 0.943115 0.562896 0.175791
C31   C     C_3   0.947806 0.594325 0.492327 -0.067764
C32   C     C_3   0.957660 0.446274 0.432708 0.169070
C33   C     C_3   0.062873 0.456672 0.426004 0.115700
H11   H     H_    0.085090 0.624925 0.446838 0.241595
H12   H     H_    0.942826 0.611881 0.428837 0.166031
H13   H     H_    0.944058 0.378566 0.447416 0.221077
H14   H     H_    0.094541 0.392305 0.420940 0.190713
N1    N     N_1   0.268730 0.501370 0.501580 -0.076613
C34   C     C_3   0.909213 0.501430 0.503636 -0.256502
C35   C     C_3   0.051852 0.594211 0.502047 0.155678
C36   C     C_3   0.089849 0.501083 0.503847 -0.164180
C37   C     C_3   0.044453 0.448683 0.578634 0.462879
C38   C     C_3   0.936759 0.459568 0.584367 0.625790
C39   C     C_1   0.190654 0.501341 0.502409 0.359550
C40   C     C_1   0.808981 0.499607 0.500232 0.349404
N2    N     N_1   0.731270 0.498640 0.498400 -0.072993
N3    N     N_R   0.607214 0.585601 0.749583 0.253430
O9    O     O_R   0.584969 0.656513 0.716996 -0.289073
O10   O     O_R   0.689634 0.558123 0.736427 -0.237069
N4    N     N_R   0.691431 0.471553 0.078045 0.245902
O11   O     O_R   0.731049 0.411133 0.034426 -0.310406
O12   O     O_R   0.729711 0.545170 0.078757 -0.197806
O13   O     O_3   0.383857 0.066008 0.404972 -0.599834
H15   H     H_    0.386063 0.128062 0.395201 0.364923
N5    N     N_R   0.342181 0.906569 0.450076 0.269124
O14   O     O_R   0.273386 0.865267 0.484137 -0.292465
O15   O     O_R   0.357040 0.906164 0.372104 -0.197324
O16   O     O_3   0.527769 0.924123 0.350185 -0.577738
H16   H     H_    0.546860 0.864322 0.340205 0.356713
N6    N     N_R   0.570428 0.094081 0.350780 0.257339
O17   O     O_R   0.627113 0.155570 0.335710 -0.361427
O18   O     O_R   0.520482 0.073019 0.295311 -0.202023
N7    N     N_R   0.510119 0.907035 0.648525 0.258381
O19   O     O_R   0.429817 0.920145 0.684726 -0.304923
O20   O     O_R   0.565095 0.858278 0.682890 -0.240352
N8    N     N_R   0.330196 0.093940 0.539323 0.192551
O21   O     O_R   0.321505 0.080748 0.616494 -0.342813
O22   O     O_R   0.270030 0.141267 0.509976 -0.282438
O23   O     O_3   0.602880 0.089938 0.603419 -0.673595
H17   H     H_    0.658129 0.069001 0.571422 0.357044
O24   O     O_3   0.922212 0.459274 0.358964 -0.706797
H18   H     H_    0.935986 0.517425 0.339684 0.386904
O25   O     O_3   0.095383 0.502941 0.357037 -0.751230
H19   H     H_    0.097676 0.463547 0.310692 0.388358
O26   O     O_3   0.902193 0.506024 0.652961 -0.630831
H20   H     H_    0.926396 0.563669 0.649157 0.376686
O27   O     O_3   0.675511 0.525505 0.237410 -0.670601
H21   H     H_    0.702312 0.486491 0.274837 0.364252
O28   O     O_3   0.897951 0.378279 0.592419 -0.719719
H22   H     H_    0.833061 0.384989 0.611214 0.382986
N9    N     N_R   0.082780 0.471117 0.654149 0.242782
O29   O     O_R   0.068914 0.544101 0.689171 -0.306611
O30   O     O_R   0.138351 0.418980 0.683963 -0.283647
N10   N     N_R   0.896399 0.662298 0.537715 0.211256
O31   O     O_R   0.821589 0.647962 0.582762 -0.297807
O32   O     O_R   0.918965 0.740639 0.522712 -0.281599
O33   O     O_3   0.079004 0.643607 0.564990 -0.648907
H23   H     H_    0.027244 0.659001 0.603932 0.406403
O34   O     O_3   0.066534 0.362424 0.562292 -0.739201
H24   H     H_    0.045456 0.328023 0.610322 0.427479
N11   N     N_R   0.322163 0.380798 0.895058 0.234433
O35   O     O_R   0.333415 0.327593 0.952638 -0.328929
O36   O     O_R   0.246478 0.380236 0.863680 -0.261236
N12   N     N_R   0.590243 0.558794 0.917975 0.232616
O37   O     O_R   0.676854 0.552985 0.900720 -0.223935
O38   O     O_R   0.557599 0.602787 0.980245 -0.308497

loop_
_geom_bond_atom_site_label_1
_geom_bond_atom_site_label_2
_geom_bond_distance
_ccdc_geom_bond_type
Zn2   N2    1.977141 S    
O25   H19   0.993075 S    
C12   H1    1.083610 S    
O13   H15   0.992997 S    
C21   C25   1.576474 S    
O26   H20   0.982000 S    
C8    C16   1.455323 S    
N5    O14   1.301551 A    
C27   N7    1.473451 S    
N10   O32   1.301649 A    
N12   O37   1.300507 A    
C14   N4    1.437972 S    
H11   C35   1.113046 S    
Zn1   O7    1.948683 S    
C24   N8    1.486196 S    
C11   H3    1.083974 S    
C16   C17   1.338216 D    
N9    O29   1.298478 A    
C19   C23   1.575600 S    
C20   H6    1.118967 S    
O4    C2    1.280318 A    
O7    C4    1.283652 A    
N8    O22   1.302384 A    
C5    C6    1.404702 A    
C38   O26   1.411054 S    
C8    C9    1.409569 A    
C24   C25   1.590134 S    
O5    C3    1.272107 A    
C38   O28   1.413700 S    
C2    C5    1.452735 S    
C33   C36   1.574879 S    
N7    O19   1.301189 A    
C6    C7    1.398916 A    
C13   C14   1.403794 A    
N4    O11   1.300950 A    
Zn1   N1    1.977175 S    
C19   N5    1.476206 S    
C22   C28   1.184257 T    
C37   N9    1.490274 S    
N9    O30   1.302824 A    
C12   C18   1.400350 A    
C11   C12   1.379596 A    
C17   H2    1.085335 S    
C19   C24   1.567464 S    
O3    Zn1   1.981056 S    
N10   O31   1.301594 A    
C7    N12   1.438564 S    
O27   H21   0.991343 S    
N1    C39   1.168466 T    
C5    C10   1.399247 A    
C19   H10   1.104964 S    
C33   O25   1.408383 S    
N3    O9    1.300951 A    
C14   C15   1.411193 A    
N6    O18   1.301255 A    
C21   N6    1.478732 S    
O24   H18   0.988402 S    
C33   H14   1.116788 S    
N8    O21   1.301153 A    
C26   H9    1.101858 S    
C31   N10   1.476956 S    
C35   C36   1.572930 S    
O1    C1    1.272922 A    
C20   C21   1.565092 S    
C36   C39   1.508066 S    
C23   C29   1.442239 S    
C26   C27   1.560846 S    
C37   C38   1.613556 S    
C32   C34   1.580676 S    
C16   H5    1.087004 S    
O28   H22   0.993169 S    
Zn2   O8    1.981056 S    
C7    C8    1.416343 A    
N11   O36   1.301640 A    
C6    N3    1.434291 S    
C26   O23   1.412510 S    
C13   C18   1.413590 A    
N5    O15   1.300308 A    
C35   O33   1.410325 S    
O3    C2    1.278403 A    
N7    O20   1.301237 A    
O8    C4    1.278469 A    
C31   C34   1.584541 S    
C25   C26   1.578042 S    
O33   H23   0.985626 S    
C32   C33   1.578187 S    
C10   H4    1.083952 S    
Zn1   O5    1.971287 S    
C11   C15   1.397870 A    
C29   C30   1.184440 T    
N11   O35   1.301336 A    
C13   O27   1.374520 S    
O1    Zn1   1.978505 S    
O2    Zn2   1.971288 S    
N6    O17   1.301566 A    
O6    C3    1.272960 A    
O4    Zn2   1.948682 S    
N12   O38   1.301310 A    
C9    N11   1.442291 S    
C15   C17   1.459833 S    
C20   O16   1.402928 S    
C34   C38   1.596713 S    
C4    C18   1.460140 S    
C9    C10   1.391715 A    
C21   H7    1.110705 S    
C20   C23   1.572016 S    
O34   H24   0.993406 S    
C34   C40   1.509809 S    
O16   H16   0.992949 S    
C37   O34   1.418316 S    
C1    C30   1.397518 S    
O2    C1    1.272326 A    
C31   H12   1.108572 S    
C36   C37   1.591689 S    
C3    C22   1.397098 S    
C24   O13   1.409283 S    
C27   H8    1.114813 S    
C23   C27   1.571910 S    
Zn2   O6    1.978504 S    
C40   N2    1.168472 T    
C32   O24   1.411168 S    
N4    O12   1.301316 A    
C31   C35   1.585293 S    
N3    O10   1.300881 A    
O23   H17   0.989698 S    
C25   C28   1.442938 S    
C32   H13   1.111892 S    
