data_mof_unit_54751.cif
_audit_creation_date              2012-12-10T17:23:12-0500
_audit_creation_method            fapswitch 2.2
_symmetry_space_group_name_H-M    P1
_symmetry_Int_Tables_number       1
_space_group_crystal_system       triclinic
_cell_length_a                    15.865579
_cell_length_b                    10.844386
_cell_length_c                    9.588256
_cell_angle_alpha                 90.587454
_cell_angle_beta                  89.997186
_cell_angle_gamma                 92.52148
_cell_volume                      1647.99907378

loop_
_atom_site_label
_atom_site_type_symbol
_atom_type_description
_atom_site_fract_x
_atom_site_fract_y
_atom_site_fract_z
_atom_type_partial_charge
C1    C     C_R   0.506421 0.262645 0.499309 0.880567
C2    C     C_3   0.082872 0.500832 0.500276 0.125830
C3    C     C_3   0.975225 0.597035 0.578888 -0.216118
C4    C     C_3   0.917156 0.502984 0.499531 0.157976
C5    C     C_3   0.032023 0.608558 0.447390 -0.133446
C6    C     C_3   0.972609 0.514289 0.368149 -0.211495
C7    C     C_1   0.174567 0.500384 0.500177 -0.046476
C8    C     C_1   0.825423 0.502127 0.499889 -0.008199
C9    C     C_R   0.566463 0.115021 0.743651 0.460031
C10   C     C_R   0.556420 0.056295 0.873120 -0.345676
C11   C     C_R   0.504650 0.950044 0.884438 -0.184248
C12   C     C_R   0.339901 0.499647 0.499989 0.807722
C13   C     C_R   0.469703 0.893205 0.765488 0.448897
C14   C     C_R   0.491665 0.940727 0.631590 -0.106954
C15   C     C_R   0.524378 0.063217 0.624425 -0.052228
C16   C     C_R   0.513452 0.127783 0.497842 -0.113925
C17   C     C_R   0.495907 0.060857 0.373045 0.390967
C18   C     C_R   0.487335 0.932739 0.377652 -0.294391
C19   C     C_R   0.486002 0.871437 0.505119 -0.146296
C20   C     C_R   0.611397 0.665506 0.145702 -0.147109
C21   C     C_R   0.665029 0.747236 0.074191 -0.216765
C22   C     C_R   0.664927 0.747176 0.930532 -0.207737
C23   C     C_R   0.493443 0.737137 0.501393 0.794562
C24   C     C_R   0.611067 0.665559 0.857508 -0.112276
C25   C     C_R   0.554505 0.581568 0.926003 0.231859
C26   C     C_R   0.554569 0.581515 0.075647 0.199005
C27   C     C_R   0.448417 0.422016 0.073015 -0.027220
C28   C     C_R   0.448460 0.422024 0.925062 -0.041351
C29   C     C_R   0.660085 0.500466 0.500034 0.817975
C30   C     C_3   0.969221 0.398003 0.551074 0.459950
C31   C     C_3   0.025152 0.406413 0.420497 -0.221997
C32   C     C_1   0.250144 0.500010 0.500060 -0.171641
C33   C     C_1   0.749832 0.501317 0.500035 -0.145446
C34   C     C_3   0.027794 0.489562 0.632267 -0.219976
Cu1   Cu    Cu3+1 0.499990 0.499990 0.640660 0.974866
Cu2   Cu    Cu3+1 0.500010 0.500010 0.359340 0.962307
H1    H     H_    0.046261 0.327123 0.357386 0.142812
H2    H     H_    0.480942 0.881055 0.280608 0.164342
H3    H     H_    0.617822 0.672291 0.255614 0.198965
H4    H     H_    0.707354 0.810699 0.130997 0.158640
H5    H     H_    0.406253 0.358049 0.869013 0.135221
N1    N     N_R   0.500800 0.501210 0.147910 -0.200551
N2    N     N_R   0.500830 0.501290 0.852040 -0.187153
O1    O     O_R   0.499990 0.319640 0.618810 -0.561607
O2    O     O_R   0.500000 0.319660 0.381240 -0.526401
O3    O     O_R   0.379070 0.499980 0.618770 -0.570342
O4    O     O_R   0.379080 0.500000 0.381190 -0.577737
O5    O     O_R   0.500000 0.680340 0.618760 -0.574398
O6    O     O_R   0.500010 0.680360 0.381190 -0.608391
O7    O     O_R   0.620920 0.500000 0.618810 -0.577329
O8    O     O_R   0.620930 0.500020 0.381230 -0.599125
H6    H     H_    0.491857 0.910904 0.986078 0.166269
O9    O     O_3   0.408792 0.800247 0.785250 -0.710507
H7    H     H_    0.373698 0.792551 0.699754 0.319891
H8    H     H_    0.406155 0.358085 0.127545 0.156110
H9    H     H_    0.706992 0.810803 0.874905 0.158901
H10   H     H_    0.616682 0.672774 0.747685 0.188597
O10   O     O_3   0.934000 0.288175 0.605170 -0.719853
H11   H     H_    0.982654 0.238328 0.629641 0.312633
H12   H     H_    0.948872 0.525146 0.260251 0.151423
H13   H     H_    0.059553 0.696014 0.404320 0.141835
H14   H     H_    0.953615 0.675402 0.642983 0.148856
H15   H     H_    0.051036 0.477452 0.740256 0.143633
O11   O     O_3   0.489351 0.121265 0.247420 -0.727055
H16   H     H_    0.472753 0.061035 0.172917 0.311342
O12   O     O_3   0.622579 0.215247 0.729264 -0.704690
H17   H     H_    0.646189 0.238924 0.822001 0.327075
H18   H     H_    0.586771 0.094755 0.965932 0.177046

loop_
_geom_bond_atom_site_label_1
_geom_bond_atom_site_label_2
_ccdc_geom_bond_type
C19   C23   S    
C24   C25   A    
C23   O5    A    
C10   H18   S    
C9    O12   S    
C21   H4    S    
Cu1   N2    S    
C9    C10   A    
C24   H10   S    
C28   N2    A    
Cu2   N1    S    
C2    C7    S    
C3    C34   S    
C4    C8    S    
C6    H12   S    
O11   H16   S    
C25   N2    A    
Cu1   O7    S    
O12   H17   S    
C18   H2    S    
C5    H13   S    
Cu2   O2    S    
C1    C16   S    
O9    H7    S    
C12   C32   S    
Cu1   O1    S    
C11   C13   A    
C27   N1    A    
C1    O2    A    
C30   C31   S    
Cu2   O8    S    
C20   C26   A    
C12   O4    A    
Cu1   O5    S    
C30   O10   S    
C4    C6    S    
C34   H15   S    
C25   C26   A    
C17   C18   A    
C13   O9    S    
C29   O7    A    
C17   O11   S    
C9    C15   A    
C5    C6    S    
C7    C32   T    
C22   C24   A    
C23   O6    A    
C2    C5    S    
C16   C17   A    
C10   C11   A    
C27   H8    S    
C15   C16   A    
C6    C31   S    
C29   C33   S    
C28   H5    S    
C20   C21   A    
C26   N1    A    
Cu2   O4    S    
C12   O3    A    
C18   C19   A    
C29   O8    A    
C3    H14   S    
C27   C28   A    
C20   H3    S    
C30   C34   S    
C14   C15   A    
C2    C31   S    
C22   H9    S    
C11   H6    S    
C1    O1    A    
C13   C14   A    
C2    C34   S    
C21   C22   A    
O10   H11   S    
C14   C19   A    
C4    C30   S    
Cu2   O6    S    
C3    C4    S    
C31   H1    S    
C8    C33   T    
C3    C5    S    
Cu1   Cu2   S    
Cu1   O3    S    
