data_mof_unit_46266.cif
_audit_creation_date              2012-12-10T17:41:00-0500
_audit_creation_method            fapswitch 2.2
_symmetry_space_group_name_H-M    P1
_symmetry_Int_Tables_number       1
_space_group_crystal_system       triclinic
_cell_length_a                    15.032953
_cell_length_b                    13.832709
_cell_length_c                    11.678203
_cell_angle_alpha                 90.000115
_cell_angle_beta                  87.887215
_cell_angle_gamma                 89.999989
_cell_volume                      2426.79014963

loop_
_atom_site_label
_atom_site_type_symbol
_atom_type_description
_atom_site_fract_x
_atom_site_fract_y
_atom_site_fract_z
_atom_type_partial_charge
C1    C     C_R   0.329348 0.500000 0.501004 0.805948
C2    C     C_R   0.670652 0.500000 0.498996 0.805947
C3    C     C_R   0.909578 0.499998 0.392385 0.122722
C4    C     C_R   0.090422 0.500001 0.607614 0.122724
C5    C     C_R   0.945633 0.500002 0.707692 -0.248744
C6    C     C_R   0.054367 0.499998 0.292308 -0.248743
C7    C     C_R   0.038065 0.500002 0.711163 0.155663
C8    C     C_R   0.961936 0.499998 0.288837 0.155664
C9    C     C_R   0.452148 0.795823 0.582934 0.290461
C10   C     C_R   0.547854 0.204177 0.417068 0.290459
C11   C     C_R   0.547853 0.795822 0.417067 0.290455
C12   C     C_R   0.452146 0.204177 0.582931 0.290457
C13   C     C_R   0.531729 0.897132 0.403230 -0.031057
C14   C     C_R   0.468272 0.102868 0.596769 -0.031060
C15   C     C_R   0.468274 0.897133 0.596770 -0.031062
C16   C     C_R   0.531729 0.102867 0.403231 -0.031058
C17   C     C_R   0.500001 0.948731 0.500000 -0.059720
C18   C     C_R   0.500001 0.051270 0.500000 -0.059721
C19   C     C_R   0.546087 0.948341 0.298106 0.174105
C20   C     C_R   0.453915 0.051659 0.701894 0.174105
C21   C     C_R   0.453917 0.948343 0.701895 0.174104
C22   C     C_R   0.546087 0.051657 0.298106 0.174107
C23   C     C_R   0.500281 0.500000 0.284108 0.800208
C24   C     C_R   0.499719 0.500000 0.715892 0.800211
C25   C     C_1   0.500237 0.500000 0.162436 -0.195335
C26   C     C_1   0.499763 0.500000 0.837564 -0.195339
C27   C     C_1   0.500103 0.500000 0.059898 0.008721
C28   C     C_1   0.499897 0.500000 0.940102 0.008720
C29   C     C_R   0.815498 0.499998 0.393344 0.080159
C30   C     C_R   0.184502 0.500002 0.606656 0.080158
C31   C     C_R   0.766922 0.500000 0.498464 -0.168603
C32   C     C_R   0.233078 0.500000 0.501536 -0.168605
C33   C     C_R   0.809369 0.500001 0.603185 0.079882
C34   C     C_R   0.190631 0.499999 0.396815 0.079882
C35   C     C_R   0.902455 0.500001 0.603596 0.106833
C36   C     C_R   0.097545 0.499999 0.396404 0.106833
C37   C     C_R   0.952963 0.500000 0.498911 -0.070452
C38   C     C_R   0.047037 0.500000 0.501089 -0.070452
Cu1   Cu    Cu3+1 0.500000 0.597420 0.500000 0.929558
Cu2   Cu    Cu3+1 0.500000 0.402580 0.500000 0.929558
H1    H     H_    0.907817 0.500002 0.788503 0.183034
H2    H     H_    0.092183 0.499998 0.211497 0.183034
N1    N     N_R   0.500000 0.743810 0.500000 -0.177729
N2    N     N_R   0.500000 0.256190 0.500000 -0.177729
O1    O     O_R   0.370260 0.582280 0.500020 -0.580953
O2    O     O_R   0.629740 0.417720 0.499980 -0.580955
O3    O     O_R   0.629740 0.582280 0.499980 -0.580953
O4    O     O_R   0.370260 0.417720 0.500020 -0.580954
O5    O     O_R   0.500010 0.582270 0.337200 -0.576022
O6    O     O_R   0.499990 0.417730 0.662800 -0.576021
O7    O     O_R   0.499990 0.582270 0.662800 -0.576019
O8    O     O_R   0.500010 0.417730 0.337200 -0.576020
N3    N     N_3   0.768832 0.499994 0.288123 -0.543475
H3    H     H_    0.728464 0.561403 0.285875 0.212761
H4    H     H_    0.728466 0.438584 0.285878 0.212764
N4    N     N_3   0.231169 0.500004 0.711876 -0.543476
H5    H     H_    0.271534 0.561414 0.714122 0.212766
H6    H     H_    0.271536 0.438595 0.714124 0.212763
N5    N     N_3   0.758081 0.500002 0.709676 -0.605590
H7    H     H_    0.717472 0.561388 0.712519 0.227257
H8    H     H_    0.717472 0.438617 0.712520 0.227256
N6    N     N_3   0.241919 0.499998 0.290324 -0.605589
H9    H     H_    0.282527 0.561383 0.287479 0.227256
H10   H     H_    0.282528 0.438613 0.287482 0.227257
N7    N     N_3   0.077346 0.500002 0.821219 -0.545650
H11   H     H_    0.054879 0.561168 0.866281 0.213884
H12   H     H_    0.054882 0.438834 0.866279 0.213885
N8    N     N_3   0.922654 0.499999 0.178781 -0.545649
H13   H     H_    0.945117 0.561169 0.133722 0.213884
H14   H     H_    0.945121 0.438834 0.133717 0.213884
C39   C     C_3   0.369135 0.753364 0.640018 -0.786072
H15   H     H_    0.322481 0.731471 0.573717 0.239328
H16   H     H_    0.383827 0.692671 0.697485 0.239810
H17   H     H_    0.330881 0.807674 0.691318 0.205546
C40   C     C_3   0.630869 0.246636 0.359993 -0.786077
H18   H     H_    0.677522 0.268523 0.426299 0.239326
H19   H     H_    0.669124 0.192329 0.308690 0.205547
H20   H     H_    0.616182 0.307335 0.302533 0.239815
C41   C     C_3   0.630872 0.753364 0.359997 -0.786080
H21   H     H_    0.677524 0.731489 0.426309 0.239321
H22   H     H_    0.616189 0.692657 0.302548 0.239822
H23   H     H_    0.669123 0.807668 0.308686 0.205549
C42   C     C_3   0.369130 0.246636 0.640006 -0.786077
H24   H     H_    0.322478 0.268521 0.573699 0.239327
H25   H     H_    0.330876 0.192329 0.691310 0.205547
H26   H     H_    0.383817 0.307335 0.697465 0.239815
C43   C     C_3   0.550283 0.894649 0.184417 -0.870002
H27   H     H_    0.497115 0.920205 0.128537 0.234661
H28   H     H_    0.616146 0.906068 0.140375 0.235174
H29   H     H_    0.537812 0.816130 0.193383 0.242409
C44   C     C_3   0.449718 0.105352 0.815583 -0.869998
H30   H     H_    0.502886 0.079798 0.871465 0.234659
H31   H     H_    0.462188 0.183870 0.806618 0.242408
H32   H     H_    0.383855 0.093932 0.859625 0.235172
C45   C     C_3   0.449726 0.894653 0.815585 -0.870001
H33   H     H_    0.502894 0.920212 0.871462 0.234660
H34   H     H_    0.383864 0.906068 0.859629 0.235175
H35   H     H_    0.462202 0.816134 0.806621 0.242406
C46   C     C_3   0.550282 0.105348 0.184416 -0.870015
H36   H     H_    0.497116 0.079793 0.128537 0.234662
H37   H     H_    0.537813 0.183866 0.193380 0.242410
H38   H     H_    0.616144 0.093929 0.140374 0.235175

loop_
_geom_bond_atom_site_label_1
_geom_bond_atom_site_label_2
_ccdc_geom_bond_type
Cu1   O7    S    
C43   H27   S    
C14   C18   A    
C45   H33   S    
C45   H35   S    
N3    H3    S    
C2    O2    A    
Cu2   O2    S    
N6    H9    S    
Cu1   O3    S    
C35   C37   A    
C24   C26   S    
C19   C43   S    
C23   O5    A    
C7    N7    S    
C34   N6    S    
N4    H5    S    
Cu2   O4    S    
C3    C29   A    
N6    H10   S    
C39   H17   S    
C46   H36   S    
C6    C36   A    
N8    H13   S    
N7    H12   S    
C31   C33   A    
C11   N1    A    
Cu1   O1    S    
C24   O7    A    
N5    H7    S    
C33   N5    S    
C4    C7    A    
N3    H4    S    
C24   O6    A    
C20   C44   S    
C9    N1    A    
N5    H8    S    
C13   C19   A    
C10   N2    A    
C14   C20   A    
C19   C22   A    
C3    C8    A    
Cu1   Cu2   S    
C5    C7    A    
C6    C8    A    
C21   C45   S    
Cu2   O8    S    
C30   N4    S    
C1    C32   S    
C12   C42   S    
C2    C31   S    
C32   C34   A    
C40   H18   S    
C37   C38   A    
C44   H31   S    
C10   C40   S    
C42   H24   S    
C15   C21   A    
C42   H26   S    
C17   C18   A    
C40   H19   S    
C11   C41   S    
N8    H14   S    
C42   H25   S    
C12   C14   A    
C8    N8    S    
C43   H28   S    
C44   H30   S    
C41   H22   S    
C15   C17   A    
C5    H1    S    
C16   C22   A    
C22   C46   S    
Cu1   O5    S    
C9    C39   S    
C4    C38   A    
C41   H23   S    
Cu1   N1    S    
C45   H34   S    
C1    O4    A    
C2    O3    A    
C25   C27   T    
C26   C28   T    
C13   C17   A    
C36   C38   A    
C9    C15   A    
C39   H15   S    
C29   C31   A    
C10   C16   A    
C44   H32   S    
C30   C32   A    
C11   C13   A    
C1    O1    A    
C23   O8    A    
C29   N3    S    
Cu2   O6    S    
C5    C35   A    
C33   C35   A    
N4    H6    S    
C34   C36   A    
C23   C25   S    
C40   H20   S    
C41   H21   S    
Cu2   N2    S    
C46   H38   S    
C20   C21   A    
C3    C37   A    
C16   C18   A    
N7    H11   S    
C6    H2    S    
C43   H29   S    
C39   H16   S    
C27   C28   S    
C12   N2    A    
C46   H37   S    
C4    C30   A    
