data_mof_unit_30909.cif
_audit_creation_date              2013-03-05T15:52:44-0500
_audit_creation_method            fapswitch 2.2
_symmetry_space_group_name_H-M    P1
_symmetry_Int_Tables_number       1
_space_group_crystal_system       triclinic
_cell_length_a                    10.00201
_cell_length_b                    10.741008
_cell_length_c                    13.160858
_cell_angle_alpha                 94.058134
_cell_angle_beta                  70.618908
_cell_angle_gamma                 89.153972
_cell_volume                      1329.32704157

loop_
_atom_site_label
_atom_site_type_symbol
_atom_site_description
_atom_site_fract_x
_atom_site_fract_y
_atom_site_fract_z
_atom_type_partial_charge
O1    O     O_R   0.385310 0.683220 0.500000 -0.650591
O2    O     O_R   0.614640 0.683250 0.500010 -0.612505
C1    C     C_R   0.499593 0.740761 0.496268 0.926073
O3    O     O_R   0.328400 0.499950 0.653610 -0.614833
O4    O     O_R   0.557730 0.499970 0.653620 -0.600297
C2    C     C_R   0.420645 0.490554 0.702966 0.921397
Zn1   Zn    Zn3+2 0.346880 0.499980 0.499990 0.962873
Zn2   Zn    Zn3+2 0.653120 0.500020 0.500010 1.004165
O5    O     O_R   0.385360 0.316750 0.499990 -0.617426
O6    O     O_R   0.614690 0.316780 0.500000 -0.606271
O7    O     O_R   0.442270 0.500030 0.346380 -0.627132
O8    O     O_R   0.671600 0.500050 0.346390 -0.602506
C3    C     C_R   0.510268 0.260572 0.481852 0.912872
C4    C     C_R   0.579615 0.501370 0.295981 0.884725
C5    C     C_R   0.791963 0.415225 0.003063 -0.236321
H1    H     H_    0.894729 0.373087 0.955058 0.152216
C6    C     C_R   0.630100 0.496865 0.177452 -0.098533
C7    C     C_R   0.235530 0.540765 0.881199 -0.188202
C8    C     C_R   0.220357 0.604708 0.979982 -0.155408
C9    C     C_R   0.333294 0.603626 0.019951 -0.009905
C10   C     C_R   0.448535 0.514241 0.973839 0.051996
C11   C     C_R   0.461139 0.449276 0.874138 0.035809
C12   C     C_R   0.553781 0.489941 0.020541 0.102931
C13   C     C_R   0.680796 0.421094 0.960014 0.143199
C14   C     C_R   0.688571 0.352871 0.862650 -0.010026
C15   C     C_R   0.571391 0.357880 0.826811 -0.030094
C16   C     C_R   0.528347 0.520365 0.129876 -0.217995
C17   C     C_R   0.768633 0.456421 0.110900 -0.029608
C18   C     C_R   0.366909 0.482759 0.820837 -0.137936
H2    H     H_    0.423034 0.551246 0.181358 0.173727
H3    H     H_    0.153320 0.553112 0.845844 0.173251
H4    H     H_    0.128096 0.666817 0.018034 0.163303
H5    H     H_    0.708644 0.882508 0.502596 0.188443
C19   C     C_R   0.290307 0.886877 0.416087 -0.215790
H6    H     H_    0.250475 0.797797 0.438762 0.189599
C20   C     C_R   0.219632 0.950798 0.358690 0.026003
C21   C     C_R   0.281436 0.053921 0.305589 -0.190790
H7    H     H_    0.242786 0.088496 0.244651 0.195433
C22   C     C_R   0.402251 0.102791 0.322758 -0.049648
C23   C     C_R   0.441285 0.060485 0.408712 0.021229
C24   C     C_R   0.408540 0.938427 0.438317 0.068181
C25   C     C_R   0.503300 0.874072 0.480256 -0.119637
C26   C     C_R   0.624310 0.933645 0.487417 -0.237326
C27   C     C_R   0.642814 0.057930 0.469192 0.002995
C28   C     C_R   0.533303 0.125776 0.450889 -0.124045
H8    H     H_    0.929286 0.358511 0.377185 0.204045
C29   C     C_R   0.805539 0.694697 0.621656 -0.026992
C30   C     C_R   0.862318 0.812080 0.631400 -0.105501
C31   C     C_R   0.003526 0.816430 0.621385 -0.286054
H9    H     H_    0.042000 0.903553 0.646606 0.182734
C32   C     C_R   0.082360 0.705510 0.610431 -0.033617
C33   C     C_R   0.043964 0.594299 0.561658 0.087869
C34   C     C_R   0.899273 0.593060 0.562256 0.087479
N1    N     N_R   0.856860 0.501200 0.500990 -0.127749
C35   C     C_R   0.957615 0.419238 0.434840 -0.116067
C36   C     C_R   0.100794 0.423166 0.430651 0.024936
N2    N     N_R   0.142450 0.501280 0.501020 -0.137476
C37   C     C_1   0.886052 0.447183 0.150917 0.231000
N3    N     N_1   0.981432 0.440124 0.181663 -0.196455
C38   C     C_1   0.096359 0.899002 0.340759 0.217927
N4    N     N_1   0.997716 0.856870 0.326357 -0.190671
C39   C     C_2   0.509549 0.161231 0.232381 0.913836
O9    O     O_2   0.491154 0.166117 0.145294 -0.609178
O10   O     O_R   0.638113 0.198861 0.242230 -0.805794
H10   H     H_    0.708076 0.221618 0.171317 0.351276
C40   C     C_2   0.785233 0.107417 0.450342 0.960905
O11   O     O_2   0.846607 0.149881 0.364116 -0.621030
O12   O     O_R   0.851964 0.100668 0.527695 -0.817952
H11   H     H_    0.949889 0.136274 0.503957 0.336070
C41   C     C_2   0.687994 0.672690 0.720032 0.954712
O13   O     O_2   0.709413 0.606091 0.784798 -0.665996
O14   O     O_R   0.558104 0.738960 0.744832 -0.801974
H12   H     H_    0.490458 0.724937 0.819340 0.342413
C42   C     C_1   0.773551 0.917839 0.692161 0.320696
N5    N     N_1   0.702245 0.000629 0.743591 -0.136955
C43   C     C_1   0.172071 0.715231 0.675790 0.281484
N6    N     N_1   0.241714 0.734204 0.729578 -0.197773
C44   C     C_1   0.812625 0.274470 0.801820 0.201396
N7    N     N_1   0.912088 0.212533 0.753174 -0.182943
C45   C     C_1   0.202170 0.372783 0.331491 0.212688
N8    N     N_1   0.279655 0.336818 0.247701 -0.178459
C46   C     C_1   0.342335 0.710928 0.089322 0.151849
N9    N     N_1   0.352144 0.797512 0.143324 -0.182987
C47   C     C_1   0.552448 0.260122 0.752237 0.226193
N10   N     N_1   0.532523 0.181664 0.694956 -0.185480

loop_
_geom_bond_atom_site_label_1
_geom_bond_atom_site_label_2
_geom_bond_distance
_ccdc_geom_bond_type
C40   O12   1.395396 S    
C35   C36   1.416115 A    
C1    C25   1.461222 S    
C11   C18   1.405070 A    
C9    C46   1.441872 S    
C24   C25   1.436197 A    
C27   C40   1.476377 S    
C8    C9    1.395600 A    
C34   N1    1.389378 A    
C33   C34   1.444882 A    
Zn1   O7    1.928036 S    
C39   O9    1.224093 D    
C20   C21   1.393003 A    
C7    C8    1.387272 A    
O4    C2    1.316961 A    
O7    C4    1.313194 A    
C5    H1    1.084118 S    
C36   N2    1.375384 A    
C19   H6    1.065843 S    
O5    C3    1.319599 A    
C39   O10   1.397243 S    
O12   H11   1.013936 S    
C31   C32   1.390835 A    
H8    C35   1.076843 S    
C12   C13   1.418644 A    
C41   O13   1.219473 D    
C12   C16   1.389278 A    
C29   C34   1.429834 A    
C40   O11   1.221402 D    
C10   C11   1.408036 A    
C16   H2    1.078340 S    
C4    C6    1.468524 S    
C19   C24   1.420089 A    
O3    Zn1   1.968196 S    
C8    H4    1.084062 S    
C43   N6    1.157102 T    
C23   C28   1.396427 A    
C42   N5    1.154663 T    
C14   C44   1.450541 S    
C6    C16   1.388970 A    
C30   C42   1.445183 S    
C13   C14   1.408642 A    
O3    C2    1.299103 A    
Zn2   N1    2.042345 S    
C22   C23   1.413954 A    
C44   N7    1.157419 T    
O14   H12   1.012717 S    
C37   N3    1.156723 T    
C32   C33   1.433536 A    
C38   N4    1.157287 T    
O1    C1    1.295715 A    
H5    C26   1.080182 S    
C26   C27   1.377324 A    
C29   C41   1.468217 S    
C21   H7    1.083630 S    
C29   C30   1.405422 A    
Zn2   O8    1.968197 S    
C7    C18   1.399617 A    
C47   N10   1.154544 T    
C23   C24   1.406461 A    
O8    C4    1.301091 A    
C46   N9    1.155449 T    
C10   C12   1.413523 A    
C25   C26   1.404739 A    
C27   C28   1.401859 A    
Zn1   O5    1.999771 S    
C22   C39   1.496288 S    
N1    C35   1.353351 A    
C5    C13   1.407961 A    
C15   C47   1.443986 S    
O1    Zn1   2.010925 S    
C6    C17   1.413742 A    
O2    Zn2   1.999770 S    
C45   N8    1.153071 T    
C20   C38   1.442301 S    
O6    C3    1.294655 A    
O4    Zn2   1.928036 S    
C17   C37   1.442549 S    
C36   C45   1.424665 S    
O10   H10   1.012085 S    
O2    C1    1.314940 A    
C14   C15   1.402732 A    
C21   C22   1.403554 A    
C3    C28   1.469602 S    
C5    C17   1.397402 A    
C30   C31   1.376083 A    
C19   C20   1.398286 A    
C33   N2    1.393479 A    
C2    C18   1.472655 S    
C9    C10   1.428013 A    
Zn2   O6    2.010926 S    
C31   H9    1.088769 S    
C11   C15   1.411854 A    
C32   C43   1.434661 S    
C41   O14   1.399785 S    
C7    H3    1.081505 S    
Zn1   N2    2.040088 S    
