data_mof_unit_12620.cif
_audit_creation_date              2012-10-26T20:21:17-0400
_audit_creation_method            fapswitch 2.2
_symmetry_space_group_name_H-M    P1
_symmetry_Int_Tables_number       1
_space_group_crystal_system       triclinic
_cell_length_a                    9.599365
_cell_length_b                    10.824642
_cell_length_c                    15.55912
_cell_angle_alpha                 88.371544
_cell_angle_beta                  73.983054
_cell_angle_gamma                 90.696991
_cell_volume                      1553.01717785

loop_
_atom_site_label
_atom_site_type_symbol
_atom_type_description
_atom_site_fract_x
_atom_site_fract_y
_atom_site_fract_z
_atom_type_partial_charge
C1    C     C_R   0.001732 0.262820 0.495971 0.531390
C2    C     C_R   0.121659 0.063341 0.442631 0.006644
C3    C     C_R   0.996913 0.871144 0.505057 0.008253
C4    C     C_R   0.003087 0.128856 0.494943 0.008252
C5    C     C_R   0.548903 0.409005 0.546710 0.132797
C6    C     C_R   0.451097 0.590995 0.453290 0.132796
C7    C     C_R   0.402591 0.408596 0.543129 -0.000044
C8    C     C_R   0.597408 0.591404 0.456871 -0.000048
C9    C     C_R   0.918115 0.492216 0.671867 0.529525
C10   C     C_R   0.081885 0.507784 0.328133 0.529525
C11   C     C_R   0.872004 0.469081 0.769713 -0.010019
C12   C     C_R   0.998268 0.737180 0.504029 0.531390
C13   C     C_R   0.127997 0.530919 0.230287 -0.010020
C14   C     C_R   0.893585 0.374272 0.908188 -0.119669
C15   C     C_R   0.106416 0.625727 0.091812 -0.119668
C16   C     C_R   0.948860 0.392520 0.815675 0.007631
C17   C     C_R   0.051140 0.607479 0.184325 0.007631
C18   C     C_R   0.738170 0.515830 0.816822 -0.107053
C19   C     C_R   0.261830 0.484170 0.183178 -0.107053
C20   C     C_R   0.671007 0.480339 0.906611 0.024012
C21   C     C_R   0.328994 0.519660 0.093388 0.024012
C22   C     C_R   0.756928 0.417641 0.953329 -0.024492
C23   C     C_R   0.574456 0.444204 0.094258 0.257302
C24   C     C_R   0.243073 0.582358 0.046671 -0.024492
C25   C     C_R   0.524682 0.509719 0.952220 -0.000808
C26   C     C_R   0.475318 0.490280 0.047780 -0.000808
C27   C     C_3   0.917915 0.678557 0.230708 -0.266916
C28   C     C_3   0.959515 0.788953 0.278091 -0.417976
C29   C     C_3   0.082084 0.321442 0.769292 -0.266917
C30   C     C_3   0.040483 0.211045 0.721909 -0.417977
C31   C     C_3   0.570194 0.350324 0.231962 -0.041897
C32   C     C_3   0.697443 0.365820 0.271826 -0.363452
C33   C     C_3   0.429808 0.649674 0.768037 -0.041898
C34   C     C_R   0.425544 0.555795 0.905741 0.257302
C35   C     C_3   0.302557 0.634179 0.728174 -0.363457
C36   C     C_3   0.743875 0.876122 0.620005 -0.265744
C37   C     C_3   0.615324 0.888137 0.580331 -0.429297
C38   C     C_3   0.256130 0.123878 0.380000 -0.265743
C39   C     C_3   0.384673 0.111864 0.419682 -0.429290
C40   C     C_3   0.591435 0.302940 0.599680 -0.254207
C41   C     C_3   0.476733 0.262956 0.686204 -0.490823
C42   C     C_3   0.408565 0.697060 0.400320 -0.254208
C43   C     C_3   0.523267 0.737043 0.313795 -0.490823
C44   C     C_R   0.709814 0.402807 0.045488 -0.120497
C45   C     C_R   0.290187 0.597193 0.954512 -0.120497
C46   C     C_R   0.884563 0.065122 0.551895 -0.144006
C47   C     C_R   0.115437 0.934878 0.448105 -0.144005
C48   C     C_R   0.878342 0.936659 0.557369 0.006647
Cu1   Cu    Cu3+1 0.140660 0.500020 0.500000 0.889905
Cu2   Cu    Cu3+1 0.859340 0.499980 0.500000 0.889905
H1    H     H_    0.783903 0.365287 0.080134 0.109134
H2    H     H_    0.672928 0.663579 0.423502 0.122272
H3    H     H_    0.024807 0.759357 0.323278 0.163323
H4    H     H_    0.024476 0.857515 0.228052 0.139841
H5    H     H_    0.860679 0.834193 0.318126 0.129497
H6    H     H_    0.862100 0.714569 0.181609 0.133828
H7    H     H_    0.836581 0.618168 0.277710 0.166355
H8    H     H_    0.975520 0.142485 0.771948 0.139842
H9    H     H_    0.975192 0.240642 0.676721 0.163323
H10   H     H_    0.139319 0.165804 0.681875 0.129495
H11   H     H_    0.163419 0.381830 0.722289 0.166355
H12   H     H_    0.216098 0.634713 0.919865 0.109135
H13   H     H_    0.137900 0.285429 0.818391 0.133829
H14   H     H_    0.583260 0.265601 0.191496 0.106652
H15   H     H_    0.471658 0.334111 0.288519 0.153659
H16   H     H_    0.674794 0.440617 0.320234 0.171608
H17   H     H_    0.712792 0.278937 0.307447 0.104982
H18   H     H_    0.799334 0.389551 0.219543 0.145364
H19   H     H_    0.528343 0.665883 0.711479 0.153664
H20   H     H_    0.416746 0.734398 0.808503 0.106652
H21   H     H_    0.287205 0.721063 0.692556 0.104983
H22   H     H_    0.200668 0.610445 0.780457 0.145367
H23   H     H_    0.309108 0.416747 0.217842 0.157268
H24   H     H_    0.325205 0.559386 0.679764 0.171607
H25   H     H_    0.638839 0.842813 0.514993 0.159938
H26   H     H_    0.516853 0.844428 0.626236 0.119318
H27   H     H_    0.592032 0.986888 0.570279 0.140389
H28   H     H_    0.759545 0.777713 0.635645 0.164687
H29   H     H_    0.717753 0.922342 0.685295 0.118723
H30   H     H_    0.407979 0.013112 0.429720 0.140385
H31   H     H_    0.483143 0.155593 0.373789 0.119322
H32   H     H_    0.361138 0.157167 0.485029 0.159937
H33   H     H_    0.282262 0.077658 0.314709 0.118721
H34   H     H_    0.690892 0.583253 0.782159 0.157266
H35   H     H_    0.240462 0.222287 0.364359 0.164689
H36   H     H_    0.427494 0.344590 0.723513 0.207647
H37   H     H_    0.391408 0.203972 0.671592 0.120575
H38   H     H_    0.527880 0.206721 0.729618 0.144739
H39   H     H_    0.616377 0.222423 0.555820 0.127467
H40   H     H_    0.686089 0.327388 0.622030 0.223572
H41   H     H_    0.608591 0.796027 0.328407 0.120576
H42   H     H_    0.572505 0.655408 0.276487 0.207646
H43   H     H_    0.472120 0.793277 0.270381 0.144738
H44   H     H_    0.313910 0.672612 0.377970 0.223573
H45   H     H_    0.954794 0.321254 0.944973 0.102849
H46   H     H_    0.383624 0.777576 0.444179 0.127467
H47   H     H_    0.045206 0.678745 0.055026 0.102849
H48   H     H_    0.797600 0.115853 0.594847 0.106274
H49   H     H_    0.202401 0.884147 0.405153 0.106274
H50   H     H_    0.327072 0.336421 0.576498 0.122272
N1    N     N_R   0.352080 0.500030 0.499980 -0.240517
N2    N     N_R   0.647920 0.499970 0.500020 -0.240517
O1    O     O_R   0.118740 0.319660 0.500000 -0.507631
O2    O     O_3   0.449928 0.539437 0.814472 -0.582655
O3    O     O_R   0.881260 0.680340 0.500000 -0.507631
O4    O     O_R   0.881170 0.319630 0.500010 -0.523841
O5    O     O_R   0.118830 0.680370 0.499990 -0.523841
O6    O     O_R   0.055570 0.500030 0.629830 -0.502407
O7    O     O_R   0.944430 0.499970 0.370170 -0.502406
O8    O     O_R   0.818000 0.500000 0.629840 -0.513469
O9    O     O_R   0.182000 0.500000 0.370160 -0.513469
O10   O     O_3   0.550072 0.460560 0.185528 -0.582656

loop_
_geom_bond_atom_site_label_1
_geom_bond_atom_site_label_2
_ccdc_geom_bond_type
C21   C26   A    
C29   H13   S    
C35   H24   S    
C38   H33   S    
C33   O2    S    
C3    C48   A    
C11   C18   A    
C4    C46   A    
C32   H18   S    
C9    O6    A    
C41   H36   S    
C42   H46   S    
C24   C45   A    
C36   C37   S    
C19   C21   A    
Cu1   N1    S    
C38   C39   S    
C6    N1    A    
C20   C25   A    
C45   H12   S    
Cu2   O8    S    
C47   H49   S    
C10   O7    A    
C15   C17   A    
C23   C26   A    
C3    C12   S    
C43   H43   S    
C22   C44   A    
C30   H10   S    
Cu2   O3    S    
C18   H34   S    
C31   O10   S    
C40   H39   S    
C1    O1    A    
C33   H19   S    
C1    O4    A    
Cu1   O9    S    
C46   H48   S    
C35   H21   S    
C15   H47   S    
C28   H5    S    
Cu1   O6    S    
C29   H11   S    
C41   H37   S    
C46   C48   A    
C7    H50   S    
C13   C19   A    
C38   H35   S    
C17   C27   S    
C19   H23   S    
C39   H31   S    
Cu1   O5    S    
C27   H7    S    
C5    C7    A    
C28   H4    S    
C27   H6    S    
C6    C8    A    
C25   C26   A    
C37   H27   S    
C36   H29   S    
Cu2   O7    S    
C34   O2    S    
C23   C44   A    
C2    C4    A    
C29   C30   S    
C23   O10   S    
C11   C16   A    
C2    C38   S    
C31   C32   S    
C30   H9    S    
C10   O9    A    
C34   C45   A    
C9    C11   S    
C33   H20   S    
C32   H17   S    
C44   H1    S    
C40   C41   S    
C37   H26   S    
C20   C22   A    
C35   H22   S    
Cu2   N2    S    
C7    N1    A    
C14   C16   A    
C21   C24   A    
C42   C43   S    
C14   H45   S    
C32   H16   S    
C9    O8    A    
C31   H15   S    
C41   H38   S    
C8    H2    S    
C5    N2    A    
C15   C24   A    
C42   H44   S    
C31   H14   S    
C39   H32   S    
C10   C13   S    
Cu1   O1    S    
C12   O5    A    
C28   H3    S    
C2    C47   A    
C25   C34   A    
C43   H42   S    
C13   C17   A    
C1    C4    S    
C39   H30   S    
C14   C22   A    
C16   C29   S    
C36   H28   S    
C12   O3    A    
C30   H8    S    
C3    C47   A    
C33   C35   S    
C36   C48   S    
C18   C20   A    
C37   H25   S    
C43   H41   S    
Cu1   Cu2   S    
C6    C42   S    
C5    C40   S    
C27   C28   S    
Cu2   O4    S    
C40   H40   S    
C8    N2    A    
