data_mof_unit_8252.cif
_audit_creation_date              2013-03-05T15:52:55-0500
_audit_creation_method            fapswitch 2.2
_symmetry_space_group_name_H-M    P1
_symmetry_Int_Tables_number       1
_space_group_crystal_system       triclinic
_cell_length_a                    14.993428
_cell_length_b                    10.717174
_cell_length_c                    9.931004
_cell_angle_alpha                 88.746893
_cell_angle_beta                  90.180382
_cell_angle_gamma                 93.858996
_cell_volume                      1591.78384319

loop_
_atom_site_label
_atom_site_type_symbol
_atom_site_description
_atom_site_fract_x
_atom_site_fract_y
_atom_site_fract_z
_atom_type_partial_charge
O1    O     O_R   0.500000 0.316780 0.614690 -0.674818
O2    O     O_R   0.499990 0.316750 0.385360 -0.547768
C1    C     C_R   0.504404 0.260031 0.503081 0.869620
O3    O     O_R   0.367850 0.499980 0.614680 -0.669516
O4    O     O_R   0.367840 0.499960 0.385350 -0.562255
C2    C     C_R   0.326777 0.499263 0.499801 0.896045
Zn1   Zn    Zn3+2 0.500010 0.500020 0.653130 0.984870
Zn2   Zn    Zn3+2 0.499990 0.499980 0.346870 0.976661
O5    O     O_R   0.500010 0.683250 0.614640 -0.580003
O6    O     O_R   0.500000 0.683220 0.385310 -0.631226
O7    O     O_R   0.632160 0.500040 0.614650 -0.524472
O8    O     O_R   0.632150 0.500020 0.385320 -0.641510
C3    C     C_R   0.492576 0.738463 0.498617 0.866801
C4    C     C_R   0.673062 0.496798 0.500310 0.914971
C5    C     C_R   0.815781 0.518968 0.382570 -0.339526
C6    C     C_R   0.768454 0.485887 0.500479 -0.191585
C7    C     C_R   0.812224 0.441212 0.615999 0.460308
C8    C     C_R   0.905352 0.443710 0.616838 0.002734
C9    C     C_R   0.952840 0.479933 0.498025 -0.012500
C10   C     C_R   0.907576 0.514733 0.379833 0.122120
C11   C     C_R   0.951872 0.411832 0.734261 -0.196516
C12   C     C_R   0.044635 0.417202 0.734465 -0.247904
C13   C     C_R   0.091688 0.453032 0.617053 0.129543
C14   C     C_R   0.045868 0.482969 0.497720 0.093461
C15   C     C_R   0.093207 0.517619 0.378518 0.110036
C16   C     C_R   0.047516 0.548529 0.260684 -0.229224
C17   C     C_R   0.954869 0.547863 0.261570 -0.197547
C18   C     C_R   0.184090 0.460349 0.617147 -0.287602
C19   C     C_R   0.230741 0.494511 0.499045 -0.069748
C20   C     C_R   0.185665 0.522015 0.379752 -0.254881
H1    H     H_    0.781322 0.550442 0.293090 0.178033
H2    H     H_    0.916934 0.384446 0.826670 0.185317
H3    H     H_    0.079576 0.393679 0.826362 0.150045
H4    H     H_    0.219508 0.438745 0.708970 0.171475
H5    H     H_    0.222430 0.548632 0.288497 0.162389
H6    H     H_    0.083442 0.574862 0.168732 0.145175
H7    H     H_    0.920251 0.574063 0.170298 0.139098
H8    H     H_    0.548979 0.119405 0.302494 0.172866
C21   C     C_R   0.476455 0.102159 0.761516 -0.185228
H9    H     H_    0.511742 0.188112 0.790736 0.172700
C22   C     C_R   0.432119 0.033593 0.865154 -0.146351
H10   H     H_    0.429071 0.072036 0.964862 0.143063
C23   C     C_R   0.391204 0.916373 0.840043 -0.137287
H11   H     H_    0.354148 0.864607 0.918895 0.132277
C24   C     C_R   0.402000 0.863202 0.715052 -0.143551
H12   H     H_    0.370494 0.770815 0.699251 0.148532
C25   C     C_R   0.453086 0.928457 0.612788 0.101737
C26   C     C_R   0.479303 0.054887 0.629032 0.097583
C27   C     C_R   0.507298 0.125992 0.511450 -0.148338
C28   C     C_R   0.525730 0.066972 0.391664 -0.219025
H13   H     H_    0.537327 0.895258 0.295128 0.171399
C29   C     C_R   0.516151 0.939474 0.385688 -0.223907
C30   C     C_R   0.482049 0.870064 0.496482 -0.121021
H14   H     H_    0.607812 0.632344 0.125233 0.153150
C31   C     C_R   0.363332 0.342028 0.132248 0.582515
C32   C     C_R   0.292372 0.292486 0.050651 -0.298366
H15   H     H_    0.232668 0.244782 0.092447 0.157109
C33   C     C_R   0.300070 0.291905 0.913701 -0.303596
H16   H     H_    0.249581 0.241911 0.853528 0.172565
C34   C     C_R   0.374191 0.350463 0.853981 -0.132062
H17   H     H_    0.380111 0.334775 0.749582 0.223731
C35   C     C_R   0.436784 0.425330 0.926665 -0.015697
C36   C     C_R   0.434508 0.423799 0.071480 0.030249
N1    N     N_R   0.499150 0.498800 0.142780 -0.122911
C37   C     C_R   0.560461 0.572061 0.070522 -0.268550
C38   C     C_R   0.561905 0.571114 0.926154 0.600208
N2    N     N_R   0.499120 0.498720 0.857170 -0.151172
O9    O     O_3   0.362639 0.311663 0.268130 -0.555860
C39   C     C_3   0.318017 0.194833 0.303822 -0.329522
H18   H     H_    0.336121 0.119160 0.235999 0.157405
H19   H     H_    0.244634 0.202814 0.308355 0.158117
H20   H     H_    0.338105 0.167914 0.407209 0.184155
O10   O     O_3   0.764592 0.400778 0.729888 -0.612872
C40   C     C_3   0.739490 0.272258 0.717676 -0.304607
H21   H     H_    0.699813 0.240355 0.807592 0.186935
H22   H     H_    0.799160 0.216025 0.714083 0.155396
H23   H     H_    0.696602 0.254134 0.627578 0.153121
O11   O     O_3   0.621859 0.648600 0.851217 -0.568327
C41   C     C_3   0.709454 0.647755 0.903770 -0.280104
H24   H     H_    0.757259 0.676833 0.822118 0.202770
H25   H     H_    0.726353 0.553094 0.940233 0.177171
H26   H     H_    0.719235 0.716835 0.985128 0.133497

loop_
_geom_bond_atom_site_label_1
_geom_bond_atom_site_label_2
_geom_bond_distance
_ccdc_geom_bond_type
C31   C32   1.416983 A    
C8    C11   1.404499 A    
C22   H10   1.083049 S    
C9    C10   1.409724 A    
C31   O9    1.381097 S    
C1    C27   1.440659 S    
C21   C22   1.395227 A    
H14   C37   1.080672 S    
C24   H12   1.082354 S    
Zn1   O7    2.019063 S    
C16   C17   1.388690 A    
C35   C36   1.438371 A    
C40   H22   1.112921 S    
C20   H5    1.084985 S    
C18   C19   1.396716 A    
O4    C2    1.293989 A    
O7    C4    1.294470 A    
C33   C34   1.369187 A    
C5    C6    1.397707 A    
C32   H15   1.080028 S    
C34   C35   1.401887 A    
C8    C9    1.413496 A    
O10   C40   1.410942 S    
C39   H19   1.110430 S    
O5    C3    1.291676 A    
O9    C39   1.417847 S    
C40   H23   1.113098 S    
C31   C36   1.458116 A    
C28   C29   1.366869 A    
C13   C14   1.409704 A    
C25   C30   1.409136 A    
C38   N2    1.370526 A    
C18   H4    1.082324 S    
C11   C12   1.388141 A    
C7    O10   1.385291 S    
C22   C23   1.387715 A    
O3    Zn1   2.016779 S    
C3    C30   1.429404 S    
C24   C25   1.417363 A    
C5    C10   1.380483 A    
C38   O11   1.388591 S    
C11   H2    1.083195 S    
C40   H21   1.109408 S    
H13   C29   1.083921 S    
C14   C15   1.411964 A    
O3    C2    1.294675 A    
C21   H9    1.076022 S    
C41   H25   1.114676 S    
O11   C41   1.412243 S    
C6    C7    1.410520 A    
C15   C16   1.398920 A    
C36   N1    1.415118 A    
C34   H17   1.058912 S    
O1    C1    1.279894 A    
C39   H20   1.106771 S    
C23   H11   1.082554 S    
C19   C20   1.397732 A    
C41   H26   1.110505 S    
C25   C26   1.397843 A    
Zn2   O8    2.016780 S    
C7    C8    1.394763 A    
C13   C18   1.382361 A    
C23   C24   1.391514 A    
Zn2   N1    2.027129 S    
C35   N2    1.360088 A    
C16   H6    1.083994 S    
C26   C27   1.428827 A    
O8    C4    1.295482 A    
C37   C38   1.434217 A    
C4    C6    1.442840 S    
C29   C30   1.393560 A    
C15   C20   1.383921 A    
Zn1   O5    1.992341 S    
C12   H3    1.084260 S    
O1    Zn1   2.008744 S    
O2    Zn2   1.992341 S    
O6    C3    1.291473 A    
O4    Zn2   2.019063 S    
C5    H1    1.085283 S    
H8    C28   1.084110 S    
C10   C17   1.400497 A    
N1    C37   1.363376 A    
C9    C14   1.393008 A    
C33   H16   1.083412 S    
C17   H7    1.084145 S    
C32   C33   1.365485 A    
O2    C1    1.309391 A    
C39   H18   1.113446 S    
Zn1   N2    2.026145 S    
C41   H24   1.109490 S    
C2    C19   1.437384 S    
Zn2   O6    2.008744 S    
C27   C28   1.396467 A    
C12   C13   1.397822 A    
C21   C26   1.421961 A    
