data_mof_unit_41052.cif
_audit_creation_date              2012-12-10T17:48:40-0500
_audit_creation_method            fapswitch 2.2
_symmetry_space_group_name_H-M    P1
_symmetry_Int_Tables_number       1
_space_group_crystal_system       triclinic
_cell_length_a                    15.715163
_cell_length_b                    10.669541
_cell_length_c                    9.946284
_cell_angle_alpha                 90.394082
_cell_angle_beta                  93.188673
_cell_angle_gamma                 92.230864
_cell_volume                      1663.81661568

loop_
_atom_site_label
_atom_site_type_symbol
_atom_type_description
_atom_site_fract_x
_atom_site_fract_y
_atom_site_fract_z
_atom_type_partial_charge
C1    C     C_R   0.505645 0.260152 0.501011 0.897527
C2    C     C_3   0.954263 0.365857 0.553132 0.392995
C3    C     C_3   0.918172 0.493374 0.504282 0.177045
C4    C     C_3   0.960004 0.603870 0.588145 -0.417116
C5    C     C_3   0.057579 0.604793 0.578015 -0.381298
C6    C     C_1   0.826604 0.493415 0.510846 -0.025643
C7    C     C_1   0.174211 0.498689 0.481856 -0.065460
C8    C     C_1   0.249614 0.499670 0.487136 -0.193299
C9    C     C_R   0.559011 0.112498 0.749934 0.461844
C10   C     C_R   0.536491 0.059742 0.873733 0.116090
C11   C     C_R   0.487249 0.948785 0.874752 -0.262270
C12   C     C_R   0.338495 0.499952 0.496402 0.865840
C13   C     C_R   0.464335 0.886024 0.754709 -0.174680
C14   C     C_R   0.486681 0.937237 0.630206 0.052273
C15   C     C_R   0.519911 0.060426 0.627726 -0.043720
C16   C     C_R   0.507464 0.125797 0.504124 -0.084596
C17   C     C_R   0.476740 0.062485 0.386389 -0.222665
C18   C     C_R   0.465652 0.934687 0.385920 -0.234305
C19   C     C_R   0.476178 0.870822 0.506448 -0.089415
C20   C     C_R   0.381729 0.345722 0.129433 -0.104592
C21   C     C_R   0.323877 0.267526 0.054638 -0.195241
C22   C     C_R   0.325322 0.263998 0.915622 -0.189395
C23   C     C_R   0.490276 0.738512 0.500762 0.869946
C24   C     C_R   0.384118 0.339426 0.850522 -0.082043
C25   C     C_R   0.441672 0.423450 0.922610 0.128949
C26   C     C_R   0.440871 0.425301 0.066772 0.074040
C27   C     C_R   0.558349 0.570985 0.078268 0.457393
C28   C     C_R   0.558120 0.570855 0.934462 0.079395
C29   C     C_R   0.661765 0.499071 0.503277 0.920567
C30   C     C_3   0.053053 0.368689 0.543143 -0.603065
C31   C     C_3   0.039044 0.509558 0.342282 0.373589
C32   C     C_3   0.941143 0.513688 0.355277 -0.512259
C33   C     C_1   0.751077 0.495707 0.510215 -0.165675
C34   C     C_3   0.082896 0.496225 0.485173 0.237492
H1    H     H_    0.929064 0.294939 0.476794 0.102420
H2    H     H_    0.089855 0.351890 0.638710 0.196562
H3    H     H_    0.935709 0.694145 0.549251 0.187448
H4    H     H_    0.461152 0.111410 0.294068 0.203267
H5    H     H_    0.467998 0.909584 0.969026 0.165460
H6    H     H_    0.425451 0.800516 0.760258 0.180007
H7    H     H_    0.448997 0.886162 0.291606 0.161943
H8    H     H_    0.070021 0.291212 0.475128 0.145452
H9    H     H_    0.380381 0.338580 0.236074 0.195799
H10   H     H_    0.279064 0.207092 0.105126 0.142550
H11   H     H_    0.281606 0.200743 0.857826 0.144179
H12   H     H_    0.383844 0.326606 0.744271 0.187797
H13   H     H_    0.050497 0.422755 0.283133 0.033212
H14   H     H_    0.908445 0.439874 0.289132 0.137028
H15   H     H_    0.917528 0.605214 0.318798 0.222843
H16   H     H_    0.089241 0.596509 0.680227 0.153857
H17   H     H_    0.079900 0.696589 0.537470 0.209275
H18   H     H_    0.942888 0.598453 0.694840 0.176471
N1    N     N_R   0.499210 0.498800 0.142780 -0.159574
N2    N     N_R   0.499180 0.498720 0.857170 -0.146618
O1    O     O_R   0.500000 0.316780 0.614690 -0.589298
O2    O     O_R   0.499990 0.316750 0.385360 -0.632895
O3    O     O_R   0.377150 0.500020 0.614720 -0.642936
O4    O     O_R   0.377140 0.499990 0.385380 -0.646145
O5    O     O_R   0.500010 0.683250 0.614640 -0.601156
O6    O     O_R   0.500000 0.683220 0.385310 -0.632818
O7    O     O_R   0.622860 0.500010 0.614620 -0.561986
O8    O     O_R   0.622850 0.499980 0.385280 -0.552139
Zn1   Zn    Zn3+2 0.500010 0.500020 0.653130 0.980293
Zn2   Zn    Zn3+2 0.499990 0.499980 0.346870 0.966865
O9    O     O_3   0.921233 0.322328 0.676284 -0.649796
C35   C     C_3   0.968661 0.359067 0.796489 0.108446
H19   H     H_    0.923292 0.393957 0.867988 0.163274
H20   H     H_    0.015309 0.438069 0.785861 0.128480
C36   C     C_3   0.012593 0.245326 0.858593 -0.329785
H21   H     H_    0.964545 0.168775 0.874633 0.224466
H22   H     H_    0.058438 0.207627 0.789304 0.212816
C37   C     C_3   0.060110 0.279417 0.992532 -1.022707
H23   H     H_    0.111239 0.351930 0.977261 0.265214
H24   H     H_    0.089890 0.194922 0.035815 0.269918
H25   H     H_    0.015164 0.315095 0.064737 0.260284
O10   O     O_3   0.613773 0.217658 0.747406 -0.618540
C38   C     C_3   0.696824 0.192797 0.800602 0.084968
H26   H     H_    0.738233 0.177124 0.715499 0.150790
H27   H     H_    0.700049 0.106933 0.863749 0.150905
C39   C     C_3   0.732248 0.308250 0.881975 -0.222596
H28   H     H_    0.766733 0.372830 0.814622 0.221676
H29   H     H_    0.679077 0.360514 0.921744 0.267421
C40   C     C_3   0.791683 0.273058 0.001422 -0.950944
H30   H     H_    0.841252 0.210807 0.968320 0.259463
H31   H     H_    0.755491 0.223366 0.078901 0.292154
H32   H     H_    0.822696 0.359206 0.048228 0.259106
I1    I     I_    0.567085 0.148783 0.061398 -0.483750
O11   O     O_3   0.627983 0.622819 0.153400 -0.598933
C41   C     C_3   0.621824 0.753838 0.170746 0.132288
H33   H     H_    0.556306 0.780898 0.190798 0.132838
H34   H     H_    0.640118 0.804647 0.079696 0.167039
C42   C     C_3   0.684432 0.796726 0.287240 -0.300137
H35   H     H_    0.661581 0.761029 0.383923 0.223800
H36   H     H_    0.747686 0.756949 0.272759 0.227384
C43   C     C_3   0.695960 0.939163 0.296026 -0.937443
H37   H     H_    0.634170 0.982048 0.311007 0.299462
H38   H     H_    0.722689 0.976497 0.202607 0.277520
H39   H     H_    0.740733 0.965623 0.382773 0.260842
I2    I     I_    0.656374 0.676639 0.841963 -0.387936
O12   O     O_3   0.069529 0.621232 0.280513 -0.632913
C44   C     C_3   0.116586 0.592900 0.167760 0.072077
H40   H     H_    0.072389 0.555174 0.084569 0.141008
H41   H     H_    0.165733 0.523018 0.193691 0.146410
C45   C     C_3   0.162241 0.712156 0.120256 -0.308254
H42   H     H_    0.114345 0.781961 0.089570 0.221978
H43   H     H_    0.204198 0.752858 0.204475 0.225704
C46   C     C_3   0.216415 0.684821 0.001407 -0.982135
H44   H     H_    0.266143 0.617437 0.031023 0.270533
H45   H     H_    0.248412 0.773151 0.968589 0.262679
H46   H     H_    0.175706 0.644893 0.915467 0.259515

loop_
_geom_bond_atom_site_label_1
_geom_bond_atom_site_label_2
_ccdc_geom_bond_type
C2    H1    S    
C35   H20   S    
C24   C25   A    
C44   H40   S    
C32   H14   S    
C43   H37   S    
C3    C6    S    
C45   H43   S    
C43   H39   S    
C7    C8    T    
C38   H26   S    
C23   O5    A    
C4    H18   S    
C1    O2    A    
C36   H21   S    
C37   H25   S    
N1    Zn2   S    
C35   C36   S    
N2    Zn1   S    
C15   C16   A    
C29   C33   S    
C36   H22   S    
C18   C19   A    
O7    Zn1   S    
C42   H35   S    
C13   H6    S    
O8    Zn2   S    
C40   H30   S    
C16   C17   A    
O1    Zn1   S    
C46   H44   S    
O2    Zn2   S    
C9    O10   S    
C41   H34   S    
C9    C10   A    
C12   O4    A    
C2    O9    S    
C35   H19   S    
C44   H41   S    
C31   H13   S    
C21   C22   A    
C46   H45   S    
C27   O11   S    
C39   C40   S    
C45   H42   S    
O6    Zn2   S    
O3    Zn1   S    
O10   C38   S    
C38   H27   S    
O4    Zn2   S    
C23   O6    A    
C29   O7    A    
C10   I1    S    
C30   C34   S    
C25   N2    A    
C37   H24   S    
C18   H7    S    
C28   N2    A    
C39   H28   S    
C25   C26   A    
C42   C43   S    
C36   C37   S    
C19   C23   S    
C21   H10   S    
C31   C32   S    
C8    C12   S    
C5    C34   S    
C22   H11   S    
C42   H36   S    
C17   C18   A    
C31   C34   S    
C1    C16   S    
C43   H38   S    
C31   O12   S    
O11   C41   S    
C41   C42   S    
C11   H5    S    
C12   O3    A    
C28   I2    S    
C39   H29   S    
C40   H31   S    
C44   C45   S    
C46   H46   S    
C22   C24   A    
C5    H16   S    
C3    C4    S    
C26   N1    A    
C20   H9    S    
C38   C39   S    
C29   O8    A    
C20   C21   A    
C14   C19   A    
C5    H17   S    
C37   H23   S    
C27   N1    A    
O5    Zn1   S    
C6    C33   T    
C30   H2    S    
C2    C30   S    
C24   H12   S    
C2    C3    S    
C1    O1    A    
C11   C13   A    
C20   C26   A    
O12   C44   S    
C7    C34   S    
C17   H4    S    
C9    C15   A    
C3    C32   S    
C32   H15   S    
C10   C11   A    
C4    C5    S    
C40   H32   S    
C4    H3    S    
O9    C35   S    
C27   C28   A    
C14   C15   A    
C30   H8    S    
C41   H33   S    
C13   C14   A    
C45   C46   S    
