data_mof_unit_22678.cif
_audit_creation_date              2012-12-10T19:48:34-0500
_audit_creation_method            fapswitch 2.2
_symmetry_space_group_name_H-M    P1
_symmetry_Int_Tables_number       1
_space_group_crystal_system       triclinic
_cell_length_a                    10.827919
_cell_length_b                    10.623669
_cell_length_c                    9.455219
_cell_angle_alpha                 88.104457
_cell_angle_beta                  90.569341
_cell_angle_gamma                 89.721024
_cell_volume                      1086.99135931

loop_
_atom_site_label
_atom_site_type_symbol
_atom_type_description
_atom_site_fract_x
_atom_site_fract_y
_atom_site_fract_z
_atom_type_partial_charge
C1    C     C_R   0.499985 0.259459 0.501887 0.780229
C2    C     C_3   0.402677 0.046323 0.426024 -0.176001
C3    C     C_3   0.500017 0.877665 0.495453 0.028888
C4    C     C_3   0.499983 0.122335 0.504547 0.028888
C5    C     C_3   0.395102 0.955594 0.556815 -0.167947
C6    C     C_3   0.604898 0.044406 0.443185 -0.167947
C7    C     C_3   0.545905 0.601987 0.045246 0.125850
C8    C     C_3   0.454095 0.398013 0.954754 0.125850
C9    C     C_3   0.435103 0.593163 0.944533 -0.121974
C10   C     C_3   0.564897 0.406837 0.055467 -0.121974
C11   C     C_3   0.611400 0.509996 0.950034 -0.055713
C12   C     C_R   0.500015 0.740541 0.498113 0.780229
C13   C     C_3   0.388600 0.490004 0.049966 -0.055713
C14   C     C_R   0.262618 0.504140 0.499010 0.788402
C15   C     C_R   0.737382 0.495860 0.500990 0.788402
C16   C     C_R   0.236359 0.821963 0.187094 -0.133600
C17   C     C_R   0.763640 0.178037 0.812906 -0.133600
C18   C     C_R   0.192932 0.745026 0.298599 -0.085566
C19   C     C_R   0.807068 0.254974 0.701401 -0.085566
C20   C     C_R   0.113945 0.644013 0.270883 0.121565
C21   C     C_R   0.886054 0.355987 0.729116 0.121565
C22   C     C_R   0.078629 0.622507 0.130294 -0.154565
C23   C     C_R   0.871461 0.493387 0.502097 -0.091127
C24   C     C_R   0.921371 0.377493 0.869706 -0.154565
C25   C     C_R   0.122558 0.699381 0.019275 -0.137300
C26   C     C_R   0.877442 0.300619 0.980725 -0.137300
C27   C     C_R   0.201154 0.799371 0.047795 -0.139576
C28   C     C_R   0.798846 0.200629 0.952205 -0.139576
C29   C     C_R   0.930894 0.558739 0.391800 -0.225104
C30   C     C_R   0.069106 0.441261 0.608200 -0.225104
C31   C     C_2   0.599972 0.721983 0.094526 0.382616
C32   C     C_2   0.400028 0.278016 0.905474 0.382616
C33   C     C_R   0.128539 0.506613 0.497902 -0.091127
C34   C     C_R   0.941061 0.432784 0.611907 -0.010106
C35   C     C_R   0.058939 0.567216 0.388093 -0.010106
C36   C     C_3   0.492338 0.033832 0.635372 -0.131364
C37   C     C_3   0.507662 0.966168 0.364628 -0.131364
C38   C     C_3   0.597323 0.953677 0.573976 -0.176001
Cu1   Cu    Cu3+1 0.500030 0.499990 0.643150 0.968136
Cu2   Cu    Cu3+1 0.499970 0.500010 0.356850 0.968136
H1    H     H_    0.234750 0.859433 0.961971 0.124896
H2    H     H_    0.781169 0.234428 0.593745 0.087933
H3    H     H_    0.016521 0.546317 0.107408 0.121541
H4    H     H_    0.983479 0.453683 0.892592 0.121541
H5    H     H_    0.095270 0.681751 0.911302 0.133703
H6    H     H_    0.904730 0.318249 0.088698 0.133703
H7    H     H_    0.876742 0.607583 0.309927 0.207838
H8    H     H_    0.123258 0.392417 0.690073 0.207838
H9    H     H_    0.677277 0.912389 0.633866 0.132184
H10   H     H_    0.322723 0.087610 0.366133 0.132184
H11   H     H_    0.485494 0.061991 0.746633 0.129977
H12   H     H_    0.765250 0.140567 0.038029 0.124896
H13   H     H_    0.514506 0.938009 0.253367 0.129977
H14   H     H_    0.309031 0.916382 0.603011 0.123903
H15   H     H_    0.690969 0.083617 0.396989 0.123903
H16   H     H_    0.556570 0.810861 0.063268 0.005842
H17   H     H_    0.443430 0.189139 0.936732 0.005842
H18   H     H_    0.382408 0.672009 0.892687 0.127014
H19   H     H_    0.617592 0.327991 0.107313 0.127014
H20   H     H_    0.704657 0.521596 0.904267 0.145627
H21   H     H_    0.295343 0.478404 0.095733 0.145627
H22   H     H_    0.295867 0.900336 0.208315 0.119984
H23   H     H_    0.704133 0.099664 0.791685 0.119984
H24   H     H_    0.218831 0.765572 0.406255 0.087933
N1    N     N_3   0.500090 0.499970 0.858290 -0.172281
N2    N     N_3   0.499910 0.500030 0.141710 -0.172281
O1    O     O_R   0.500060 0.316850 0.620870 -0.561093
O2    O     O_2   0.305966 0.279238 0.833471 -0.558715
O3    O     O_R   0.499940 0.683150 0.379130 -0.561093
O4    O     O_R   0.500000 0.316860 0.379090 -0.595691
O5    O     O_R   0.500000 0.683140 0.620910 -0.595691
O6    O     O_R   0.319670 0.500010 0.620890 -0.552488
O7    O     O_R   0.680330 0.499990 0.379110 -0.552488
O8    O     O_R   0.319620 0.500010 0.379110 -0.585915
O9    O     O_R   0.680380 0.499990 0.620890 -0.585914
O10   O     O_2   0.694034 0.720762 0.166529 -0.558715

loop_
_geom_bond_atom_site_label_1
_geom_bond_atom_site_label_2
_ccdc_geom_bond_type
C15   O9    A    
C12   O3    A    
C4    C36   S    
C8    C13   S    
C6    H15   S    
C14   C33   S    
C38   H9    S    
C7    C11   S    
Cu2   O4    S    
C29   H7    S    
C14   O8    A    
C30   H8    S    
C19   C21   A    
C24   C26   A    
C5    C36   S    
Cu2   O7    S    
C9    H18   S    
C9    C13   S    
C3    C12   S    
C2    H10   S    
C17   C19   A    
C20   C35   S    
C3    C38   S    
C22   C25   A    
Cu1   O6    S    
C6    C38   S    
Cu1   O9    S    
C31   H16   S    
C19   H2    S    
C32   O2    D    
C37   H13   S    
C16   C27   A    
C15   C23   S    
C8    N1    S    
Cu2   N2    S    
Cu1   N1    S    
Cu1   O1    S    
C32   H17   S    
C13   N2    S    
C10   N2    S    
C7    C31   S    
Cu2   O3    S    
C30   C34   A    
C8    C32   S    
C5    H14   S    
C4    C6    S    
Cu1   Cu2   S    
C21   C34   S    
C2    C4    S    
C27   H1    S    
C22   H3    S    
C23   C34   A    
C6    C37   S    
C36   H11   S    
C16   C18   A    
C15   O7    A    
C12   O5    A    
C20   C22   A    
C24   H4    S    
C2    C5    S    
C11   H20   S    
C25   H5    S    
C7    C9    S    
C30   C33   A    
C17   C28   A    
C14   O6    A    
C3    C5    S    
C23   C29   A    
C1    O1    A    
C25   C27   A    
C29   C35   A    
C26   C28   A    
C1    O4    A    
C1    C4    S    
C36   C38   S    
C10   H19   S    
C17   H23   S    
C7    N2    S    
C28   H12   S    
C2    C37   S    
C18   H24   S    
C31   O10   D    
C33   C35   A    
Cu2   O8    S    
C18   C20   A    
C9    N1    S    
C10   C11   S    
C26   H6    S    
C13   H21   S    
C3    C37   S    
C8    C10   S    
C21   C24   A    
Cu1   O5    S    
C16   H22   S    
C11   N1    S    
