data_mof_unit_36527.cif
_audit_creation_date              2012-12-10T18:57:11-0500
_audit_creation_method            fapswitch 2.2
_symmetry_space_group_name_H-M    P1
_symmetry_Int_Tables_number       1
_space_group_crystal_system       triclinic
_cell_length_a                    8.730591
_cell_length_b                    10.828929
_cell_length_c                    9.558076
_cell_angle_alpha                 89.94975
_cell_angle_beta                  97.710989
_cell_angle_gamma                 90.382696
_cell_volume                      895.457468784

loop_
_atom_site_label
_atom_site_type_symbol
_atom_type_description
_atom_site_fract_x
_atom_site_fract_y
_atom_site_fract_z
_atom_type_partial_charge
C1    C     C_R   0.495501 0.262543 0.499551 0.808916
C2    C     C_R   0.418775 0.937592 0.368538 0.148432
C3    C     C_R   0.469975 0.871130 0.495032 -0.120333
C4    C     C_R   0.492839 0.936835 0.622005 0.094462
C5    C     C_3   0.617435 0.929656 0.745209 -0.474214
C6    C     C_3   0.621171 0.069836 0.745074 -0.451146
C7    C     C_R   0.634259 0.517197 0.089932 0.261111
C8    C     C_R   0.370154 0.471258 0.058337 -0.089320
C9    C     C_R   0.370112 0.471386 0.909890 -0.083627
C10   C     C_R   0.634523 0.515792 0.942714 0.260791
C11   C     C_3   0.740873 0.624082 0.947989 -0.507793
C12   C     C_R   0.204002 0.498590 0.464038 0.876827
C13   C     C_3   0.738054 0.627849 0.106261 -0.501009
C14   C     C_R   0.492229 0.737719 0.498526 0.806747
C15   C     C_R   0.796061 0.499970 0.536105 0.883856
C16   C     C_2   0.038381 0.494475 0.444651 -0.370484
C17   C     C_2   0.961867 0.501456 0.556132 -0.372120
C18   C     C_R   0.495416 0.063522 0.623224 0.127510
C19   C     C_R   0.475162 0.129989 0.497872 -0.141660
C20   C     C_R   0.424041 0.067284 0.371680 -0.217801
Cu1   Cu    Cu3+1 0.499990 0.499980 0.640670 0.937478
Cu2   Cu    Cu3+1 0.500010 0.500020 0.359330 0.933322
H1    H     H_    0.979245 0.484396 0.337995 0.162065
H2    H     H_    0.264184 0.449267 0.842453 0.139897
H3    H     H_    0.855697 0.599005 0.918712 0.191477
H4    H     H_    0.686331 0.705027 0.891500 0.212896
H5    H     H_    0.852501 0.608065 0.166940 0.192154
H6    H     H_    0.680187 0.710986 0.141777 0.208724
H7    H     H_    0.021166 0.509582 0.663274 0.161954
H8    H     H_    0.393697 0.118939 0.274848 0.165123
H9    H     H_    0.573240 0.891706 0.840227 0.198082
H10   H     H_    0.725324 0.887191 0.718132 0.193992
H11   H     H_    0.581203 0.111103 0.840198 0.200538
H12   H     H_    0.730460 0.109319 0.715846 0.193012
H13   H     H_    0.264254 0.449050 0.099935 0.142436
N1    N     N_R   0.500980 0.500930 0.148050 -0.186402
N2    N     N_R   0.500990 0.500890 0.852140 -0.185570
O1    O     O_R   0.500000 0.319640 0.618810 -0.578467
O2    O     O_R   0.500020 0.319680 0.381230 -0.585910
O3    O     O_R   0.274830 0.499980 0.591380 -0.585412
O4    O     O_R   0.274850 0.500020 0.353800 -0.602352
O5    O     O_R   0.499980 0.680320 0.618770 -0.578369
O6    O     O_R   0.500000 0.680360 0.381190 -0.577059
O7    O     O_R   0.725150 0.499980 0.646200 -0.591475
O8    O     O_R   0.725170 0.500020 0.408620 -0.574473
C21   C     C_3   0.361392 0.875360 0.229985 -0.812608
H14   H     H_    0.271956 0.805086 0.245451 0.236075
H15   H     H_    0.307640 0.942402 0.150360 0.210151
H16   H     H_    0.458834 0.831686 0.185741 0.239575

loop_
_geom_bond_atom_site_label_1
_geom_bond_atom_site_label_2
_ccdc_geom_bond_type
C12   O3    A    
C7    C10   A    
C13   H6    S    
C12   O4    A    
Cu1   O7    S    
C17   H7    S    
C7    N1    A    
C13   H5    S    
C19   C20   A    
C6    H11   S    
C14   O5    A    
C5    H10   S    
C4    C18   A    
C9    N2    A    
C2    C3    A    
C9    H2    S    
C20   H8    S    
Cu1   Cu2   S    
C2    C21   S    
C4    C5    S    
C11   C13   S    
C21   H16   S    
C16   C17   D    
C3    C14   S    
C1    O1    A    
C10   N2    A    
Cu2   O2    S    
C15   O7    A    
C16   H1    S    
C5    C6    S    
C6    C18   S    
C21   H15   S    
C1    C19   S    
Cu2   O4    S    
C10   C11   S    
C1    O2    A    
C2    C20   A    
C3    C4    A    
C12   C16   S    
C7    C13   S    
Cu2   O8    S    
Cu1   N2    S    
C18   C19   A    
C8    N1    A    
C15   C17   S    
C11   H3    S    
C21   H14   S    
C8    C9    A    
Cu1   O5    S    
C11   H4    S    
C8    H13   S    
Cu2   O6    S    
Cu2   N1    S    
Cu1   O1    S    
C6    H12   S    
C14   O6    A    
C5    H9    S    
C15   O8    A    
Cu1   O3    S    
