data_mof_unit_44030.cif
_audit_creation_date              2012-12-11T14:06:35-0500
_audit_creation_method            fapswitch 2.2
_symmetry_space_group_name_H-M    P1
_symmetry_Int_Tables_number       1
_space_group_crystal_system       triclinic
_cell_length_a                    6.914028
_cell_length_b                    17.332658
_cell_length_c                    24.087167
_cell_angle_alpha                 104.509288
_cell_angle_beta                  90.360491
_cell_angle_gamma                 89.783511
_cell_volume                      2794.44575644

loop_
_atom_site_label
_atom_site_type_symbol
_atom_type_description
_atom_site_fract_x
_atom_site_fract_y
_atom_site_fract_z
_atom_type_partial_charge
O1    O     O_R   0.494290 0.391990 0.999150 -0.526858
O2    O     O_R   0.827170 0.534410 0.082350 -0.523110
O3    O     O_R   0.994360 0.608010 0.000850 -0.524342
C1    C     C_R   0.658432 0.549647 0.106161 0.752287
O4    O     O_R   0.824210 0.388010 0.004470 -0.539015
O5    O     O_R   0.991370 0.460560 0.922410 -0.549035
C2    C     C_R   0.653991 0.354653 0.000696 0.769565
O6    O     O_R   0.497270 0.539440 0.077590 -0.524134
O7    O     O_3   0.659770 0.523970 0.973170 -0.364931
V1    V     V_3+5 0.935840 0.495550 0.004980 1.501240
O8    O     O_R   0.320910 0.465590 0.917650 -0.517519
C3    C     C_R   0.152227 0.449091 0.893977 0.700873
O9    O     O_R   0.323870 0.611990 0.995530 -0.545118
C4    C     C_R   0.153354 0.644852 0.997754 0.763947
V2    V     V_3+5 0.435470 0.504450 0.995020 1.517928
O10   O     O_3   0.161670 0.476030 0.026830 -0.352338
C5    C     C_2   0.136329 0.730960 0.000303 -0.420783
H1    H     H_    0.258762 0.768112 0.018228 0.135965
C6    C     C_2   0.970821 0.764937 0.986191 0.116440
C7    C     C_R   0.990340 0.255464 0.628163 0.616480
N1    N     N_R   0.064524 0.330228 0.649262 -0.567948
C8    C     C_R   0.119590 0.376457 0.613732 0.605093
C9    C     C_R   0.101900 0.347983 0.553458 -0.060701
C10   C     C_R   0.024258 0.270704 0.530843 -0.065639
C11   C     C_R   0.961687 0.224293 0.568298 -0.079732
C12   C     C_R   0.162768 0.393308 0.514998 0.275075
C13   C     C_R   0.151735 0.360571 0.455668 -0.191846
C14   C     C_R   0.076900 0.284191 0.432971 -0.051799
C15   C     C_R   0.011611 0.239338 0.470462 -0.010520
C16   C     C_R   0.935549 0.162728 0.447394 -0.023450
C17   C     C_R   0.870437 0.117918 0.484459 -0.181561
C18   C     C_R   0.879259 0.147724 0.544108 -0.034947
C19   C     C_R   0.066092 0.251443 0.373245 0.696115
N2    N     N_R   0.991182 0.176806 0.351581 -0.535711
C20   C     C_R   0.925274 0.132552 0.387368 0.656140
O11   O     O_2   0.948883 0.211315 0.665306 -0.478034
O12   O     O_2   0.195039 0.449080 0.637018 -0.490108
H2    H     H_    0.201173 0.396003 0.427322 0.178174
O13   O     O_2   0.129900 0.293798 0.337089 -0.527276
O14   O     O_2   0.850248 0.059554 0.364919 -0.511517
H3    H     H_    0.808565 0.059378 0.466956 0.173391
C21   C     C_R   0.128534 0.087952 0.263502 -0.062485
C22   C     C_R   0.122708 0.054550 0.203225 -0.107612
C23   C     C_R   0.973950 0.077643 0.169813 -0.147079
C24   C     C_R   0.832144 0.131706 0.197067 -0.205134
H4    H     H_    0.718732 0.148576 0.171126 0.175659
C25   C     C_R   0.834349 0.164996 0.256513 -0.002929
C26   C     C_R   0.985074 0.143670 0.290097 0.244025
C27   C     C_R   0.959484 0.415568 0.742290 -0.072210
H5    H     H_    0.838029 0.435959 0.721126 0.133797
C28   C     C_R   0.983723 0.444273 0.801552 -0.183473
H6    H     H_    0.879346 0.486686 0.825033 0.153270
C29   C     C_R   0.140364 0.419125 0.830415 -0.128949
C30   C     C_R   0.274346 0.363357 0.797898 -0.064841
C31   C     C_R   0.245973 0.334206 0.738416 -0.109851
H7    H     H_    0.346429 0.291243 0.713447 0.160006
C32   C     C_R   0.090055 0.360265 0.710429 0.351066
C33   C     C_R   0.472287 0.875419 0.612630 0.619666
N3    N     N_R   0.501973 0.826214 0.648542 -0.542119
C34   C     C_R   0.543113 0.746859 0.627038 0.617885
C35   C     C_R   0.560837 0.714564 0.567449 -0.020220
C36   C     C_R   0.535816 0.764807 0.530139 -0.005580
C37   C     C_R   0.490407 0.845895 0.552742 -0.033225
C38   C     C_R   0.605079 0.633656 0.544383 -0.165582
C39   C     C_R   0.624869 0.603135 0.485180 -0.179298
C40   C     C_R   0.601315 0.652762 0.447516 -0.020595
C41   C     C_R   0.556753 0.733913 0.470103 -0.015177
C42   C     C_R   0.533535 0.784260 0.432799 -0.039677
C43   C     C_R   0.488147 0.865120 0.455862 -0.121291
C44   C     C_R   0.466328 0.895489 0.515052 -0.121327
C45   C     C_R   0.621388 0.623307 0.387708 0.578481
N4    N     N_R   0.598530 0.672976 0.351800 -0.546195
C46   C     C_R   0.555656 0.752238 0.373261 0.589500
O15   O     O_2   0.426965 0.952739 0.634803 -0.502512
O16   O     O_2   0.569078 0.699530 0.663219 -0.517331
H8    H     H_    0.624758 0.593592 0.572002 0.176111
H9    H     H_    0.659163 0.540513 0.469061 0.164411
O17   O     O_2   0.664508 0.545717 0.365691 -0.516631
O18   O     O_2   0.532623 0.799829 0.337133 -0.512752
H10   H     H_    0.469312 0.905264 0.428255 0.172987
H11   H     H_    0.431797 0.958093 0.531187 0.181121
C47   C     C_R   0.774369 0.661152 0.260926 -0.160027
H12   H     H_    0.883763 0.701026 0.284484 0.146020
C48   C     C_R   0.790800 0.631703 0.201092 0.180799
C49   C     C_R   0.647472 0.579566 0.169956 -0.115555
C50   C     C_R   0.489771 0.557911 0.200496 0.188109
C51   C     C_R   0.475157 0.589573 0.260064 -0.172083
H13   H     H_    0.353681 0.573483 0.283023 0.140265
C52   C     C_R   0.616354 0.641026 0.290516 0.318111
C53   C     C_R   0.325746 0.847962 0.739515 -0.101497
H14   H     H_    0.204780 0.815473 0.716165 0.152874
C54   C     C_R   0.311593 0.878986 0.798882 -0.172210
H15   H     H_    0.179775 0.869470 0.820282 0.129637
C55   C     C_R   0.467484 0.920108 0.830405 -0.068126
C56   C     C_R   0.636439 0.930948 0.800992 -0.223189
H16   H     H_    0.757239 0.962716 0.825049 0.170576
C57   C     C_R   0.651849 0.901228 0.741067 0.007957
C58   C     C_R   0.493992 0.858625 0.709994 0.317282
C59   C     C_2   0.638076 0.269427 0.000617 -0.398002
H17   H     H_    0.771845 0.239042 0.006020 0.184751
C60   C     C_2   0.467184 0.228944 0.995656 -0.192660
O19   O     O_R   0.618210 0.960470 0.922400 -0.548636
O20   O     O_R   0.291310 0.111960 0.995450 -0.535559
O21   O     O_R   0.124210 0.039530 0.077580 -0.529081
C61   C     C_R   0.460321 0.144879 0.998236 0.729996
O22   O     O_R   0.288310 0.965490 0.917650 -0.541306
O23   O     O_R   0.121180 0.892010 0.999220 -0.546829
C62   C     C_R   0.456979 0.950182 0.893884 0.701799
O24   O     O_R   0.621230 0.107990 0.000760 -0.538572
O25   O     O_3   0.455770 0.976060 0.026840 -0.366003
V3    V     V_3+5 0.179680 0.004440 0.995020 1.482586
O26   O     O_R   0.791670 0.888040 0.004570 -0.545691
C63   C     C_R   0.960058 0.853608 0.996963 0.737246
O27   O     O_R   0.794680 0.034510 0.082370 -0.540783
C64   C     C_R   0.964181 0.048252 0.106161 0.756993
V4    V     V_3+5 0.680070 0.995560 0.005010 1.443145
O28   O     O_3   0.953840 0.023940 0.973160 -0.371045
C65   C     C_2   0.675712 0.221423 0.281760 0.854891
O29   O     O_2   0.652628 0.242780 0.333636 -0.528107
O30   O     O_R   0.549700 0.249785 0.245648 -0.674597
H18   H     H_    0.448522 0.287742 0.267525 0.329555
C66   C     C_2   0.439994 0.330856 0.824000 0.822099
O31   O     O_2   0.453676 0.258876 0.818006 -0.514429
O32   O     O_R   0.586235 0.381359 0.852259 -0.654629
H19   H     H_    0.692754 0.351533 0.867283 0.287768
N5    N     N_2   0.819341 0.714449 0.955477 -0.498381
H20   H     H_    0.869126 0.665730 0.924823 0.258199
C67   C     C_3   0.645619 0.747903 0.936971 -0.487361
H21   H     H_    0.551386 0.698968 0.912832 0.179997
H22   H     H_    0.682339 0.786740 0.908213 0.173815
H23   H     H_    0.562060 0.781078 0.974562 0.208399
N6    N     N_2   0.950546 0.656077 0.172600 -0.511013
H24   H     H_    0.075765 0.665159 0.196886 0.261312
C68   C     C_3   0.908946 0.722135 0.147674 -0.441319
H25   H     H_    0.871063 0.776137 0.181808 0.208144
H26   H     H_    0.787723 0.707301 0.116365 0.181299
H27   H     H_    0.038577 0.735348 0.124717 0.194381
N7    N     N_2   0.345256 0.503812 0.171766 -0.498925
H28   H     H_    0.210430 0.513761 0.190378 0.260526
C69   C     C_3   0.401080 0.420755 0.159919 -0.441711
H29   H     H_    0.423676 0.402870 0.200700 0.202995
H30   H     H_    0.535887 0.409774 0.134278 0.170251
H31   H     H_    0.284795 0.383322 0.134885 0.212184
C70   C     C_2   0.834126 0.915614 0.712658 0.766984
O33   O     O_2   0.876612 0.874602 0.665176 -0.563325
O34   O     O_R   0.959369 0.976319 0.740746 -0.645264
H32   H     H_    0.077784 0.980825 0.717144 0.341835
C71   C     C_2   0.278625 0.264852 0.986206 0.825986
O35   O     O_2   0.158054 0.278602 0.024343 -0.579585
O36   O     O_R   0.237427 0.279983 0.933073 -0.644511
H33   H     H_    0.101854 0.301566 0.931077 0.280067
N8    N     N_2   0.238705 0.471603 0.535129 -0.468221
H34   H     H_    0.357839 0.481937 0.512488 0.251061
C72   C     C_3   0.095416 0.534071 0.540659 -0.428099
H35   H     H_    0.036431 0.535059 0.497810 0.171579
H36   H     H_    0.163301 0.592637 0.560156 0.209156
H37   H     H_    0.975454 0.524886 0.568802 0.211077
C73   C     C_2   0.794871 0.096567 0.578451 0.874115
O37   O     O_2   0.661742 0.121346 0.611366 -0.505313
O38   O     O_R   0.861948 0.018457 0.570883 -0.651035
H38   H     H_    0.793789 0.989142 0.596586 0.330888
C74   C     C_2   0.279396 0.062359 0.299615 0.840942
O39   O     O_2   0.364179 0.111850 0.336828 -0.535372
O40   O     O_R   0.322558 0.981416 0.291528 -0.634903
H39   H     H_    0.427030 0.971599 0.318707 0.337477
C75   C     C_2   0.271154 0.995353 0.175492 0.823942
O41   O     O_2   0.221571 0.931731 0.143703 -0.567678
O42   O     O_R   0.467440 0.012346 0.186062 -0.654864
H40   H     H_    0.554396 0.967512 0.164841 0.301785

loop_
_geom_bond_atom_site_label_1
_geom_bond_atom_site_label_2
_ccdc_geom_bond_type
C73   O38   S    
C31   H7    S    
C60   C71   S    
N5    H20   S    
C56   H16   S    
C69   H31   S    
C1    O6    A    
C67   H21   S    
C68   H27   S    
C57   C58   A    
C49   C50   A    
O30   H18   S    
C55   C62   S    
C12   C13   A    
C19   O13   S    
C47   C52   A    
C2    C59   S    
C16   C20   A    
C14   C15   A    
C71   O36   S    
C74   O39   D    
O5    C3    A    
C16   C17   A    
C7    C11   A    
C6    C63   S    
C13   H2    S    
V2    O10   S    
C27   C32   A    
V4    O28   S    
O20   V3    S    
N2    C20   A    
C9    C12   A    
C27   H5    S    
C44   H11   S    
C65   O29   D    
O23   C63   A    
O24   V4    S    
O25   V3    S    
O8    V2    S    
C56   C57   A    
C25   C65   S    
C59   H17   S    
C23   C64   S    
C42   C43   A    
C27   C28   A    
C9    C10   A    
O19   C62   A    
O1    V2    S    
C15   C16   A    
O7    V1    S    
C72   H36   S    
C3    C29   S    
C11   C18   A    
C40   C41   A    
C30   C66   S    
N3    C34   A    
O9    C4    A    
C75   O42   S    
C4    C5    S    
C43   C44   A    
O4    V1    S    
O26   C63   A    
O27   C64   A    
C18   C73   S    
O22   V3    S    
C24   C25   A    
C60   C61   S    
C39   H9    S    
C41   C42   A    
C48   C49   A    
C72   H37   S    
C70   O34   S    
O4    C2    A    
C50   C51   A    
N4    C46   A    
C68   H26   S    
C1    C49   S    
C33   N3    A    
C24   H4    S    
C8    O12   S    
C48   N6    S    
C28   H6    S    
C34   C35   A    
C28   C29   A    
C35   C38   A    
O2    C1    A    
C22   C23   A    
C57   C70   S    
N1    C32   S    
C36   C37   A    
O21   C64   A    
C53   C54   A    
C25   C26   A    
C37   C44   A    
C54   C55   A    
C5    H1    S    
C38   H8    S    
C55   C56   A    
O20   C61   A    
C21   C26   A    
C10   C11   A    
C72   H35   S    
O3    C4    A    
N7    C69   S    
C40   C45   A    
C36   C41   A    
O42   H40   S    
C59   C60   D    
N8    C72   S    
C14   C19   A    
C39   C40   A    
O6    V2    S    
C47   C48   A    
C51   C52   A    
O9    V2    S    
C75   O41   D    
N2    C26   S    
C21   C22   A    
C66   O32   S    
O2    V1    S    
C67   H23   S    
O25   V4    S    
O26   V4    S    
C23   C24   A    
C33   O15   S    
O34   H32   S    
C22   C75   S    
C33   C37   A    
C61   O24   A    
C30   C31   A    
O40   H39   S    
N5    C67   S    
C17   H3    S    
O1    C2    A    
O23   V3    S    
C17   C18   A    
C69   H30   S    
C70   O33   D    
C46   O18   S    
C67   H22   S    
O5    V1    S    
O21   V3    S    
O27   V4    S    
O8    C3    A    
C21   C74   S    
C29   C30   A    
C68   H25   S    
C6    N5    S    
O36   H33   S    
V3    O28   S    
O38   H38   S    
C31   C32   A    
C20   O14   S    
C42   C46   A    
C45   N4    A    
C74   O40   S    
V1    O10   S    
C38   C39   A    
N4    C52   S    
C53   H14   S    
C73   O37   D    
O22   C62   A    
C69   H29   S    
C12   N8    S    
C54   H15   S    
C5    C6    D    
C19   N2    A    
N6    H24   S    
C71   O35   D    
O7    V2    S    
C35   C36   A    
C65   O30   S    
C34   O16   S    
O19   V4    S    
N7    H28   S    
C50   N7    S    
C7    O11   S    
C10   C15   A    
C7    N1    A    
C51   H13   S    
N6    C68   S    
C47   H12   S    
C13   C14   A    
O3    V1    S    
N3    C58   S    
C8    C9    A    
C43   H10   S    
N8    H34   S    
C66   O31   D    
N1    C8    A    
C53   C58   A    
C45   O17   S    
O32   H19   S    
