data_mof_unit_31275.cif
_audit_creation_date              2012-12-10T20:29:26-0500
_audit_creation_method            fapswitch 2.2
_symmetry_space_group_name_H-M    P1
_symmetry_Int_Tables_number       1
_space_group_crystal_system       triclinic
_cell_length_a                    18.715722
_cell_length_b                    18.498423
_cell_length_c                    18.924194
_cell_angle_alpha                 109.359533
_cell_angle_beta                  109.798748
_cell_angle_gamma                 108.936773
_cell_volume                      5063.0745761

loop_
_atom_site_label
_atom_site_type_symbol
_atom_type_description
_atom_site_fract_x
_atom_site_fract_y
_atom_site_fract_z
_atom_type_partial_charge
C1    C     C_R   0.381528 0.502744 0.380633 0.884182
C2    C     C_R   0.783291 0.173425 0.751477 0.055096
C3    C     C_R   0.997435 0.734657 0.320133 -0.024235
C4    C     C_R   0.078719 0.834215 0.120657 -0.142217
C5    C     C_R   0.836651 0.797939 0.807002 -0.113490
C6    C     C_R   0.082495 0.836169 0.048941 -0.128015
C7    C     C_R   0.009646 0.778398 0.966535 -0.125141
C8    C     C_R   0.931578 0.721066 0.955856 -0.067963
C9    C     C_R   0.925402 0.720219 0.027643 0.162261
C10   C     C_R   0.001527 0.774927 0.110426 0.096265
C11   C     C_R   0.310532 0.297599 0.845688 -0.136548
C12   C     C_R   0.228251 0.280979 0.835552 -0.142575
C13   C     C_R   0.708376 0.175515 0.749737 -0.279215
C14   C     C_R   0.167041 0.278310 0.765226 0.139707
C15   C     C_R   0.189625 0.293587 0.705882 -0.142208
C16   C     C_R   0.272432 0.311335 0.716976 -0.126735
C17   C     C_2   0.803687 0.869004 0.921003 0.315371
C18   C     C_3   0.676125 0.789826 0.118724 -0.431509
C19   C     C_3   0.583601 0.730382 0.040273 -0.333900
C20   C     C_3   0.575688 0.752526 0.968038 -0.895621
C21   C     C_3   0.320961 0.916140 0.575454 -0.452080
C22   C     C_3   0.301109 0.916456 0.647937 -0.333760
C23   C     C_3   0.300393 0.839527 0.661604 -0.913148
C24   C     C_R   0.680228 0.228302 0.722972 0.206060
C25   C     C_2   0.837585 0.582122 0.278187 0.332168
C26   C     C_3   0.839954 0.656949 0.014431 -0.469620
C27   C     C_3   0.762605 0.666492 0.965235 -0.304594
C28   C     C_3   0.678757 0.602608 0.954933 -0.916691
C29   C     C_2   0.807754 0.114690 0.779180 0.365172
C30   C     C_3   0.603702 0.235090 0.727737 -0.446202
C31   C     C_3   0.623822 0.277270 0.821995 -0.311986
C32   C     C_3   0.557407 0.304639 0.831168 -0.934482
C33   C     C_2   0.612561 0.812222 0.357519 0.343135
C34   C     C_R   0.825236 0.817917 0.576107 -0.206171
C35   C     C_R   0.724905 0.275777 0.693176 -0.141762
C36   C     C_R   0.800921 0.276716 0.697100 -0.250894
C37   C     C_R   0.832110 0.227817 0.728079 0.099339
C38   C     C_R   0.813011 0.811021 0.496828 -0.062669
C39   C     C_R   0.734552 0.745109 0.419064 0.067063
C40   C     C_R   0.673756 0.680534 0.421670 -0.165627
C41   C     C_R   0.790560 0.837620 0.832550 0.100258
C42   C     C_R   0.686072 0.687960 0.501328 -0.073128
C43   C     C_R   0.759597 0.759953 0.579494 -0.009037
C44   C     C_R   0.654303 0.780852 0.309390 0.044698
C45   C     C_R   0.640830 0.790048 0.235959 -0.279419
C46   C     C_R   0.684490 0.770225 0.191498 0.185594
C47   C     C_R   0.620483 0.620691 0.500828 0.861742
C48   C     C_R   0.740673 0.738455 0.219672 -0.140676
C49   C     C_R   0.753715 0.727808 0.291852 -0.179988
C50   C     C_R   0.711068 0.748221 0.337243 0.097636
C51   C     C_R   0.430292 0.772377 0.555315 -0.156753
C52   C     C_R   0.332608 0.312840 0.786481 -0.116441
C53   C     C_R   0.372682 0.689111 0.482012 -0.089264
C54   C     C_R   0.375846 0.670208 0.405168 0.104775
C55   C     C_R   0.433409 0.737856 0.401260 -0.147893
C56   C     C_R   0.488772 0.822081 0.473959 -0.068049
C57   C     C_R   0.488206 0.838943 0.551297 -0.153637
C58   C     C_R   0.249179 0.578544 0.258351 -0.255567
C59   C     C_R   0.621908 0.501346 0.619365 0.867393
C60   C     C_R   0.185561 0.497735 0.184209 -0.071913
C61   C     C_R   0.184120 0.418877 0.176053 -0.010820
C62   C     C_R   0.250226 0.423347 0.241923 -0.260130
C63   C     C_R   0.077436 0.324246 0.818829 -0.275075
C64   C     C_R   0.314495 0.504093 0.316199 -0.076922
C65   C     C_R   0.312939 0.582790 0.326367 -0.002861
C66   C     C_R   0.063278 0.267058 0.111168 -0.144710
C67   C     C_R   0.003853 0.181789 0.041509 -0.163203
C68   C     C_R   0.997585 0.159740 0.960761 -0.080744
C69   C     C_R   0.049792 0.223275 0.949174 -0.096935
C70   C     C_R   0.108763 0.309005 0.018507 -0.165520
C71   C     C_R   0.378520 0.379630 0.498242 0.877180
C72   C     C_R   0.116202 0.331222 0.100143 0.137188
C73   C     C_R   0.197482 0.511015 0.536350 -0.144559
C74   C     C_R   0.997181 0.312665 0.811393 -0.091617
C75   C     C_R   0.218906 0.447947 0.546301 -0.135939
C76   C     C_R   0.217553 0.385439 0.478147 0.135826
C77   C     C_R   0.194146 0.386425 0.399875 -0.149542
C78   C     C_R   0.171489 0.448838 0.389794 -0.136868
C79   C     C_R   0.173291 0.511126 0.457973 -0.128945
C80   C     C_R   0.171795 0.249134 0.485783 -0.258742
C81   C     C_R   0.185804 0.182393 0.495258 -0.083165
C82   C     C_R   0.262936 0.180012 0.504837 0.005473
C83   C     C_R   0.732291 0.848903 0.773277 -0.275166
C84   C     C_R   0.325052 0.245480 0.504380 -0.258272
C85   C     C_R   0.918151 0.239437 0.739729 0.062832
C86   C     C_R   0.311155 0.312575 0.495863 -0.072941
C87   C     C_R   0.234604 0.315408 0.487039 -0.011605
C88   C     C_R   0.348417 0.137646 0.599516 -0.176717
C89   C     C_R   0.361487 0.073980 0.617058 -0.181745
C90   C     C_R   0.308667 0.984485 0.554230 0.177879
C91   C     C_R   0.243770 0.959757 0.472449 -0.150646
C92   C     C_R   0.230124 0.023490 0.455093 -0.146564
C93   C     C_R   0.281686 0.112693 0.519076 0.135249
C94   C     C_R   0.785236 0.534663 0.620551 -0.182847
C95   C     C_R   0.721217 0.821959 0.690296 -0.038789
C96   C     C_R   0.921234 0.179180 0.675466 -0.152528
C97   C     C_R   0.859060 0.539841 0.615444 -0.145000
C98   C     C_R   0.917233 0.525716 0.670378 -0.149672
C99   C     C_R   0.903024 0.508633 0.732266 -0.188079
C100  C     C_R   0.829811 0.505737 0.740411 0.088370
C101  C     C_R   0.768102 0.514398 0.680875 0.090426
C102  C     C_R   0.690703 0.502224 0.683334 -0.098240
C103  C     C_R   0.674548 0.482767 0.743079 -0.241954
C104  C     C_R   0.735704 0.476854 0.802672 -0.231118
C105  C     C_R   0.814413 0.491631 0.804321 -0.127529
C106  C     C_R   0.997644 0.876671 0.380676 0.868460
C107  C     C_R   0.001629 0.189717 0.684243 -0.094986
C108  C     C_R   0.766801 0.781554 0.664850 0.128266
C109  C     C_R   0.879768 0.878306 0.498402 0.881431
C110  C     C_R   0.001066 0.121699 0.619502 0.888222
C111  C     C_R   0.120095 0.118415 0.498165 0.874525
C112  C     C_R   0.998448 0.379346 0.878636 0.871228
C113  C     C_R   0.119846 0.498013 0.118287 0.876156
C114  C     C_R   0.001034 0.620588 0.120779 0.876530
C115  C     C_R   0.880090 0.495887 0.875697 0.869219
C116  C     C_R   0.055431 0.748295 0.537565 -0.138093
C117  C     C_R   0.060774 0.763812 0.471787 -0.088240
C118  C     C_R   0.080709 0.262786 0.755802 -0.010803
C119  C     C_R   0.988821 0.714303 0.387543 -0.002845
C120  C     C_R   0.824793 0.769885 0.723672 -0.247162
C121  C     C_R   0.912617 0.642438 0.367901 0.005135
C122  C     C_R   0.908450 0.627955 0.435309 -0.105648
C123  C     C_R   0.979090 0.681290 0.519594 -0.176444
C124  C     C_R   0.000463 0.674386 0.255770 -0.264102
C125  C     C_R   0.003028 0.687694 0.188201 -0.084197
C126  C     C_R   0.005107 0.763083 0.184743 -0.012694
C127  C     C_R   0.003983 0.824435 0.249556 -0.260248
C128  C     C_R   0.999747 0.810546 0.316490 -0.080227
H1    H     H_    0.776625 0.724504 0.187589 0.127242
H2    H     H_    0.696512 0.879924 0.791656 0.115858
H3    H     H_    0.068791 0.282944 0.173935 0.124983
H4    H     H_    0.963501 0.132474 0.050406 0.143843
H5    H     H_    0.952708 0.093181 0.907422 0.169663
H6    H     H_    0.045315 0.205616 0.886723 0.170790
H7    H     H_    0.150071 0.357257 0.009246 0.110174
H8    H     H_    0.155997 0.559506 0.450072 0.128166
H9    H     H_    0.198782 0.559243 0.589081 0.127247
H10   H     H_    0.236075 0.447411 0.606781 0.119951
H11   H     H_    0.191762 0.337932 0.346374 0.114516
H12   H     H_    0.800772 0.708165 0.315555 0.121627
H13   H     H_    0.151914 0.448675 0.328990 0.147596
H14   H     H_    0.677584 0.833132 0.645933 0.155708
H15   H     H_    0.112595 0.250788 0.479508 0.160649
H16   H     H_    0.385192 0.245223 0.512397 0.149972
H17   H     H_    0.388436 0.206226 0.649454 0.135424
H18   H     H_    0.411649 0.094122 0.680317 0.128706
H19   H     H_    0.202524 0.891145 0.422695 0.130974
H20   H     H_    0.178333 0.003274 0.392593 0.115196
H21   H     H_    0.613892 0.471267 0.743020 0.157057
H22   H     H_    0.741978 0.546450 0.576773 0.147150
H23   H     H_    0.531912 0.903814 0.607783 0.121939
H24   H     H_    0.870168 0.553191 0.567557 0.129769
H25   H     H_    0.861758 0.740502 0.705507 0.143233
H26   H     H_    0.973457 0.527691 0.664839 0.135507
H27   H     H_    0.948440 0.494974 0.771120 0.158942
H28   H     H_    0.722036 0.462392 0.848922 0.173617
H29   H     H_    0.975321 0.670007 0.571052 0.128773
H30   H     H_    0.110522 0.788129 0.602690 0.133510
H31   H     H_    0.121084 0.814987 0.486436 0.146933
H32   H     H_    0.850537 0.575105 0.422872 0.171835
H33   H     H_    0.999258 0.615955 0.257510 0.158894
H34   H     H_    0.429643 0.785379 0.615048 0.123910
H35   H     H_    0.005149 0.882607 0.247168 0.163942
H36   H     H_    0.882711 0.789842 0.851747 0.161520
H37   H     H_    0.137044 0.876307 0.183821 0.128331
H38   H     H_    0.142715 0.880789 0.056988 0.128128
H39   H     H_    0.013661 0.778069 0.910710 0.119883
H40   H     H_    0.876200 0.676794 0.891177 0.122645
H41   H     H_    0.396516 0.326419 0.794756 0.127254
H42   H     H_    0.357371 0.299181 0.899729 0.133504
H43   H     H_    0.212049 0.269867 0.882178 0.123007
H44   H     H_    0.143621 0.292857 0.651873 0.105264
H45   H     H_    0.326388 0.639119 0.485475 0.144621
H46   H     H_    0.290302 0.324477 0.672081 0.140480
H47   H     H_    0.883185 0.872661 0.635920 0.165199
H48   H     H_    0.137754 0.381240 0.874206 0.158435
H49   H     H_    0.860880 0.122638 0.619661 0.164025
H50   H     H_    0.671839 0.136223 0.769761 0.112392
H51   H     H_    0.702340 0.314198 0.669077 0.150482
H52   H     H_    0.836653 0.317091 0.677402 0.144070
H53   H     H_    0.614144 0.627773 0.362252 0.142160
H54   H     H_    0.599328 0.816979 0.215638 0.123084
H55   H     H_    0.764586 0.895856 0.938214 0.060776
H56   H     H_    0.434525 0.725511 0.341675 0.126895
H57   H     H_    0.586442 0.820669 0.989867 0.259259
H58   H     H_    0.624318 0.746883 0.948783 0.266092
H59   H     H_    0.509325 0.706258 0.910776 0.248369
H60   H     H_    0.567180 0.660358 0.015728 0.227145
H61   H     H_    0.535467 0.738905 0.059056 0.218203
H62   H     H_    0.692968 0.859969 0.142561 0.202064
H63   H     H_    0.723391 0.781163 0.098586 0.206938
H64   H     H_    0.253935 0.776010 0.600166 0.262001
H65   H     H_    0.366775 0.847270 0.686440 0.257604
H66   H     H_    0.279968 0.838488 0.710085 0.245553
H67   H     H_    0.531959 0.874518 0.470420 0.163162
H68   H     H_    0.351167 0.978717 0.709646 0.215147
H69   H     H_    0.236772 0.912753 0.631979 0.213886
H70   H     H_    0.277549 0.849640 0.516980 0.202183
H71   H     H_    0.389370 0.930381 0.596166 0.203122
H72   H     H_    0.836336 0.595250 0.226176 0.086645
H73   H     H_    0.665312 0.533845 0.922227 0.263730
H74   H     H_    0.684196 0.618844 0.019159 0.264278
H75   H     H_    0.622897 0.606900 0.914932 0.259948
H76   H     H_    0.776026 0.734835 0.001179 0.251291
H77   H     H_    0.752387 0.652816 0.899886 0.238606
H78   H     H_    0.247372 0.638251 0.264205 0.150208
H79   H     H_    0.827279 0.589097 0.979251 0.203558
H80   H     H_    0.843877 0.666804 0.077014 0.209363
H81   H     H_    0.777256 0.086678 0.810290 0.045531
H82   H     H_    0.554656 0.350589 0.805920 0.254577
H83   H     H_    0.491856 0.245967 0.795760 0.258577
H84   H     H_    0.576684 0.338560 0.900523 0.260221
H85   H     H_    0.623586 0.229911 0.845947 0.209426
H86   H     H_    0.689685 0.336419 0.863747 0.240970
H87   H     H_    0.587462 0.274987 0.698790 0.206306
H88   H     H_    0.546098 0.168193 0.689228 0.193809
H89   H     H_    0.250858 0.363108 0.235705 0.161695
H90   H     H_    0.560060 0.823676 0.326769 0.039603
O1    O     O_R   0.408360 0.551710 0.460090 -0.619361
O2    O     O_R   0.948270 0.356620 0.908410 -0.607109
O3    O     O_R   0.143330 0.551680 0.091590 -0.627151
O4    O     O_R   0.408390 0.448280 0.356670 -0.623622
O5    O     O_R   0.039890 0.448260 0.091620 -0.613818
O6    O     O_R   0.051700 0.643310 0.091570 -0.611783
O7    O     O_R   0.948260 0.539890 0.091600 -0.627085
O8    O     O_R   0.960080 0.551670 0.908360 -0.626386
O9    O     O_R   0.856640 0.448250 0.908390 -0.631693
O10   O     O_R   0.591600 0.643340 0.551710 -0.612635
O11   O     O_R   0.591630 0.539900 0.448290 -0.627580
O12   O     O_R   0.948280 0.908380 0.356650 -0.622459
O13   O     O_R   0.591610 0.551720 0.643330 -0.617571
O14   O     O_R   0.591640 0.448290 0.539910 -0.625495
O15   O     O_R   0.408370 0.460100 0.551710 -0.619695
O16   O     O_R   0.408400 0.356660 0.448290 -0.621924
O17   O     O_R   0.051730 0.908360 0.460070 -0.625757
O18   O     O_2   0.858691 0.866097 0.975915 -0.593258
O19   O     O_2   0.775273 0.517048 0.261238 -0.570542
O20   O     O_2   0.859366 0.094242 0.765352 -0.599888
O21   O     O_2   0.637747 0.828857 0.432370 -0.581261
O22   O     O_R   0.960110 0.908350 0.551690 -0.626820
O23   O     O_R   0.856660 0.908370 0.448270 -0.603533
O24   O     O_R   0.051720 0.091580 0.643310 -0.607829
O25   O     O_R   0.948270 0.091600 0.539890 -0.629890
O26   O     O_R   0.143340 0.091590 0.551680 -0.601785
O27   O     O_R   0.039890 0.091610 0.448270 -0.628122
O28   O     O_R   0.051710 0.460040 0.908380 -0.637408
Zn1   Zn    Zn3+2 0.499980 0.569070 0.569050 0.959854
Zn2   Zn    Zn3+2 0.500020 0.430930 0.430950 0.960707
Zn3   Zn    Zn3+2 0.069080 0.999960 0.569030 0.963303
Zn4   Zn    Zn3+2 0.930920 0.999990 0.430930 0.963501
Zn5   Zn    Zn3+2 0.069060 0.569020 0.999970 0.941527
Zn6   Zn    Zn3+2 0.930920 0.430910 0.000010 0.952762

loop_
_geom_bond_atom_site_label_1
_geom_bond_atom_site_label_2
_ccdc_geom_bond_type
O5    Zn6   S    
C51   C53   A    
O27   Zn4   S    
C98   H26   S    
C111  O26   A    
C116  C123  A    
C117  H31   S    
C73   C75   A    
C108  C120  A    
C22   H69   S    
O14   Zn2   S    
C35   C36   A    
C36   H52   S    
C100  C101  A    
C21   H70   S    
C55   C56   A    
C59   O13   A    
C6    H38   S    
C91   H19   S    
C81   C82   A    
C53   H45   S    
C7    C8    A    
C31   H86   S    
C53   C54   A    
C4    H37   S    
C112  O28   A    
C79   H8    S    
C26   C27   S    
C69   H6    S    
C110  O24   A    
C2    C29   S    
C28   H73   S    
C37   C85   S    
C36   C37   A    
C84   C86   A    
C66   H3    S    
C80   C87   A    
C69   C70   A    
C117  C119  A    
C74   C112  S    
C30   C31   S    
C32   H84   S    
C85   C96   A    
C109  O22   A    
C20   H58   S    
C92   H20   S    
C84   H16   S    
C58   C60   A    
C13   H50   S    
C41   C83   A    
C106  C128  S    
C116  C117  A    
C51   H34   S    
C18   C19   S    
C71   O16   A    
C2    C13   A    
O3    Zn5   S    
C104  C105  A    
C62   C64   A    
C34   H47   S    
C8    H40   S    
O6    Zn5   S    
O16   Zn2   S    
C30   H87   S    
C54   C55   A    
O11   Zn2   S    
O4    Zn2   S    
C110  O25   A    
C97   H24   S    
C66   C72   A    
C47   O10   A    
C26   H79   S    
C94   C101  A    
C68   C69   A    
C14   C118  S    
C68   H5    S    
C99   H27   S    
C9    C26   S    
C55   H56   S    
C51   C57   A    
C25   O19   D    
C96   H49   S    
C103  C104  A    
C9    C10   A    
C107  C118  A    
C56   C57   A    
C77   C78   A    
O28   Zn5   S    
C40   C42   A    
C66   C67   A    
C20   H57   S    
O22   Zn3   S    
C82   C93   S    
C21   C22   S    
C116  H30   S    
O24   Zn3   S    
C22   H68   S    
C60   C113  S    
C61   C62   A    
C21   H71   S    
C59   O14   A    
C18   C46   S    
C16   H46   S    
C23   H64   S    
C112  O2    A    
C45   H54   S    
C97   C98   A    
C12   H43   S    
C17   C41   S    
C21   C90   S    
C119  C121  A    
C35   H51   S    
O8    Zn5   S    
C46   C48   A    
C18   H63   S    
C124  C125  A    
C24   C35   A    
C106  O17   A    
C34   C43   A    
C5    C120  A    
C5    C41   A    
C27   H76   S    
C101  C102  A    
C81   C111  S    
C63   H48   S    
C76   C77   A    
C122  H32   S    
C115  O8    A    
C4    C6    A    
O26   Zn3   S    
C78   H13   S    
C91   C92   A    
C54   C65   S    
C32   H83   S    
C113  O5    A    
C78   C79   A    
C8    C9    A    
C123  H29   S    
C94   C97   A    
C33   H90   S    
C26   H80   S    
C67   C68   A    
C13   C24   A    
C60   C61   A    
C27   H77   S    
C49   H12   S    
C75   C76   A    
C62   H89   S    
C115  O9    A    
C33   O21   D    
C19   H60   S    
C3    C128  A    
C56   H67   S    
C32   H82   S    
C17   H55   S    
C58   C65   A    
C99   C100  A    
C109  O23   A    
C95   H14   S    
C111  O27   A    
C80   H15   S    
C83   C95   A    
C23   H65   S    
C100  C105  A    
C88   H17   S    
C1    O1    A    
O10   Zn1   S    
C104  H28   S    
C38   C109  S    
C89   H18   S    
C59   C102  S    
C76   C87   S    
C113  O3    A    
C121  C122  A    
C3    C119  S    
C19   H61   S    
C47   O11   A    
C3    C124  A    
C61   C72   S    
C48   C49   A    
C92   C93   A    
C96   C107  A    
C12   C14   A    
C83   H2    S    
C49   C50   A    
O7    Zn6   S    
C82   C84   A    
O2    Zn6   S    
C125  C126  A    
C107  C110  S    
O1    Zn1   S    
C48   H1    S    
C45   C46   A    
C42   C43   A    
O17   Zn3   S    
C4    C10   A    
C127  C128  A    
C1    C64   S    
C29   O20   D    
C39   C40   A    
C44   C45   A    
C86   C87   A    
C40   H53   S    
C17   O18   D    
C44   C50   A    
C16   C52   A    
C114  C125  S    
C7    H39   S    
C88   C93   A    
C18   H62   S    
C127  H35   S    
C34   C38   A    
C28   H75   S    
C105  C115  S    
C31   C32   S    
O13   Zn1   S    
O23   Zn4   S    
C77   H11   S    
C80   C81   A    
C73   C79   A    
C75   H10   S    
C52   H41   S    
C63   C118  A    
C11   C12   A    
C29   H81   S    
C6    C7    A    
C31   H85   S    
C63   C74   A    
C94   H22   S    
C5    H36   S    
C124  H33   S    
C11   C52   A    
C28   H74   S    
C64   C65   A    
C19   C20   S    
C89   C90   A    
C25   H72   S    
O12   Zn4   S    
C114  O7    A    
O15   Zn1   S    
C2    C37   A    
C90   C91   A    
C38   C39   A    
C73   H9    S    
C126  C127  A    
C57   H23   S    
C23   H66   S    
C120  H25   S    
C67   H4    S    
C15   H44   S    
C22   C23   S    
C42   C47   S    
C71   O15   A    
C74   C85   A    
C102  C103  A    
C43   C108  S    
C33   C44   S    
C24   C30   S    
C71   C86   S    
C95   C108  A    
C103  H21   S    
C30   H88   S    
C106  O12   A    
C39   C50   S    
C88   C89   A    
C11   H42   S    
C98   C99   A    
C70   H7    S    
C27   C28   S    
O25   Zn4   S    
C58   H78   S    
C14   C15   A    
C1    O4    A    
C70   C72   A    
C114  O6    A    
C122  C123  A    
C10   C126  S    
C25   C121  S    
C15   C16   A    
O9    Zn6   S    
C20   H59   S    
