data_mof_unit_8618.cif
_audit_creation_date              2012-12-11T18:44:39-0500
_audit_creation_method            fapswitch 2.2
_symmetry_space_group_name_H-M    P1
_symmetry_Int_Tables_number       1
_space_group_crystal_system       triclinic
_cell_length_a                    8.229304
_cell_length_b                    14.302078
_cell_length_c                    18.840715
_cell_angle_alpha                 97.921361
_cell_angle_beta                  91.445626
_cell_angle_gamma                 91.480152
_cell_volume                      2194.65965341

loop_
_atom_site_label
_atom_site_type_symbol
_atom_type_description
_atom_site_fract_x
_atom_site_fract_y
_atom_site_fract_z
_atom_type_partial_charge
Ba1   Ba    Ba6+2 0.843240 0.541620 0.463500 1.665535
Ba2   Ba    Ba6+2 0.346570 0.458460 0.536510 1.678377
C1    C     C_3   0.627300 0.878463 0.278049 -0.218317
C2    C     C_3   0.610127 0.780943 0.301893 0.329518
C3    C     C_3   0.575131 0.289545 0.312033 0.643331
C4    C     C_3   0.496084 0.255396 0.238609 -0.267445
C5    C     C_3   0.134792 0.262446 0.745489 0.245723
C6    C     C_3   0.200992 0.241137 0.818848 0.253327
C7    C     C_3   0.561061 0.221390 0.692320 0.366610
C8    C     C_3   0.556285 0.122339 0.713347 -0.327026
C9    C     C_R   0.001030 0.460964 0.048833 -0.009321
C10   C     C_R   0.911248 0.411520 0.095658 0.041368
C11   C     C_R   0.752881 0.377803 0.073826 -0.032745
C12   C     C_3   0.088858 0.730572 0.258967 0.310446
C13   C     C_R   0.688966 0.387761 0.006116 -0.104342
C14   C     C_R   0.782589 0.429689 0.957444 0.029343
C15   C     C_R   0.939206 0.466991 0.978569 0.026054
C16   C     C_R   0.721554 0.433557 0.887898 -0.060179
C17   C     C_R   0.816725 0.470959 0.836835 -0.027542
C18   C     C_R   0.973233 0.511109 0.858009 -0.052936
C19   C     C_R   0.033756 0.509415 0.929356 -0.003930
C20   C     C_R   0.762118 0.466308 0.764521 0.022603
C21   C     C_R   0.863531 0.499626 0.714604 -0.309273
C22   C     C_R   0.013449 0.544819 0.734401 0.035160
C23   C     C_3   0.060592 0.751718 0.182797 -0.315436
C24   C     C_R   0.067707 0.554122 0.808419 -0.090409
C25   C     C_R   0.155119 0.500497 0.071026 0.005848
C26   C     C_R   0.212222 0.498823 0.142819 0.001676
C27   C     C_R   0.120663 0.450810 0.191071 -0.105176
C28   C     C_R   0.984528 0.394109 0.161652 -0.019886
C29   C     C_R   0.211842 0.605115 0.835164 0.384700
C30   C     C_R   0.283243 0.592970 0.902834 -0.012652
C31   C     C_R   0.189985 0.547830 0.951103 -0.040005
C32   C     C_R   0.249912 0.544219 0.022138 0.027489
C33   C     C_R   0.441974 0.629708 0.924953 -0.055300
C34   C     C_3   0.183220 0.746898 0.607700 0.308697
C35   C     C_R   0.501057 0.626703 0.995878 -0.073874
C36   C     C_R   0.404646 0.583997 0.044503 0.003697
C37   C     C_R   0.364906 0.541678 0.165195 -0.066318
C38   C     C_R   0.461518 0.578904 0.114932 -0.091692
C39   C     C_R   0.416571 0.547702 0.237667 0.015492
C40   C     C_R   0.313109 0.515072 0.287212 -0.224073
C41   C     C_R   0.171952 0.460880 0.265871 0.000405
C42   C     C_R   0.696436 0.938119 0.538113 -0.034465
C43   C     C_R   0.511324 0.799611 0.496832 0.046354
C44   C     C_R   0.369685 0.764280 0.458679 -0.283057
C45   C     C_3   0.199665 0.854201 0.622108 -0.384654
C46   C     C_R   0.265506 0.824646 0.428703 0.010344
C47   C     C_R   0.309555 0.919224 0.429998 -0.143788
C48   C     C_R   0.455452 0.955476 0.464170 -0.007071
C49   C     C_R   0.555981 0.896972 0.500197 -0.030548
C50   C     C_R   0.639745 0.090756 0.500324 -0.033203
C51   C     C_R   0.740867 0.033380 0.536955 -0.000887
C52   C     C_R   0.683529 0.187007 0.501185 -0.009166
C53   C     C_R   0.824300 0.224653 0.538284 -0.277520
C54   C     C_R   0.929661 0.167049 0.569852 0.032608
C55   C     C_R   0.887272 0.071769 0.570600 -0.131067
C56   C     C_3   0.011139 0.250879 0.390228 0.326657
C57   C     C_R   0.498311 0.050525 0.464138 -0.041556
C58   C     C_3   0.969350 0.144628 0.373504 -0.242973
C59   C     C_3   0.718012 0.695736 0.676585 0.294740
C60   C     C_3   0.793884 0.753437 0.743604 -0.336820
H1    H     H_    0.689027 0.780838 0.350494 0.098905
H2    H     H_    0.304159 0.875828 0.659777 0.140612
H3    H     H_    0.219203 0.883994 0.571766 0.063623
H4    H     H_    0.086793 0.883822 0.645975 0.114787
H5    H     H_    0.906587 0.287602 0.415666 -0.050518
H6    H     H_    0.117475 0.261726 0.427726 0.090411
H7    H     H_    0.841332 0.134569 0.353210 0.033818
H8    H     H_    0.980668 0.111393 0.423121 0.024599
H9    H     H_    0.816577 0.662079 0.644335 0.015342
H10   H     H_    0.634335 0.640295 0.692008 0.035680
H11   H     H_    0.613497 0.933588 0.324944 0.005024
H12   H     H_    0.889711 0.802511 0.728637 0.123018
H13   H     H_    0.848037 0.706568 0.779392 0.063524
H14   H     H_    0.699763 0.796258 0.772772 0.188725
H15   H     H_    0.481951 0.768249 0.315938 -0.114804
H16   H     H_    0.707844 0.296492 0.305909 0.083550
H17   H     H_    0.363314 0.243271 0.243746 0.103625
H18   H     H_    0.514358 0.309499 0.202467 0.069964
H19   H     H_    0.549624 0.188115 0.214901 0.150278
H20   H     H_    0.750623 0.888001 0.256838 0.147445
H21   H     H_    0.120756 0.698570 0.144473 0.078969
H22   H     H_    0.192480 0.330280 0.735821 0.000713
H23   H     H_    0.167680 0.298821 0.861317 0.054658
H24   H     H_    0.335227 0.239812 0.820460 0.079238
H25   H     H_    0.672942 0.229442 0.662577 -0.014195
H26   H     H_    0.456778 0.228454 0.655944 0.108531
H27   H     H_    0.665784 0.111427 0.746438 0.168485
H28   H     H_    0.553097 0.069317 0.664402 0.064985
H29   H     H_    0.032795 0.659958 0.262814 0.081683
H30   H     H_    0.446374 0.110888 0.744068 0.126160
H31   H     H_    0.674881 0.345898 0.109411 0.122921
H32   H     H_    0.566598 0.360931 0.991351 0.082207
H33   H     H_    0.823684 0.491095 0.658857 0.067388
H34   H     H_    0.600114 0.405216 0.873859 0.095658
H35   H     H_    0.582801 0.604078 0.130891 0.132869
H36   H     H_    0.222063 0.729320 0.269626 -0.057411
H37   H     H_    0.348296 0.527584 0.343493 0.096245
H38   H     H_    0.334250 0.690580 0.456824 0.065250
H39   H     H_    0.227708 0.964770 0.406011 0.102240
H40   H     H_    0.969211 0.027732 0.596196 0.077410
H41   H     H_    0.857072 0.298579 0.539128 0.062521
H42   H     H_    0.773680 0.897292 0.568451 0.099399
H43   H     H_    0.418827 0.092572 0.435918 0.154559
H44   H     H_    0.928372 0.749289 0.169471 0.191678
H45   H     H_    0.111416 0.822931 0.177316 0.134230
H46   H     H_    0.299795 0.717381 0.589418 0.015054
H47   H     H_    0.087094 0.727094 0.565686 0.067405
O1    O     O_2   0.887710 0.436190 0.327560 -0.437191
O2    O     O_3   0.628745 0.756818 0.640076 -0.635106
O3    O     O_3   0.016965 0.800565 0.306878 -0.602550
O4    O     O_2   0.301980 0.563840 0.672490 -0.414542
O5    O     O_3   0.054330 0.556590 0.583490 -0.508785
O6    O     O_3   0.555270 0.390630 0.635330 -0.490729
O7    O     O_3   0.142674 0.714295 0.671618 -0.622836
O8    O     O_3   0.637720 0.384870 0.467990 -0.430654
O9    O     O_3   0.145220 0.339960 0.601250 -0.491600
O10   O     O_2   0.260164 0.169336 0.557286 -0.502508
O11   O     O_3   0.175437 0.189286 0.691126 -0.642787
O12   O     O_3   0.135370 0.443490 0.416520 -0.496700
O13   O     O_3   0.551980 0.615210 0.532020 -0.477270
O14   O     O_2   0.394410 0.269100 0.474240 -0.448199
O15   O     O_3   0.543828 0.221000 0.357166 -0.644905
O16   O     O_2   0.418911 0.453394 0.758376 -0.522938
O17   O     O_3   0.556170 0.289399 0.753742 -0.596122
O18   O     O_3   0.634420 0.609440 0.364670 -0.463374
O19   O     O_2   0.757298 0.538347 0.241280 -0.481169
O20   O     O_3   0.046145 0.285954 0.326590 -0.656419
O21   O     O_3   0.659725 0.711528 0.247093 -0.594820
O22   O     O_2   0.795290 0.730930 0.525800 -0.482909
O23   O     O_3   0.044470 0.660110 0.398750 -0.489178
O24   O     O_2   0.930578 0.829754 0.440551 -0.498001
P1    P     P_3+3 0.061800 0.409390 0.339760 0.973698
P2    P     P_3+3 0.622760 0.718740 0.547830 0.976489
P3    P     P_3+3 0.064324 0.780311 0.394401 0.933251
P4    P     P_3+3 0.127890 0.590690 0.660240 1.019519
P5    P     P_3+3 0.127645 0.217615 0.604844 0.918549
P6    P     P_3+3 0.616899 0.599986 0.271912 0.990164
P7    P     P_3+3 0.573737 0.265124 0.448393 0.974049
P8    P     P_3+3 0.571732 0.402880 0.728509 0.942054
C61   C     C_2   0.076915 0.094074 0.318334 0.540590
H48   H     H_    0.022954 0.047968 0.272803 0.019256
O25   O     O_2   0.224642 0.102722 0.324828 -0.596295
C62   C     C_2   0.499156 0.891249 0.222556 0.602704
H49   H     H_    0.371885 0.889802 0.236146 -0.033787
O26   O     O_2   0.536833 0.904223 0.162368 -0.501000
O27   O     O_3   0.513605 0.377622 0.338014 -0.729388
H50   H     H_    0.401031 0.365404 0.352608 0.279900
C63   C     C_2   0.954225 0.274187 0.747226 0.569233
H51   H     H_    0.896284 0.304741 0.704233 -0.180407
O28   O     O_2   0.873373 0.252082 0.796127 -0.544459
O29   O     O_3   0.136267 0.155292 0.835561 -0.653690
H52   H     H_    0.193963 0.104089 0.806382 0.321845
C64   C     C_2   0.966564 0.298023 0.182121 0.512844
H53   H     H_    0.073907 0.264370 0.199771 0.016962
O30   O     O_2   0.837789 0.253334 0.176194 -0.615883
O31   O     O_3   0.269329 0.678067 0.801692 -0.712319
H54   H     H_    0.176853 0.720757 0.799419 0.313737
C65   C     C_2   0.550060 0.668339 0.873333 0.528225
H55   H     H_    0.557499 0.632085 0.819104 0.016175
O32   O     O_2   0.627650 0.742236 0.890511 -0.568485
C66   C     C_2   0.665910 0.667538 0.017878 0.575622
H56   H     H_    0.769796 0.646299 0.985836 -0.022985
O33   O     O_2   0.684671 0.729147 0.069325 -0.522780

loop_
_geom_bond_atom_site_label_1
_geom_bond_atom_site_label_2
_ccdc_geom_bond_type
C53   C54   A    
O6    P8    S    
C34   H46   S    
C16   H34   S    
C39   C40   A    
C17   C18   A    
Ba1   O23   S    
C13   H32   S    
C62   H49   S    
Ba2   O9    S    
C5    C6    S    
C37   C39   A    
Ba2   O14   S    
C12   O3    S    
C55   H40   S    
C3    O15   S    
C23   H45   S    
C57   H43   S    
C21   H33   S    
C48   C57   A    
C6    H23   S    
C26   C27   A    
C66   O33   D    
O19   P6    D    
C22   C24   A    
C16   C17   A    
O22   P2    D    
C7    H26   S    
C47   H39   S    
C3    C4    S    
Ba2   O4    S    
C64   O30   D    
C43   C49   A    
C56   O20   S    
C56   C58   S    
C13   C14   A    
C53   H41   S    
C54   C55   A    
C34   C45   S    
Ba1   Ba2   S    
O5    P4    S    
O15   P7    S    
C33   C65   S    
C58   C61   S    
Ba1   O13   S    
C42   C51   A    
C52   P7    S    
C66   H56   S    
C8    H27   S    
O16   P8    D    
C14   C15   A    
O24   P3    D    
C21   C22   A    
C58   H8    S    
O12   P1    S    
C7    C8    S    
C45   H4    S    
C35   C66   S    
C10   C28   A    
C59   H9    S    
C5    H22   S    
C8    H30   S    
C24   C29   A    
C3    O27   S    
C27   C41   A    
Ba2   P4    S    
C60   H14   S    
O18   P6    S    
O3    P3    S    
O21   P6    S    
C62   O26   D    
Ba2   O8    S    
C50   C52   A    
C23   H44   S    
C12   H36   S    
Ba2   O13   S    
C25   C32   A    
C42   H42   S    
C12   H29   S    
C44   C46   A    
C43   P2    S    
C61   H48   S    
C30   C33   A    
C17   C20   A    
O27   H50   S    
C45   H2    S    
C51   C55   A    
C2    O21   S    
C26   C37   A    
C43   C44   A    
O14   P7    D    
C15   C19   A    
C11   H31   S    
C65   O32   D    
C35   C36   A    
C41   P1    S    
C27   C28   A    
C50   C57   A    
Ba1   O1    S    
C5    C63   S    
C54   P5    S    
Ba2   O6    S    
C4    H18   S    
C29   C30   A    
C2    H1    S    
C9    C25   A    
O23   P3    S    
C1    H20   S    
C48   C49   A    
C63   O28   D    
Ba1   O8    S    
C18   C19   A    
C6    O29   S    
C42   C49   A    
C56   H6    S    
C28   C64   S    
C1    C62   S    
C11   C13   A    
O31   H54   S    
O4    P4    D    
C60   H13   S    
O1    P1    D    
O8    P7    S    
O11   P5    S    
C40   C41   A    
Ba1   P1    S    
C59   O2    S    
C34   H47   S    
C38   H35   S    
C61   O25   D    
C50   C51   A    
C59   H10   S    
O7    P4    S    
Ba2   O12   S    
C44   H38   S    
C52   C53   A    
C46   C47   A    
C33   C35   A    
C32   C36   A    
O10   P5    D    
C5    O11   S    
C46   P3    S    
Ba1   O18   S    
Ba1   O22   S    
C9    C15   A    
C9    C10   A    
C22   P4    S    
C4    H19   S    
O17   P8    S    
C7    O17   S    
C63   H51   S    
C30   C31   A    
C3    H16   S    
C2    H15   S    
O9    P5    S    
C40   H37   S    
C65   H55   S    
C36   C38   A    
Ba2   O5    S    
O2    P2    S    
C4    H17   S    
C18   C24   A    
C58   H7    S    
C20   P8    S    
C31   C32   A    
C6    H24   S    
C12   C23   S    
C59   C60   S    
C1    H11   S    
Ba1   O12   S    
O13   P2    S    
C39   P6    S    
C29   O31   S    
O20   P1    S    
C37   C38   A    
C56   H5    S    
C19   C31   A    
C10   C11   A    
C8    H28   S    
C14   C16   A    
C47   C48   A    
Ba1   O5    S    
C64   H53   S    
C23   H21   S    
C20   C21   A    
C60   H12   S    
O29   H52   S    
Ba1   P2    S    
C45   H3    S    
C7    H25   S    
C1    C2    S    
C25   C26   A    
C34   O7    S    
