data_mof_unit_55887.cif
_audit_creation_date              2012-12-11T17:04:44-0500
_audit_creation_method            fapswitch 2.2
_symmetry_space_group_name_H-M    P1
_symmetry_Int_Tables_number       1
_space_group_crystal_system       triclinic
_cell_length_a                    17.37176
_cell_length_b                    24.344904
_cell_length_c                    14.89792
_cell_angle_alpha                 90.066313
_cell_angle_beta                  125.672132
_cell_angle_gamma                 90.6748
_cell_volume                      5117.74472957

loop_
_atom_site_label
_atom_site_type_symbol
_atom_type_description
_atom_site_fract_x
_atom_site_fract_y
_atom_site_fract_z
_atom_type_partial_charge
C1    C     C_R   0.833103 0.644749 0.906122 -0.128582
C2    C     C_R   0.191369 0.625445 0.094865 -0.146481
C3    C     C_R   0.349130 0.151233 0.905811 -0.050268
C4    C     C_R   0.692871 0.123119 0.094700 -0.148102
C5    C     C_R   0.882798 0.314959 0.996146 -0.086200
C6    C     C_R   0.182669 0.361689 0.994950 -0.149143
C7    C     C_R   0.389123 0.814557 0.002983 -0.098125
C8    C     C_R   0.612369 0.818151 0.991188 -0.158354
C9    C     C_R   0.956600 0.500463 0.282489 0.065918
C10   C     C_R   0.930516 0.501412 0.629795 0.049738
C11   C     C_R   0.452248 0.001017 0.277092 0.060216
C12   C     C_R   0.434864 0.001153 0.631755 0.047107
C13   C     C_R   0.675328 0.498585 0.723214 0.167622
C14   C     C_R   0.306695 0.501279 0.362741 0.193863
C15   C     C_R   0.176013 0.999476 0.728233 0.177912
C16   C     C_R   0.810356 0.000764 0.358923 0.216069
C17   C     C_3   0.504821 0.449049 0.597284 0.513107
C18   C     C_3   0.474129 0.462433 0.480563 0.504301
C19   C     C_3   0.005781 0.950128 0.598978 0.519137
C20   C     C_3   0.978662 0.962033 0.483111 0.521377
C21   C     C_3   0.428907 0.487598 0.583112 0.749019
C22   C     C_3   0.542841 0.511042 0.523820 0.722664
C23   C     C_3   0.928336 0.989043 0.579587 0.748029
C24   C     C_3   0.047261 0.010767 0.526947 0.729378
C25   C     C_3   0.398823 0.500988 0.466552 -0.379026
C26   C     C_3   0.574425 0.497809 0.641309 -0.368579
C27   C     C_3   0.901850 0.000849 0.463915 -0.395357
C28   C     C_3   0.075309 0.999012 0.643682 -0.386462
C29   C     C_3   0.468353 0.550315 0.510201 -0.318854
C30   C     C_3   0.499873 0.537004 0.629193 -0.357820
C31   C     C_3   0.971130 0.050347 0.508004 -0.333364
C32   C     C_3   0.999072 0.038578 0.626108 -0.337877
C33   C     C_R   0.893762 0.231849 0.100114 -0.039427
C34   C     C_R   0.209590 0.296879 0.891375 -0.065231
C35   C     C_R   0.394605 0.735369 0.110758 -0.041183
C36   C     C_R   0.648502 0.762029 0.888065 -0.026733
C37   C     C_R   0.861112 0.255834 0.997736 0.038189
C38   C     C_R   0.247808 0.329318 0.986266 0.088259
C39   C     C_R   0.373967 0.755481 0.010842 -0.037537
C40   C     C_R   0.642412 0.766342 0.977495 -0.025186
C41   C     C_R   0.798388 0.222714 0.900982 0.127707
C42   C     C_R   0.344842 0.323289 0.074531 0.220017
C43   C     C_R   0.324537 0.719363 0.917875 0.225763
C44   C     C_R   0.684630 0.726403 0.061235 0.234601
C45   C     C_R   0.945264 0.347546 0.089184 -0.274705
C46   C     C_R   0.095221 0.377995 0.904755 -0.183227
C47   C     C_R   0.449522 0.847980 0.092879 -0.280144
C48   C     C_R   0.550207 0.849828 0.903216 -0.226282
C49   C     C_R   0.266378 0.677484 0.916843 -0.199826
C50   C     C_R   0.754897 0.693916 0.069540 -0.188301
C51   C     C_R   0.758693 0.174275 0.909711 -0.237535
C52   C     C_R   0.391686 0.275950 0.076264 -0.305728
C53   C     C_R   0.267483 0.668836 0.010956 -0.024787
C54   C     C_R   0.775348 0.700082 0.991599 -0.035117
C55   C     C_R   0.769894 0.162465 0.008207 0.007053
C56   C     C_R   0.343916 0.238185 0.987810 0.094509
C57   C     C_R   0.342299 0.692439 0.110718 0.027965
C58   C     C_R   0.714355 0.728860 0.895435 -0.037898
C59   C     C_R   0.847113 0.186749 0.104975 0.041573
C60   C     C_R   0.257777 0.252946 0.891131 -0.090938
C61   C     C_3   0.347081 0.715577 0.207133 0.558661
C62   C     C_3   0.738007 0.767597 0.836862 0.590641
C63   C     C_3   0.859623 0.206735 0.207722 0.568513
C64   C     C_3   0.168803 0.219677 0.815058 0.580719
C65   C     C_3   0.912285 0.255797 0.204519 -0.186036
C66   C     C_3   0.115112 0.267788 0.817308 -0.147703
C67   C     C_3   0.404837 0.762905 0.207671 -0.173390
C68   C     C_3   0.665783 0.805527 0.829172 -0.153278
C69   C     C_R   0.892129 0.552418 0.464898 -0.003289
C70   C     C_R   0.902941 0.552034 0.380331 -0.170238
C71   C     C_R   0.398419 0.052736 0.468612 0.015624
C72   C     C_R   0.405360 0.052673 0.381126 -0.122652
C73   C     C_R   0.893109 0.502873 0.513157 0.081071
C74   C     C_R   0.910381 0.502270 0.338512 0.130526
C75   C     C_R   0.398155 0.002982 0.515430 0.070032
C76   C     C_R   0.407804 0.003069 0.335032 0.120414
C77   C     C_R   0.875709 0.453829 0.453388 -0.128036
C78   C     C_R   0.884092 0.453584 0.365509 -0.181664
C79   C     C_R   0.376972 0.954400 0.453234 -0.121465
C80   C     C_R   0.381388 0.954512 0.362358 -0.171980
C81   C     C_3   0.964268 0.603010 0.423842 0.457802
C82   C     C_3   0.950671 0.603974 0.514641 0.480270
C83   C     C_3   0.470456 0.102108 0.425729 0.446902
C84   C     C_3   0.461032 0.102749 0.519897 0.447273
C85   C     C_R   0.983781 0.546109 0.251978 -0.001906
C86   C     C_R   0.947059 0.546532 0.694850 -0.152013
C87   C     C_R   0.479187 0.046604 0.245914 0.022370
C88   C     C_R   0.449151 0.046393 0.695638 -0.149693
C89   C     C_R   0.731348 0.453412 0.750041 -0.072202
C90   C     C_R   0.257061 0.455430 0.303088 0.035563
C91   C     C_R   0.231353 0.954055 0.752250 -0.061361
C92   C     C_R   0.760009 0.954838 0.299367 0.004613
C93   C     C_R   0.985397 0.454367 0.254608 -0.116643
C94   C     C_R   0.947600 0.455455 0.693138 -0.090026
C95   C     C_R   0.483233 0.954722 0.252292 -0.101319
C96   C     C_R   0.451164 0.955124 0.694910 -0.080684
C97   C     C_R   0.729669 0.545277 0.747138 -0.047509
C98   C     C_R   0.259161 0.546828 0.303280 -0.108254
C99   C     C_R   0.231129 0.045971 0.752887 -0.013057
C100  C     C_R   0.760628 0.046507 0.302235 -0.096029
C101  C     C_R   0.854394 0.348397 0.906731 0.705114
C102  C     C_R   0.186225 0.373366 0.088588 0.743447
C103  C     C_R   0.353930 0.847525 0.910758 0.713960
C104  C     C_R   0.647435 0.848906 0.086330 0.743191
C105  C     C_R   0.923623 0.645272 0.090480 -0.158751
C106  C     C_R   0.099344 0.627085 0.910107 -0.086964
C107  C     C_R   0.440050 0.152809 0.089399 -0.164559
C108  C     C_R   0.600474 0.124804 0.910140 -0.106355
C109  C     C_R   0.846429 0.668504 0.997554 0.095106
C110  C     C_R   0.189281 0.640813 0.004287 0.067664
C111  C     C_R   0.375949 0.182681 0.996083 0.143734
C112  C     C_R   0.691542 0.136650 0.004069 0.072039
H1    H     H_    0.784995 0.656784 0.821185 0.172387
H2    H     H_    0.250358 0.627771 0.180225 0.162632
H3    H     H_    0.312480 0.164923 0.821399 0.081222
H4    H     H_    0.752391 0.124840 0.179810 0.152725
H5    H     H_    0.453212 0.591743 0.472887 0.233149
H6    H     H_    0.512394 0.566938 0.692863 0.199641
H7    H     H_    0.956731 0.091281 0.468896 0.235206
H8    H     H_    0.009148 0.069365 0.687285 0.222485
H9    H     H_    0.216876 0.654158 0.842383 0.144801
H10   H     H_    0.795383 0.665548 0.136923 0.128406
H11   H     H_    0.706692 0.151761 0.834870 0.142738
H12   H     H_    0.462249 0.267273 0.148409 0.132668
H13   H     H_    0.277467 0.728245 0.187224 0.005804
H14   H     H_    0.812120 0.783708 0.889373 0.030140
H15   H     H_    0.792809 0.218344 0.196435 -0.019324
H16   H     H_    0.154057 0.212117 0.732745 0.000397
H17   H     H_    0.876120 0.295476 0.191952 0.110151
H18   H     H_    0.067577 0.288218 0.736103 0.101433
H19   H     H_    0.368940 0.803218 0.187862 0.118685
H20   H     H_    0.697182 0.844306 0.877954 0.132980
H21   H     H_    0.868129 0.414806 0.482250 0.119986
H22   H     H_    0.881716 0.414518 0.329209 0.112754
H23   H     H_    0.368389 0.915447 0.481455 0.124846
H24   H     H_    0.375758 0.915692 0.323373 0.114093
H25   H     H_    0.933137 0.638533 0.366991 0.065406
H26   H     H_    0.017744 0.599442 0.598526 0.056171
H27   H     H_    0.440497 0.138602 0.371424 0.086574
H28   H     H_    0.528777 0.096092 0.602239 0.060127
H29   H     H_    0.995778 0.333363 0.171904 0.186187
H30   H     H_    0.068382 0.375055 0.818872 0.147570
H31   H     H_    0.502075 0.834670 0.176023 0.192344
H32   H     H_    0.501875 0.836992 0.817769 0.178499
H33   H     H_    0.971800 0.587981 0.260648 0.104217
H34   H     H_    0.924197 0.587976 0.667325 0.165829
H35   H     H_    0.463296 0.088904 0.248353 0.103006
H36   H     H_    0.426527 0.087785 0.667389 0.164752
H37   H     H_    0.709306 0.410739 0.734596 0.191758
H38   H     H_    0.269302 0.413880 0.333463 0.196424
H39   H     H_    0.208078 0.911691 0.735282 0.220369
H40   H     H_    0.774510 0.912723 0.326726 0.201896
H41   H     H_    0.975376 0.411701 0.265674 0.103483
H42   H     H_    0.928284 0.413473 0.663871 0.102511
H43   H     H_    0.473445 0.912171 0.264226 0.105030
H44   H     H_    0.434113 0.912923 0.666535 0.113284
H45   H     H_    0.703812 0.586469 0.723552 0.131084
H46   H     H_    0.273592 0.588842 0.333109 0.138555
H47   H     H_    0.207824 0.088032 0.736231 0.131954
H48   H     H_    0.775156 0.088258 0.333550 0.127961
H49   H     H_    0.959495 0.660043 0.174377 0.121411
H50   H     H_    0.073276 0.632770 0.824886 0.115338
H51   H     H_    0.484512 0.168207 0.173462 0.112413
H52   H     H_    0.574176 0.129930 0.824787 0.108811
N1    N     N_R   0.892620 0.603790 0.941770 -0.053919
N2    N     N_R   0.107380 0.603790 0.058230 -0.047246
N3    N     N_R   0.392620 0.103790 0.941770 -0.058003
N4    N     N_R   0.607380 0.103790 0.058230 -0.049092
N5    N     N_R   0.952270 0.397640 0.058010 -0.079613
N6    N     N_R   0.047730 0.397640 0.941990 -0.070689
N7    N     N_R   0.452270 0.897640 0.058010 -0.082138
N8    N     N_R   0.547730 0.897640 0.941990 -0.081963
N9    N     N_R   0.026310 0.529110 0.206760 -0.055310
N10   N     N_R   0.973690 0.529110 0.793240 -0.050460
N11   N     N_R   0.526310 0.029110 0.206760 -0.056186
N12   N     N_R   0.473690 0.029110 0.793240 -0.047543
N13   N     N_R   0.818570 0.472310 0.793020 -0.054226
N14   N     N_R   0.181430 0.472310 0.206980 -0.082324
N15   N     N_R   0.318570 0.972310 0.793020 -0.058741
N16   N     N_R   0.681430 0.972310 0.206980 -0.071577
N17   N     N_R   0.026930 0.472300 0.207330 -0.047056
N18   N     N_R   0.973070 0.472300 0.792670 -0.041905
N19   N     N_R   0.526930 0.972300 0.207330 -0.044950
N20   N     N_R   0.473070 0.972300 0.792670 -0.038525
N21   N     N_R   0.817960 0.529130 0.792460 -0.056947
N22   N     N_R   0.182040 0.529130 0.207540 -0.068975
N23   N     N_R   0.317960 0.029130 0.792460 -0.062365
N24   N     N_R   0.682040 0.029130 0.207540 -0.065293
N25   N     N_R   0.894850 0.397640 0.943830 -0.106934
N26   N     N_R   0.105150 0.397640 0.056170 -0.118990
N27   N     N_R   0.394850 0.897640 0.943830 -0.114575
N28   N     N_R   0.605150 0.897640 0.056170 -0.112424
N29   N     N_R   0.950040 0.603780 0.055950 -0.049599
N30   N     N_R   0.049960 0.603780 0.944050 -0.045277
N31   N     N_R   0.450040 0.103780 0.055950 -0.054597
N32   N     N_R   0.549960 0.103780 0.944050 -0.048522
Ni1   Ni    Ni4+2 0.934160 0.565860 0.869070 0.250599
Ni2   Ni    Ni4+2 0.065840 0.565860 0.130930 0.231148
Ni3   Ni    Ni4+2 0.434160 0.065860 0.869070 0.235493
Ni4   Ni    Ni4+2 0.565840 0.065860 0.130930 0.229111
Ni5   Ni    Ni4+2 0.067260 0.435560 0.132230 0.236961
Ni6   Ni    Ni4+2 0.932740 0.435560 0.867770 0.269817
Ni7   Ni    Ni4+2 0.567260 0.935560 0.132230 0.254296
Ni8   Ni    Ni4+2 0.432740 0.935560 0.867770 0.258613
F1    F     F_    0.524199 0.397309 0.643214 -0.648128
F2    F     F_    0.461226 0.424400 0.403700 -0.638627
F3    F     F_    0.023902 0.898949 0.646949 -0.609531
F4    F     F_    0.968405 0.923236 0.408801 -0.609072
N33   N     N_2   0.764535 0.239571 0.792916 -0.084891
H53   H     H_    0.773238 0.210054 0.749904 0.182977
C113  C     C_3   0.668468 0.259928 0.728452 -0.599325
H54   H     H_    0.651128 0.276934 0.649624 0.265838
H55   H     H_    0.661380 0.293230 0.774193 0.245977
H56   H     H_    0.616950 0.226266 0.708842 0.209574
N34   N     N_2   0.392847 0.361308 0.164774 -0.056592
H57   H     H_    0.454755 0.346933 0.234466 0.222121
C114  C     C_3   0.403905 0.416221 0.136256 -0.739626
H58   H     H_    0.439188 0.443171 0.210709 0.293824
H59   H     H_    0.333990 0.434038 0.072672 0.221910
H60   H     H_    0.448294 0.415427 0.104846 0.219390
N35   N     N_2   0.332752 0.726282 0.828392 -0.069620
H61   H     H_    0.396161 0.744081 0.851504 0.184232
C115  C     C_3   0.300304 0.682622 0.747229 -0.732526
H62   H     H_    0.317527 0.693525 0.688362 0.245687
H63   H     H_    0.222170 0.677410 0.698709 0.265737
H64   H     H_    0.336020 0.643593 0.788330 0.224173
N36   N     N_2   0.660864 0.722508 0.138394 -0.071069
H65   H     H_    0.597256 0.740125 0.112108 0.178763
C116  C     C_3   0.677064 0.671215 0.195698 -0.757727
H66   H     H_    0.646876 0.673317 0.243943 0.258574
H67   H     H_    0.754130 0.663978 0.255118 0.259805
H68   H     H_    0.642175 0.636565 0.135542 0.216739
F5    F     F_    0.398111 0.682050 0.298722 -0.701240
F6    F     F_    0.711184 0.746510 0.735841 -0.687239
F7    F     F_    0.915977 0.171771 0.295485 -0.695504
F8    F     F_    0.164064 0.172619 0.864188 -0.697841
N37   N     N_2   0.012792 0.257142 0.294623 -0.077374
H69   H     H_    0.049255 0.221639 0.305860 0.256977
C117  C     C_3   0.036739 0.282313 0.396059 -0.788169
H70   H     H_    0.114981 0.285703 0.455760 0.250594
H71   H     H_    0.008561 0.256992 0.433137 0.269155
H72   H     H_    0.007219 0.324284 0.380046 0.217792
N38   N     N_2   0.070812 0.255810 0.873335 -0.077853
H73   H     H_    0.114022 0.238319 0.950387 0.238193
C118  C     C_3   0.976889 0.231614 0.804878 -0.717742
H74   H     H_    0.948851 0.226235 0.854842 0.235620
H75   H     H_    0.979026 0.190807 0.773017 0.259023
H76   H     H_    0.928691 0.259009 0.734617 0.247284
N39   N     N_2   0.502961 0.764404 0.304324 -0.083033
H77   H     H_    0.539890 0.728459 0.321204 0.250451
C119  C     C_3   0.519646 0.791341 0.400859 -0.732381
H78   H     H_    0.597091 0.794818 0.465793 0.266998
H79   H     H_    0.486667 0.767258 0.433800 0.276209
H80   H     H_    0.490159 0.833348 0.380194 0.201577
N40   N     N_2   0.582593 0.813953 0.717018 -0.093331
H81   H     H_    0.549604 0.778789 0.670465 0.232576
C120  C     C_3   0.591859 0.857550 0.657970 -0.801675
H82   H     H_    0.523255 0.862882 0.576260 0.220757
H83   H     H_    0.646940 0.847386 0.645090 0.291381
H84   H     H_    0.611112 0.896883 0.704789 0.246006
F9    F     F_    0.057955 0.592983 0.465791 -0.691294
F10   F     F_    0.896137 0.647738 0.504877 -0.671158
F11   F     F_    0.562240 0.089960 0.462596 -0.693552
F12   F     F_    0.411016 0.147719 0.515754 -0.683299
F13   F     F_    0.825411 0.332045 0.804785 -0.727244
F14   F     F_    0.252645 0.356611 0.192735 -0.691036
F15   F     F_    0.303155 0.830531 0.804075 -0.711311
F16   F     F_    0.703704 0.831409 0.192068 -0.698433
F17   F     F_    0.367004 0.475335 0.610308 -0.643588
F18   F     F_    0.602743 0.522512 0.493220 -0.647578
F19   F     F_    0.863881 0.977548 0.603288 -0.630555
F20   F     F_    0.109759 0.021494 0.499825 -0.636696

loop_
_geom_bond_atom_site_label_1
_geom_bond_atom_site_label_2
_ccdc_geom_bond_type
C53   C110  S    
C58   C62   S    
C45   H29   S    
C102  N26   A    
C63   C65   S    
C81   F9    S    
N20   Ni8   S    
C22   C29   S    
C55   C59   A    
C55   C112  S    
C51   H11   S    
C35   C39   A    
C117  H70   S    
C50   H10   S    
N3    N31   A    
N5    N25   A    
C72   C76   A    
N16   Ni7   S    
C65   N37   S    
C34   C66   S    
C83   H27   S    
C81   C82   S    
C115  H64   S    
C3    N3    A    
C119  H78   S    
C46   H30   S    
C71   C75   A    
C77   C78   A    
N8    N28   A    
C114  H60   S    
C97   N21   A    
C108  H52   S    
C63   F7    S    
C23   F19   S    
N39   H77   S    
C50   C54   A    
C77   H21   S    
C24   F20   S    
C62   F6    S    
C17   C26   S    
C43   N35   S    
C32   H8    S    
C64   F8    S    
C116  H68   S    
C5    C37   S    
C11   C76   S    
N34   C114  S    
C54   C58   A    
C10   C73   S    
C49   C53   A    
C119  H79   S    
N30   Ni1   S    
N15   N23   A    
C66   N38   S    
C10   C94   A    
C44   C50   A    
N38   H73   S    
C104  N28   A    
C47   H31   S    
N13   N21   A    
C48   H32   S    
N8    Ni8   S    
C120  H82   S    
C68   H20   S    
C70   C81   S    
C100  H48   S    
C70   C74   A    
C14   C90   A    
C105  C109  A    
C69   C82   S    
C92   N16   A    
C9    C85   A    
C48   N8    A    
C52   C56   A    
C93   N17   A    
C2    C110  A    
C20   C24   S    
C11   C87   A    
N38   C118  S    
C91   N15   A    
C17   C18   S    
C92   H40   S    
C85   N9    A    
C17   F1    S    
C6    C38   S    
C69   C73   A    
C99   N23   A    
C42   N34   S    
C89   N13   A    
N27   Ni8   S    
C108  N32   A    
N16   N24   A    
C2    N2    A    
C56   C111  S    
C51   C55   A    
C101  N25   A    
N24   Ni4   S    
C90   H38   S    
C6    C46   A    
C52   H12   S    
C1    C109  A    
N40   C120  S    
C22   F18   S    
C16   C27   S    
C89   H37   S    
N14   Ni5   S    
C4    C112  A    
N9    N17   A    
C33   C59   A    
C7    C103  A    
N37   H69   S    
C6    C102  A    
C34   C60   A    
C100  N24   A    
C19   F3    S    
N10   N18   A    
C18   C25   S    
C1    H1    S    
C96   N20   A    
N32   Ni3   S    
C86   H34   S    
C107  N31   A    
C34   C38   A    
C116  H66   S    
C60   C64   S    
C14   C98   A    
C5    C101  A    
C25   C29   S    
C43   C49   A    
N39   C119  S    
C12   C88   A    
C21   F17   S    
C98   H46   S    
C36   C40   A    
C79   C80   A    
C22   C26   S    
C115  H62   S    
N33   H53   S    
C7    C47   A    
C3    C111  A    
C62   H14   S    
C53   C57   A    
C16   C100  A    
C119  H80   S    
C39   C43   A    
C30   H6    S    
N5    Ni5   S    
C64   H16   S    
C114  H58   S    
C81   H25   S    
C106  N30   A    
C27   C31   S    
C33   C37   A    
C108  C112  A    
C54   C109  S    
N23   Ni3   S    
C86   N10   A    
C97   H45   S    
C71   C84   S    
C19   C23   S    
N18   Ni6   S    
N2    Ni2   S    
C113  H54   S    
C82   F10   S    
C29   C30   S    
C98   N22   A    
N1    Ni1   S    
N35   H61   S    
C8    C104  A    
C61   C67   S    
C47   N7    A    
C83   C84   S    
C28   C32   S    
C94   H42   S    
C49   H9    S    
N12   N20   A    
C36   C68   S    
C99   H47   S    
C88   H36   S    
N7    N27   A    
C117  H71   S    
C13   C97   A    
N15   Ni8   S    
C57   C61   S    
C19   C28   S    
C78   H22   S    
C31   H7    S    
C46   N6    A    
C87   H35   S    
C67   N39   S    
C12   C96   A    
N36   C116  S    
C107  H51   S    
C26   C30   S    
C23   C27   S    
C118  H75   S    
N7    Ni7   S    
C102  F14   S    
C101  F13   S    
C105  H49   S    
C13   C26   S    
C12   C75   S    
N2    N30   A    
C9    C74   S    
C20   F4    S    
N12   Ni3   S    
C104  F16   S    
N40   H81   S    
C9    C93   A    
C61   F5    S    
C87   N11   A    
N36   H65   S    
C24   C28   S    
N11   N19   A    
N31   Ni4   S    
C106  C110  A    
C11   C95   A    
C59   C63   S    
C113  H55   S    
C21   C25   S    
C10   C86   A    
N10   Ni1   S    
N3    Ni3   S    
C105  N29   A    
C13   C89   A    
C1    N1    A    
C18   C22   S    
C107  C111  A    
C4    H4    S    
C31   C32   S    
C67   H19   S    
C33   C65   S    
C76   C80   A    
C15   C99   A    
N1    N29   A    
C65   H17   S    
C115  H63   S    
N26   Ni5   S    
C16   C92   A    
C20   C27   S    
N25   Ni6   S    
C114  H59   S    
C79   H23   S    
C21   C30   S    
N6    N26   A    
C36   C58   A    
C80   H24   S    
C62   C68   S    
C18   F2    S    
C120  H84   S    
N19   Ni7   S    
C23   C32   S    
C19   C20   S    
N37   C117  S    
N9    Ni2   S    
C24   C31   S    
C41   N33   S    
C71   C72   A    
N35   C115  S    
C3    H3    S    
C8    C48   A    
C82   H26   S    
C91   H39   S    
C2    H2    S    
C68   N40   S    
C95   N19   A    
C15   C28   S    
C96   H44   S    
C5    C45   A    
C29   H5    S    
C85   H33   S    
C93   H41   S    
N34   H57   S    
N33   C113  S    
N28   Ni7   S    
C94   N18   A    
C56   C60   A    
C117  H72   S    
C95   H43   S    
C106  H50   S    
N22   Ni2   S    
C37   C41   A    
C69   C70   A    
N4    Ni4   S    
C44   N36   S    
C17   C21   S    
N11   Ni4   S    
N6    Ni6   S    
C72   C83   S    
C35   C67   S    
N17   Ni5   S    
C15   C91   A    
C103  F15   S    
N14   N22   A    
C38   C42   A    
C4    N4    A    
C88   N12   A    
C40   C44   A    
C113  H56   S    
C103  N27   A    
C14   C25   S    
C84   H28   S    
C73   C77   A    
C116  H67   S    
C35   C57   A    
N4    N32   A    
C118  H76   S    
C42   C52   A    
N21   Ni1   S    
C7    C39   S    
N13   Ni6   S    
C84   F12   S    
C83   F11   S    
C61   H13   S    
C8    C40   S    
C120  H83   S    
C118  H74   S    
C75   C79   A    
C41   C51   A    
C63   H15   S    
C45   N5    A    
N29   Ni2   S    
C64   C66   S    
C90   N14   A    
C66   H18   S    
C74   C78   A    
