data_mof_unit_37183.cif
_audit_creation_date              2012-12-10T17:59:43-0500
_audit_creation_method            fapswitch 2.2
_symmetry_space_group_name_H-M    P1
_symmetry_Int_Tables_number       1
_space_group_crystal_system       triclinic
_cell_length_a                    10.842561
_cell_length_b                    9.621264
_cell_length_c                    15.858751
_cell_angle_alpha                 90.790864
_cell_angle_beta                  90.699954
_cell_angle_gamma                 90.387653
_cell_volume                      1654.0504739

loop_
_atom_site_label
_atom_site_type_symbol
_atom_type_description
_atom_site_fract_x
_atom_site_fract_y
_atom_site_fract_z
_atom_type_partial_charge
C1    C     C_R   0.262356 0.499907 0.500347 0.756340
C2    C     C_3   0.627855 0.535982 0.951407 -0.524996
C3    C     C_3   0.632394 0.531137 0.051268 0.732177
C4    C     C_1   0.495972 0.504851 0.824671 -0.028281
C5    C     C_1   0.496351 0.496818 0.175005 0.087310
C6    C     C_1   0.497166 0.497048 0.250624 -0.147191
C7    C     C_R   0.062705 0.375025 0.497684 -0.204976
C8    C     C_R   0.064771 0.627215 0.502317 -0.182686
C9    C     C_R   0.935383 0.375530 0.494469 -0.181913
C10   C     C_R   0.936930 0.627563 0.501944 -0.185097
C11   C     C_R   0.871616 0.501398 0.498246 -0.016372
C12   C     C_R   0.128309 0.500622 0.500392 -0.009462
C13   C     C_R   0.448214 0.072661 0.434913 0.378175
C14   C     C_R   0.462355 0.925941 0.430405 0.371662
C15   C     C_R   0.498939 0.499082 0.340376 0.809095
C16   C     C_R   0.541862 0.928279 0.568979 0.318008
C17   C     C_R   0.554405 0.076611 0.564582 0.335431
C18   C     C_R   0.737613 0.500464 0.499185 0.762203
C19   C     C_R   0.499462 0.500902 0.659559 0.825531
C20   C     C_3   0.409129 0.616139 0.050105 0.318630
C21   C     C_3   0.451475 0.355602 0.045298 0.292979
C22   C     C_3   0.452911 0.360210 0.947238 -0.457888
C23   C     C_3   0.406399 0.614755 0.951927 -0.465672
C24   C     C_1   0.497376 0.503240 0.749135 -0.182339
C25   C     C_3   0.497190 0.498985 0.082426 0.068897
C26   C     C_3   0.496130 0.504089 0.916831 0.150596
Cu1   Cu    Cu3+1 0.500020 0.640660 0.500000 0.989805
Cu2   Cu    Cu3+1 0.500020 0.359340 0.500000 0.995450
H1    H     H_    0.311374 0.592309 0.927842 0.195684
H2    H     H_    0.358776 0.338458 0.921160 0.205642
H3    H     H_    0.515955 0.274240 0.068111 0.047802
H4    H     H_    0.448252 0.717389 0.073103 0.104075
H5    H     H_    0.512816 0.276839 0.921640 0.129278
H6    H     H_    0.432350 0.719532 0.929089 0.135703
H7    H     H_    0.652666 0.642511 0.930662 0.180256
H8    H     H_    0.695855 0.469258 0.919372 0.167490
H9    H     H_    0.109162 0.276240 0.497968 0.127183
H10   H     H_    0.113478 0.725896 0.504588 0.146975
H11   H     H_    0.887361 0.277203 0.489098 0.142974
H12   H     H_    0.889624 0.726314 0.504509 0.147831
N1    N     N_R   0.500030 0.852070 0.500020 -0.276510
N2    N     N_R   0.500030 0.147930 0.500020 -0.279270
O1    O     O_R   0.319660 0.618740 0.500000 -0.578505
O2    O     O_R   0.319660 0.381260 0.500000 -0.595282
O3    O     O_R   0.500020 0.618840 0.379440 -0.543255
O4    O     O_R   0.500020 0.381160 0.379440 -0.528382
O5    O     O_R   0.680370 0.618830 0.500010 -0.572188
O6    O     O_R   0.680370 0.381170 0.500010 -0.571641
O7    O     O_R   0.500010 0.618730 0.620560 -0.537131
O8    O     O_R   0.500010 0.381270 0.620560 -0.517600
O9    O     O_3   0.584690 0.860706 0.639770 -0.545628
C27   C     C_3   0.510458 0.893593 0.710355 0.123709
H13   H     H_    0.430957 0.820358 0.712549 0.146299
H14   H     H_    0.472143 0.000693 0.710329 0.141544
C28   C     C_3   0.587132 0.878884 0.790689 -0.825755
H15   H     H_    0.664437 0.955151 0.791451 0.244191
H16   H     H_    0.528894 0.899138 0.846531 0.187219
H17   H     H_    0.625367 0.772435 0.794359 0.252688
O10   O     O_3   0.613991 0.150373 0.628731 -0.532913
C29   C     C_3   0.741649 0.122099 0.627804 0.115904
H18   H     H_    0.778833 0.124207 0.562819 0.109619
H19   H     H_    0.761342 0.018837 0.654977 0.170958
C30   C     C_3   0.809312 0.230865 0.681778 -0.801844
H20   H     H_    0.778513 0.224647 0.748176 0.235950
H21   H     H_    0.910231 0.212461 0.679667 0.194058
H22   H     H_    0.789988 0.336599 0.658094 0.255405
O11   O     O_3   0.288915 0.596091 0.082647 -0.509608
C31   C     C_3   0.217051 0.718395 0.079199 0.063916
H23   H     H_    0.150677 0.708854 0.025476 0.148652
H24   H     H_    0.271079 0.816105 0.070970 0.098052
C32   C     C_3   0.145033 0.732190 0.160563 -0.791678
H25   H     H_    0.209814 0.735922 0.215339 0.262163
H26   H     H_    0.090198 0.829145 0.160251 0.196103
H27   H     H_    0.081698 0.641880 0.167117 0.251322
O12   O     O_3   0.330082 0.326036 0.072867 -0.500694
C33   C     C_3   0.305437 0.181503 0.068698 0.070427
H28   H     H_    0.347842 0.130869 0.123882 0.145758
H29   H     H_    0.341113 0.131494 0.010141 0.114356
C34   C     C_3   0.167091 0.157154 0.070590 -0.806450
H30   H     H_    0.124387 0.201728 0.013239 0.247381
H31   H     H_    0.146786 0.043984 0.071503 0.186600
H32   H     H_    0.127456 0.207091 0.127616 0.261999
O13   O     O_3   0.663657 0.667401 0.081853 -0.626285
C35   C     C_3   0.791319 0.697855 0.075453 0.152906
H33   H     H_    0.830804 0.659828 0.015068 0.138298
H34   H     H_    0.842640 0.650215 0.128728 0.188541
C36   C     C_3   0.810547 0.854548 0.080349 -0.905452
H35   H     H_    0.784856 0.894542 0.143694 0.246077
H36   H     H_    0.908920 0.880338 0.069272 0.210964
H37   H     H_    0.753076 0.905963 0.031573 0.249959
O14   O     O_3   0.716606 0.435391 0.090277 -0.611012
C37   C     C_3   0.754265 0.317001 0.043603 0.009870
H38   H     H_    0.691790 0.284155 0.991676 0.120697
H39   H     H_    0.755813 0.227905 0.087387 0.176114
C38   C     C_3   0.884998 0.337538 0.011893 -0.826277
H40   H     H_    0.948806 0.357466 0.066074 0.266604
H41   H     H_    0.914098 0.242359 0.977398 0.206939
H42   H     H_    0.890475 0.426667 0.968555 0.228442
O15   O     O_3   0.391109 0.140045 0.368970 -0.542658
C39   C     C_3   0.261398 0.134863 0.378500 0.155597
H43   H     H_    0.225604 0.241009 0.367609 0.169556
H44   H     H_    0.230536 0.102894 0.442372 0.083376
C40   C     C_3   0.201597 0.038726 0.312446 -0.841619
H45   H     H_    0.220984 0.928650 0.326964 0.272016
H46   H     H_    0.100044 0.052956 0.312533 0.195780
H47   H     H_    0.236217 0.063013 0.248837 0.261080
O16   O     O_3   0.441525 0.860187 0.353635 -0.545180
C41   C     C_3   0.542257 0.886301 0.298992 0.185084
H48   H     H_    0.586942 0.786465 0.282422 0.168798
H49   H     H_    0.616838 0.954855 0.326134 0.080782
C42   C     C_3   0.495784 0.949475 0.217399 -0.842849
H50   H     H_    0.474664 0.060585 0.228427 0.267247
H51   H     H_    0.567779 0.942724 0.168454 0.210718
H52   H     H_    0.412019 0.893426 0.194136 0.249636

loop_
_geom_bond_atom_site_label_1
_geom_bond_atom_site_label_2
_ccdc_geom_bond_type
C2    H7    S    
C28   H15   S    
C30   H21   S    
C11   C18   S    
C20   O11   S    
C38   H40   S    
C16   O9    S    
C36   H35   S    
C18   O5    A    
C38   H42   S    
C21   H3    S    
Cu2   O4    S    
C29   C30   S    
C23   H1    S    
C29   H19   S    
C35   H34   S    
C5    C6    T    
C4    C24   T    
C20   C25   S    
C2    H8    S    
C9    H11   S    
C41   H48   S    
C3    O14   S    
C23   C26   S    
C19   O7    A    
C17   N2    A    
C37   H38   S    
C6    C15   S    
Cu2   O8    S    
C40   H46   S    
C42   H50   S    
C27   H14   S    
C16   C17   A    
O16   C41   S    
C35   C36   S    
C40   H47   S    
C27   C28   S    
Cu1   O3    S    
C30   H22   S    
O10   C29   S    
C21   C22   S    
C1    C12   S    
C8    H10   S    
C39   H44   S    
C13   N2    A    
C1    O1    A    
C7    C12   A    
O11   C31   S    
C3    C25   S    
C33   H28   S    
C2    C26   S    
O14   C37   S    
C32   H26   S    
C31   H23   S    
Cu2   O2    S    
C39   C40   S    
O9    C27   S    
C29   H18   S    
C13   O15   S    
O12   C33   S    
C32   H27   S    
Cu1   N1    S    
C1    O2    A    
O13   C35   S    
C20   C23   S    
C8    C12   A    
C23   H6    S    
C37   H39   S    
C7    H9    S    
C42   H51   S    
C35   H33   S    
C9    C11   A    
C17   O10   S    
C14   N1    A    
C5    C25   S    
C31   H24   S    
C14   O16   S    
C28   H16   S    
C3    O13   S    
C34   H30   S    
C28   H17   S    
C15   O3    A    
C40   H45   S    
C27   H13   S    
C34   H31   S    
C20   H4    S    
Cu1   O5    S    
C7    C9    A    
C22   H5    S    
C21   C25   S    
Cu2   O6    S    
C22   H2    S    
C33   H29   S    
C18   O6    A    
C34   H32   S    
C4    C26   S    
C38   H41   S    
C21   O12   S    
C41   C42   S    
C36   H36   S    
C19   C24   S    
C32   H25   S    
O15   C39   S    
C19   O8    A    
C31   C32   S    
Cu2   N2    S    
C39   H43   S    
C41   H49   S    
C2    C3    S    
C42   H52   S    
C37   C38   S    
C10   C11   A    
C30   H20   S    
Cu1   O1    S    
C33   C34   S    
C8    C10   A    
C22   C26   S    
C36   H37   S    
Cu1   Cu2   S    
C10   H12   S    
C15   O4    A    
C13   C14   A    
C16   N1    A    
Cu1   O7    S    
