data_mof_unit_30819.cif
_audit_creation_date              2012-12-11T15:09:16-0500
_audit_creation_method            fapswitch 2.2
_symmetry_space_group_name_H-M    P1
_symmetry_Int_Tables_number       1
_space_group_crystal_system       triclinic
_cell_length_a                    25.954663
_cell_length_b                    27.540807
_cell_length_c                    8.422893
_cell_angle_alpha                 89.999631
_cell_angle_beta                  95.979128
_cell_angle_gamma                 90.0
_cell_volume                      5988.03441686

loop_
_atom_site_label
_atom_site_type_symbol
_atom_type_description
_atom_site_fract_x
_atom_site_fract_y
_atom_site_fract_z
_atom_type_partial_charge
Ba1   Ba    Ba6+2 0.999910 0.465960 0.844870 1.637030
Ba2   Ba    Ba6+2 0.999910 0.534040 0.344870 1.637053
Ba3   Ba    Ba6+2 0.499910 0.965960 0.844870 1.637032
Ba4   Ba    Ba6+2 0.499910 0.034040 0.344870 1.637021
C1    C     C_3   0.040030 0.240570 0.681527 -0.329519
C2    C     C_R   0.847937 0.643518 0.594189 -0.129546
C3    C     C_3   0.516044 0.210055 0.139904 0.354504
C4    C     C_R   0.914591 0.383827 0.297129 -0.261732
C5    C     C_R   0.914594 0.616173 0.797128 -0.261704
C6    C     C_R   0.414590 0.883828 0.297133 -0.261730
C7    C     C_R   0.414589 0.116171 0.797133 -0.261741
C8    C     C_R   0.347928 0.856488 0.094207 -0.129304
C9    C     C_R   0.347926 0.143511 0.594207 -0.129239
C10   C     C_R   0.836484 0.316615 0.190699 0.006068
C11   C     C_R   0.836497 0.683394 0.690675 0.006008
C12   C     C_R   0.336481 0.816617 0.190706 0.006088
C13   C     C_R   0.336477 0.183380 0.690710 0.006101
C14   C     C_R   0.864590 0.311717 0.342919 -0.099520
C15   C     C_R   0.864607 0.688294 0.842890 -0.099499
C16   C     C_R   0.364587 0.811719 0.342926 -0.099531
C17   C     C_3   0.040026 0.759433 0.181520 -0.329507
C18   C     C_R   0.364583 0.188277 0.842931 -0.099536
C19   C     C_R   0.902895 0.345733 0.396437 0.026703
C20   C     C_R   0.902904 0.654272 0.896421 0.026711
C21   C     C_R   0.402893 0.845734 0.396441 0.026707
C22   C     C_R   0.402890 0.154263 0.896444 0.026707
C23   C     C_R   0.797097 0.232423 0.167751 -0.086616
C24   C     C_R   0.797109 0.767586 0.667714 -0.086605
C25   C     C_R   0.297095 0.732425 0.167760 -0.086618
C26   C     C_R   0.297093 0.267573 0.667759 -0.086622
C27   C     C_R   0.255661 0.700911 0.121773 -0.116114
C28   C     C_3   0.540031 0.740570 0.681525 -0.329517
C29   C     C_R   0.255659 0.299087 0.621773 -0.116111
C30   C     C_R   0.755663 0.200909 0.121767 -0.116115
C31   C     C_R   0.755672 0.799098 0.621737 -0.116123
C32   C     C_R   0.208086 0.718429 0.047315 -0.009802
C33   C     C_R   0.208084 0.281569 0.547320 -0.009801
C34   C     C_R   0.708088 0.218428 0.047312 -0.009803
C35   C     C_R   0.708095 0.781577 0.547304 -0.009809
C36   C     C_R   0.203205 0.769539 0.021157 0.392029
C37   C     C_R   0.203202 0.230459 0.521165 0.392031
C38   C     C_R   0.703207 0.269538 0.021156 0.392033
C39   C     C_3   0.540033 0.259426 0.181523 -0.329519
C40   C     C_R   0.703215 0.730466 0.521162 0.392049
C41   C     C_R   0.745614 0.300368 0.063854 -0.046788
C42   C     C_R   0.745624 0.699638 0.563855 -0.046788
C43   C     C_R   0.245612 0.800369 0.063856 -0.046788
C44   C     C_R   0.245609 0.199629 0.563864 -0.046785
C45   C     C_3   0.996677 0.278822 0.133043 0.500324
C46   C     C_3   0.996678 0.721179 0.633026 0.500300
C47   C     C_3   0.496679 0.778823 0.133055 0.500338
C48   C     C_3   0.496677 0.221177 0.633048 0.500322
C49   C     C_R   0.792791 0.282569 0.138585 -0.007250
C50   C     C_R   0.886491 0.390334 0.148342 0.084322
C51   C     C_R   0.792803 0.717439 0.638563 -0.007239
C52   C     C_R   0.292789 0.782571 0.138592 -0.007252
C53   C     C_R   0.292786 0.217426 0.638595 -0.007258
C54   C     C_R   0.138159 0.686562 0.840159 -0.148400
C55   C     C_R   0.138159 0.313438 0.340163 -0.148405
C56   C     C_R   0.638161 0.186561 0.840157 -0.148402
C57   C     C_R   0.638164 0.813441 0.340157 -0.148402
C58   C     C_R   0.098550 0.653530 0.790265 -0.003903
C59   C     C_R   0.098550 0.346471 0.290266 -0.003893
C60   C     C_R   0.598551 0.153529 0.790263 -0.003892
C61   C     C_R   0.886493 0.609666 0.648342 0.084278
C62   C     C_R   0.598553 0.846472 0.290265 -0.003894
C63   C     C_R   0.114739 0.609768 0.039643 0.064750
C64   C     C_R   0.114738 0.390232 0.539644 0.064753
C65   C     C_R   0.614739 0.109767 0.039642 0.064749
C66   C     C_R   0.614741 0.890233 0.539643 0.064752
C67   C     C_R   0.154064 0.643229 0.091603 -0.125788
C68   C     C_R   0.154063 0.356770 0.591606 -0.125789
C69   C     C_R   0.654065 0.143229 0.091602 -0.125787
C70   C     C_R   0.654069 0.856774 0.591599 -0.125784
C71   C     C_R   0.165539 0.682888 0.993839 -0.022137
C72   C     C_R   0.386489 0.890336 0.148348 0.084307
C73   C     C_R   0.165537 0.317111 0.493843 -0.022139
C74   C     C_R   0.665540 0.182887 0.993837 -0.022138
C75   C     C_R   0.665545 0.817116 0.493833 -0.022139
C76   C     C_R   0.085845 0.616628 0.892396 -0.276720
C77   C     C_R   0.085846 0.383373 0.392395 -0.276718
C78   C     C_R   0.585846 0.116627 0.892394 -0.276720
C79   C     C_R   0.585847 0.883372 0.392397 -0.276723
C80   C     C_3   0.010849 0.232534 0.227131 -0.317793
C81   C     C_3   0.010861 0.767458 0.727156 -0.317796
C82   C     C_3   0.510850 0.732533 0.227137 -0.317789
C83   C     C_R   0.386488 0.109664 0.648347 0.084329
C84   C     C_3   0.510851 0.267464 0.727135 -0.317779
C85   C     C_3   0.148175 0.469735 0.224118 0.312832
C86   C     C_3   0.148175 0.530265 0.724121 0.312834
C87   C     C_3   0.648175 0.969735 0.224117 0.312832
C88   C     C_3   0.648175 0.030265 0.724119 0.312834
C89   C     C_3   0.197444 0.439484 0.246399 -0.390118
C90   C     C_3   0.197441 0.560520 0.746351 -0.390104
C91   C     C_3   0.697445 0.939485 0.246398 -0.390120
C92   C     C_3   0.697441 0.060521 0.746343 -0.390103
C93   C     C_3   0.844819 0.528718 0.964265 0.336021
C94   C     C_R   0.847930 0.356486 0.094200 -0.129333
C95   C     C_3   0.844822 0.471292 0.464161 0.335990
C96   C     C_3   0.344818 0.028700 0.964080 0.335920
C97   C     C_3   0.344818 0.971297 0.464109 0.335937
C98   C     C_3   0.794987 0.558041 0.978786 0.091842
C99   C     C_3   0.794991 0.441960 0.478606 0.091630
C100  C     C_3   0.294987 0.058035 0.978499 0.091557
C101  C     C_3   0.294989 0.941962 0.478559 0.091620
C102  C     C_3   0.016042 0.289942 0.639906 0.354517
C103  C     C_3   0.016041 0.710060 0.139901 0.354528
C104  C     C_3   0.516042 0.789942 0.639902 0.354507
H1    H     H_    0.035310 0.316971 0.724094 0.105275
H2    H     H_    0.189159 0.597145 0.791146 0.068159
H3    H     H_    0.632489 0.026561 0.840689 0.013897
H4    H     H_    0.119678 0.451020 0.137342 0.060293
H5    H     H_    0.119667 0.548977 0.637370 0.060285
H6    H     H_    0.619678 0.951020 0.137342 0.060290
H7    H     H_    0.619667 0.048977 0.637369 0.060285
H8    H     H_    0.756466 0.617003 0.876235 0.186910
H9    H     H_    0.782343 0.580769 0.747544 0.153903
H10   H     H_    0.756398 0.383100 0.375622 0.186878
H11   H     H_    0.782283 0.419417 0.247186 0.154030
H12   H     H_    0.256368 0.116856 0.875369 0.186866
H13   H     H_    0.689162 0.902857 0.291163 0.068163
H14   H     H_    0.282244 0.080505 0.747015 0.154097
H15   H     H_    0.256388 0.883113 0.375541 0.186871
H16   H     H_    0.282267 0.919442 0.247124 0.154058
H17   H     H_    0.796439 0.550004 0.221002 0.184296
H18   H     H_    0.761404 0.597208 0.147997 0.171653
H19   H     H_    0.796535 0.449804 0.720884 0.184402
H20   H     H_    0.761460 0.402660 0.647621 0.171687
H21   H     H_    0.296580 0.050271 0.220806 0.184384
H22   H     H_    0.261477 0.097383 0.147428 0.171698
H23   H     H_    0.296549 0.949782 0.720842 0.184344
H24   H     H_    0.689158 0.097146 0.791133 0.068159
H25   H     H_    0.261473 0.902643 0.647551 0.171691
H26   H     H_    0.128456 0.769650 0.973188 0.292859
H27   H     H_    0.128452 0.230351 0.473186 0.292859
H28   H     H_    0.628457 0.269649 0.973187 0.292858
H29   H     H_    0.628464 0.730355 0.473198 0.292858
H30   H     H_    0.937942 0.304416 0.976524 0.208421
H31   H     H_    0.919314 0.262081 0.101209 0.130841
H32   H     H_    0.937940 0.695613 0.476461 0.208451
H33   H     H_    0.919318 0.737939 0.601186 0.130856
H34   H     H_    0.437943 0.804421 0.976536 0.208418
H35   H     H_    0.213976 0.435638 0.130600 0.126284
H36   H     H_    0.419314 0.762086 0.101229 0.130838
H37   H     H_    0.437943 0.195588 0.476519 0.208426
H38   H     H_    0.419312 0.237912 0.601231 0.130834
H39   H     H_    0.213955 0.564374 0.630527 0.126284
H40   H     H_    0.713977 0.935639 0.130599 0.126284
H41   H     H_    0.713954 0.064374 0.630517 0.126284
H42   H     H_    0.851081 0.524285 0.837107 -0.004687
H43   H     H_    0.851084 0.475763 0.337019 -0.004583
H44   H     H_    0.351074 0.024210 0.836943 -0.004359
H45   H     H_    0.035314 0.683031 0.224078 0.105265
H46   H     H_    0.351072 0.975778 0.336966 -0.004403
H47   H     H_    0.878576 0.547845 0.028332 0.053212
H48   H     H_    0.878583 0.452150 0.528158 0.053119
H49   H     H_    0.378581 0.047848 0.028036 0.053048
H50   H     H_    0.378582 0.952153 0.528076 0.053073
H51   H     H_    0.760797 0.533421 0.956963 0.078895
H52   H     H_    0.760804 0.466597 0.457113 0.078989
H53   H     H_    0.260802 0.033395 0.957146 0.079065
H54   H     H_    0.260802 0.966598 0.457118 0.079029
H55   H     H_    0.023206 0.299442 0.515751 -0.078839
H56   H     H_    0.535311 0.816971 0.724089 0.105271
H57   H     H_    0.023201 0.700563 0.015740 -0.078865
H58   H     H_    0.523205 0.799442 0.515745 -0.078835
H59   H     H_    0.523212 0.200552 0.015755 -0.078822
H60   H     H_    0.027316 0.213759 0.587164 0.102866
H61   H     H_    0.027310 0.786244 0.087161 0.102863
H62   H     H_    0.527316 0.713759 0.587166 0.102869
H63   H     H_    0.527323 0.286237 0.087155 0.102868
H64   H     H_    0.082875 0.243539 0.693139 0.073738
H65   H     H_    0.082871 0.756466 0.193124 0.073727
H66   H     H_    0.582876 0.743540 0.693129 0.073736
H67   H     H_    0.535308 0.183026 0.224105 0.105286
H68   H     H_    0.582879 0.256454 0.193143 0.073736
H69   H     H_    0.980468 0.223774 0.306295 0.066253
H70   H     H_    0.980478 0.776221 0.806311 0.066252
H71   H     H_    0.480470 0.723772 0.306298 0.066255
H72   H     H_    0.480472 0.276224 0.806302 0.066260
H73   H     H_    0.176025 0.637895 0.206738 0.088841
H74   H     H_    0.176023 0.362104 0.706741 0.088842
H75   H     H_    0.676025 0.137894 0.206736 0.088840
H76   H     H_    0.676031 0.862108 0.706731 0.088836
H77   H     H_    0.261264 0.662370 0.142306 0.082141
H78   H     H_    0.226367 0.457321 0.333976 0.126382
H79   H     H_    0.261263 0.337627 0.642302 0.082142
H80   H     H_    0.761265 0.162369 0.142297 0.082142
H81   H     H_    0.761274 0.837639 0.642256 0.082144
H82   H     H_    0.832996 0.217359 0.223990 0.076139
H83   H     H_    0.833009 0.782651 0.723937 0.076137
H84   H     H_    0.332994 0.717362 0.224001 0.076140
H85   H     H_    0.332992 0.282635 0.723997 0.076143
H86   H     H_    0.825849 0.362178 0.979433 0.094725
H87   H     H_    0.825855 0.637825 0.479425 0.094820
H88   H     H_    0.325846 0.862180 0.979440 0.094693
H89   H     H_    0.226377 0.542682 0.833887 0.126377
H90   H     H_    0.325845 0.137819 0.479440 0.094666
H91   H     H_    0.740712 0.339032 0.043973 0.087386
H92   H     H_    0.740722 0.660974 0.543988 0.087361
H93   H     H_    0.240710 0.839033 0.043974 0.087385
H94   H     H_    0.240706 0.160965 0.543983 0.087393
H95   H     H_    0.148141 0.714515 0.758289 0.110978
H96   H     H_    0.148140 0.285484 0.258294 0.110973
H97   H     H_    0.648142 0.214515 0.758287 0.110976
H98   H     H_    0.648146 0.785488 0.258287 0.110967
H99   H     H_    0.855261 0.282859 0.422394 0.077179
H100  H     H_    0.726368 0.957322 0.333975 0.126382
H101  H     H_    0.855281 0.717155 0.922357 0.077182
H102  H     H_    0.355258 0.782862 0.422402 0.077176
H103  H     H_    0.355252 0.217134 0.922407 0.077178
H104  H     H_    0.055871 0.590854 0.851643 0.063151
H105  H     H_    0.055872 0.409147 0.351641 0.063152
H106  H     H_    0.555872 0.090853 0.851641 0.063151
H107  H     H_    0.555871 0.909145 0.351646 0.063152
H108  H     H_    0.028068 0.227411 0.796714 0.169448
H109  H     H_    0.028066 0.772590 0.296710 0.169458
H110  H     H_    0.528072 0.727413 0.796717 0.169446
H111  H     H_    0.726378 0.042684 0.833879 0.126375
H112  H     H_    0.528070 0.272587 0.296707 0.169448
H113  H     H_    0.943346 0.410427 0.340620 0.059128
H114  H     H_    0.943342 0.589568 0.840631 0.059127
H115  H     H_    0.443346 0.910427 0.340621 0.059131
H116  H     H_    0.443346 0.089573 0.840620 0.059131
H117  H     H_    0.990275 0.307989 0.220948 -0.081070
H118  H     H_    0.990264 0.692007 0.720901 -0.081030
H119  H     H_    0.490279 0.807989 0.220966 -0.081084
H120  H     H_    0.490276 0.192009 0.720951 -0.081067
H121  H     H_    0.014818 0.201639 0.144474 0.132316
H122  H     H_    0.189160 0.402857 0.291165 0.068160
H123  H     H_    0.014844 0.798358 0.644528 0.132327
H124  H     H_    0.514819 0.701638 0.144475 0.132313
H125  H     H_    0.514820 0.298359 0.644480 0.132318
H126  H     H_    0.048190 0.237731 0.301893 0.084157
H127  H     H_    0.048197 0.762246 0.801930 0.084131
H128  H     H_    0.548192 0.737728 0.301902 0.084157
H129  H     H_    0.548193 0.262266 0.801891 0.084151
H130  H     H_    0.132474 0.473437 0.340666 0.013899
H131  H     H_    0.132488 0.526560 0.840689 0.013897
H132  H     H_    0.632475 0.973437 0.340667 0.013899
N1    N     N_3   0.789666 0.596826 0.860212 -0.511660
N2    N     N_3   0.948558 0.728837 0.530101 -0.451502
N3    N     N_3   0.448553 0.771187 0.030137 -0.451480
N4    N     N_3   0.448552 0.228817 0.530137 -0.451499
N5    N     N_3   0.789611 0.403271 0.359708 -0.511719
N6    N     N_3   0.289582 0.096684 0.859474 -0.511755
N7    N     N_3   0.289600 0.903286 0.359625 -0.511737
N8    N     N_3   0.796157 0.578649 0.139400 -0.447300
N9    N     N_3   0.796211 0.421225 0.639046 -0.447352
N10   N     N_3   0.296229 0.078821 0.138862 -0.447403
N11   N     N_3   0.296221 0.921212 0.638975 -0.447367
N12   N     N_3   0.948553 0.271184 0.030123 -0.451484
O1    O     O_2   0.898940 0.431940 0.867860 -0.448311
O2    O     O_3   0.036512 0.711095 0.535851 -0.592490
O3    O     O_3   0.536512 0.788905 0.035873 -0.592494
O4    O     O_3   0.536510 0.211095 0.535864 -0.592500
O5    O     O_3   0.058810 0.523750 0.066650 -0.494460
O6    O     O_3   0.058810 0.476250 0.566650 -0.494456
O7    O     O_3   0.558810 0.023750 0.066650 -0.494456
O8    O     O_3   0.558810 0.976250 0.566650 -0.494451
O9    O     O_3   0.941140 0.476130 0.123050 -0.490331
O10   O     O_3   0.941140 0.523870 0.623050 -0.490295
O11   O     O_3   0.441140 0.976130 0.123050 -0.490273
O12   O     O_2   0.898940 0.568060 0.367860 -0.448286
O13   O     O_3   0.441140 0.023870 0.623050 -0.490279
O14   O     O_3   0.982430 0.389880 0.635700 -0.497775
O15   O     O_3   0.982430 0.610120 0.135700 -0.497781
O16   O     O_3   0.482430 0.889880 0.635700 -0.497767
O17   O     O_3   0.482430 0.110120 0.135700 -0.497766
O18   O     O_2   0.894727 0.352277 0.721478 -0.458246
O19   O     O_2   0.894722 0.647720 0.221450 -0.458247
O20   O     O_2   0.394728 0.852276 0.721484 -0.458241
O21   O     O_2   0.394731 0.147726 0.221493 -0.458250
O22   O     O_3   0.837615 0.483012 0.030156 -0.679749
O23   O     O_2   0.398940 0.931940 0.867860 -0.448363
O24   O     O_3   0.837623 0.516978 0.530201 -0.679700
O25   O     O_3   0.337624 0.983024 0.030191 -0.679768
O26   O     O_3   0.337623 0.016979 0.530182 -0.679780
O27   O     O_3   0.962709 0.287940 0.655304 -0.593248
O28   O     O_3   0.962709 0.712059 0.155321 -0.593254
O29   O     O_3   0.462709 0.787940 0.655302 -0.593248
O30   O     O_3   0.462709 0.212061 0.155283 -0.593260
O31   O     O_2   0.100770 0.431440 0.821660 -0.457917
O32   O     O_2   0.100770 0.568560 0.321660 -0.457907
O33   O     O_2   0.600770 0.931440 0.821660 -0.457916
O34   O     O_2   0.398940 0.068060 0.367860 -0.448379
O35   O     O_2   0.600770 0.068560 0.321660 -0.457910
O36   O     O_3   0.017130 0.389790 0.053700 -0.480454
O37   O     O_3   0.017130 0.610210 0.553700 -0.480453
O38   O     O_3   0.517130 0.889790 0.053700 -0.480453
O39   O     O_3   0.517130 0.110210 0.553700 -0.480452
O40   O     O_2   0.104414 0.351974 0.962791 -0.488519
O41   O     O_2   0.104415 0.648024 0.462793 -0.488514
O42   O     O_2   0.604413 0.851974 0.962787 -0.488518
O43   O     O_2   0.604413 0.148026 0.462786 -0.488522
O44   O     O_3   0.157775 0.791430 0.958548 -0.739468
O45   O     O_3   0.160725 0.484580 0.667086 -0.634940
O46   O     O_3   0.157771 0.208569 0.458560 -0.739471
O47   O     O_3   0.657776 0.291429 0.958550 -0.739467
O48   O     O_3   0.657783 0.708573 0.458577 -0.739464
O49   O     O_3   0.160725 0.515420 0.167092 -0.634941
O50   O     O_3   0.660724 0.984580 0.667087 -0.634940
O51   O     O_3   0.660725 0.015421 0.167092 -0.634941
O52   O     O_3   0.036511 0.288905 0.035866 -0.592494
P1    P     P_3+3 0.893960 0.447890 0.040050 0.978119
P2    P     P_3+3 0.065114 0.654993 0.586754 0.942439
P3    P     P_3+3 0.565114 0.845007 0.086758 0.942439
P4    P     P_3+3 0.565114 0.154993 0.586754 0.942431
P5    P     P_3+3 0.935218 0.655601 0.101684 0.963812
P6    P     P_3+3 0.935217 0.344400 0.601690 0.963844
P7    P     P_3+3 0.435217 0.155600 0.101691 0.963857
P8    P     P_3+3 0.435217 0.844399 0.601692 0.963860
P9    P     P_3+3 0.893960 0.552110 0.540050 0.978202
P10   P     P_3+3 0.393960 0.947890 0.040050 0.978090
P11   P     P_3+3 0.393960 0.052110 0.540050 0.978069
P12   P     P_3+3 0.105800 0.447360 0.649510 0.981903
P13   P     P_3+3 0.105800 0.552640 0.149510 0.981901
P14   P     P_3+3 0.605800 0.947360 0.649510 0.981907
P15   P     P_3+3 0.605800 0.052640 0.149510 0.981903
P16   P     P_3+3 0.065114 0.345007 0.086757 0.942436

loop_
_geom_bond_atom_site_label_1
_geom_bond_atom_site_label_2
_ccdc_geom_bond_type
C95   C99   S    
C104  H56   S    
C64   C77   A    
Ba2   O37   S    
O31   P12   D    
O6    P12   S    
C56   H97   S    
C38   O47   S    
C96   C100  S    
C4    C19   A    
C64   P12   S    
H21   N10   S    
Ba2   O12   S    
C8    C12   A    
C42   C51   A    
C66   C70   A    
C93   H42   S    
C16   H102  S    
O11   P10   S    
C57   H98   S    
H14   N6    S    
O3    P3    S    
O43   P4    D    
Ba4   O8    S    
C8    H88   S    
C40   C42   A    
C100  N10   S    
C59   P16   S    
Ba3   P10   S    
C97   O26   S    
H27   O46   S    
C34   C74   S    
O28   P5    S    
H19   N9    S    
C38   C41   A    
C7    H116  S    
C37   O46   S    
C21   P8    S    
C12   C16   A    
C95   H48   S    
C102  H55   S    
O16   P8    S    
O18   P6    D    
C97   H50   S    
C17   H65   S    
C70   C75   A    
O1    P1    D    
C46   H118  S    
O27   P6    S    
Ba1   O6    S    
C91   H100  S    
C104  H58   S    
O33   P14   D    
C83   P11   S    
Ba3   O16   S    
C81   H127  S    
C85   H130  S    
C45   O52   S    
H20   N9    S    
O5    P13   S    
C95   O24   S    
C23   C49   A    
C88   H3    S    
O7    P15   S    
C55   C59   A    
H33   N2    S    
C56   C60   A    
C65   P15   S    
Ba4   O39   S    
Ba3   O7    S    
O49   P13   S    
C60   P4    S    
C5    C61   A    
H38   N4    S    
O39   P4    S    
C27   C32   A    
H17   N8    S    
O24   P9    S    
Ba1   O36   S    
C28   H110  S    
C103  H57   S    
C96   O25   S    
C67   H73   S    
C39   H112  S    
C81   H123  S    
O29   P8    S    
O30   P7    S    
C44   C53   A    
C96   H44   S    
C84   H125  S    
C56   C74   A    
C99   N5    S    
O50   P14   S    
C45   C80   S    
C58   C76   A    
C32   C71   S    
H30   N12   S    
C69   H75   S    
C61   P9    S    
C26   H85   S    
C70   H76   S    
C92   H41   S    
C44   H94   S    
C88   C92   S    
C65   C78   A    
C45   N12   S    
C5    H114  S    
C77   H105  S    
C24   C31   A    
C7    C83   A    
C81   H70   S    
C40   O48   S    
C3    C39   S    
O21   P7    D    
O15   P5    S    
C85   O49   S    
C76   H104  S    
C89   H78   S    
C41   C49   A    
C17   H109  S    
O9    P1    S    
H12   N6    S    
C103  O28   S    
H23   N11   S    
C10   C94   A    
H26   O44   S    
Ba4   O35   S    
C99   N9    S    
C48   C84   S    
C66   P14   S    
Ba1   O31   S    
C39   H63   S    
Ba2   O32   S    
Ba1   P1    S    
C82   H128  S    
C14   H99   S    
C11   C51   S    
C80   H126  S    
C12   C52   S    
C84   H72   S    
C9    C83   A    
C103  H45   S    
C6    C21   A    
C100  N6    S    
C36   O44   S    
C45   H117  S    
Ba3   Ba4   S    
C24   H83   S    
Ba4   O17   S    
C3    H59   S    
C47   N3    S    
Ba3   O23   S    
C35   C40   A    
C41   H91   S    
C87   H6    S    
C9    C13   A    
C90   H89   S    
C82   H124  S    
H11   N5    S    
O41   P2    D    
C97   H46   S    
C57   C75   A    
C17   H61   S    
C82   H71   S    
C1    H64   S    
O2    P2    S    
C85   C89   S    
C80   H69   S    
O14   P6    S    
C87   C91   S    
Ba1   O10   S    
Ba4   O11   S    
C10   C49   S    
C72   P10   S    
Ba1   P12   S    
C102  O27   S    
Ba3   O38   S    
Ba4   P11   S    
C104  O29   S    
C43   C52   A    
C102  H1    S    
C89   H122  S    
C54   C58   A    
C63   P13   S    
H31   N12   S    
C50   P1    S    
C47   O3    S    
C11   C15   A    
C85   H4    S    
C86   H131  S    
C99   H52   S    
C16   C21   A    
C26   C53   A    
C94   H86   S    
C19   P6    S    
C1    H60   S    
C101  N7    S    
C46   C81   S    
C62   C79   A    
C48   H120  S    
C2    C61   A    
Ba1   O14   S    
C87   H132  S    
C65   C69   A    
C23   H82   S    
C93   O22   S    
H25   N11   S    
C93   C98   S    
H28   O47   S    
O32   P13   D    
C91   H13   S    
C31   H81   S    
C47   C82   S    
C2    H87   S    
Ba1   O1    S    
C86   C90   S    
Ba1   O5    S    
C1    C102  S    
O23   P10   D    
O35   P15   D    
O36   P16   S    
C100  H53   S    
O42   P3    D    
O37   P2    S    
C96   H49   S    
C33   C73   S    
C90   H2    S    
Ba4   O34   S    
H37   N4    S    
O13   P11   S    
C35   C75   S    
C31   C35   A    
C27   H77   S    
C46   O2    S    
O12   P9    D    
C62   P3    S    
C18   H103  S    
Ba2   P9    S    
C80   H121  S    
C6    H115  S    
C54   H95   S    
Ba4   O7    S    
C8    C72   A    
C47   H119  S    
Ba3   O33   S    
H8    N1    S    
C15   H101  S    
C63   C76   A    
O45   P12   S    
C98   H51   S    
C79   H107  S    
O4    P4    S    
C25   C52   A    
C92   H111  S    
C13   C18   A    
C15   C20   A    
C48   O4    S    
O25   P10   S    
C28   H66   S    
Ba2   O15   S    
C63   C67   A    
C93   H47   S    
C88   H7    S    
C29   C33   A    
C18   C22   A    
O40   P16   D    
Ba3   O8    S    
O22   P1    S    
C13   C53   S    
C58   P2    S    
C36   C43   A    
C67   C71   A    
Ba3   O13   S    
C10   C14   A    
C55   C73   A    
H10   N5    S    
O38   P3    S    
C59   C77   A    
O19   P5    D    
C34   C38   A    
C48   N4    S    
O51   P15   S    
O52   P16   S    
Ba2   O9    S    
H34   N3    S    
H36   N3    S    
O8    P14   S    
C43   H93   S    
Ba1   Ba2   S    
C39   H68   S    
C86   H5    S    
C2    C11   A    
C78   H106  S    
C6    C72   A    
C57   C62   A    
C3    H67   S    
C69   C74   A    
C89   H35   S    
C64   C68   A    
C92   H24   S    
C22   P7    S    
C33   C37   A    
O10   P9    S    
C55   H96   S    
C24   C51   A    
C54   C71   A    
H22   N10   S    
C23   C30   A    
C97   C101  S    
C9    H90   S    
H18   N8    S    
C14   C19   A    
C32   C36   A    
C98   N8    S    
C101  N11   S    
C4    C50   A    
O26   P11   S    
C7    C22   A    
C1    H108  S    
C95   H43   S    
O20   P8    D    
C68   C73   A    
C66   C79   A    
C42   H92   S    
Ba2   O5    S    
C25   H84   S    
C29   H79   S    
C98   N1    S    
C30   H80   S    
Ba4   P15   S    
C60   C78   A    
C17   C103  S    
C3    O30   S    
C86   O45   S    
Ba2   O6    S    
C90   H39   S    
C28   H62   S    
C26   C29   A    
C88   O50   S    
C30   C34   A    
C91   H40   S    
C46   N2    S    
C5    C20   A    
Ba2   P13   S    
H16   N7    S    
C68   H74   S    
C25   C27   A    
H15   N7    S    
O34   P11   D    
C84   H129  S    
C37   C44   A    
H32   N2    S    
C87   O51   S    
C28   C104  S    
C101  H54   S    
C50   C94   A    
H29   O48   S    
C20   P5    S    
Ba3   P14   S    
C4    H113  S    
O17   P7    S    
H9    N1    S    
