data_mof_unit_61097.cif
_audit_creation_date              2012-12-10T17:20:06-0500
_audit_creation_method            fapswitch 2.2
_symmetry_space_group_name_H-M    P1
_symmetry_Int_Tables_number       1
_space_group_crystal_system       triclinic
_cell_length_a                    10.144373
_cell_length_b                    10.747954
_cell_length_c                    14.164785
_cell_angle_alpha                 89.767582
_cell_angle_beta                  81.775714
_cell_angle_gamma                 95.294401
_cell_volume                      1521.76669738

loop_
_atom_site_label
_atom_site_type_symbol
_atom_type_description
_atom_site_fract_x
_atom_site_fract_y
_atom_site_fract_z
_atom_type_partial_charge
C1    C     C_R   0.556393 0.733383 0.491359 0.879930
C2    C     C_1   0.499916 0.500017 0.042619 0.007465
C3    C     C_2   0.589435 0.866937 0.474654 -0.082315
C4    C     C_2   0.411079 0.132782 0.493459 -0.080684
C5    C     C_2   0.492986 0.932901 0.450800 -0.167005
C6    C     C_2   0.508426 0.067552 0.450388 -0.131003
C7    C     C_2   0.928463 0.512119 0.508031 -0.124420
C8    C     C_2   0.071564 0.487982 0.491885 -0.127140
C9    C     C_R   0.443607 0.266541 0.502952 0.878441
C10   C     C_R   0.500074 0.499967 0.670804 0.895768
C11   C     C_R   0.499927 0.500039 0.329189 0.884372
C12   C     C_1   0.500266 0.499958 0.772263 -0.208337
C13   C     C_1   0.499737 0.500050 0.227735 -0.206034
C14   C     C_1   0.500248 0.499970 0.857491 -0.007993
C15   C     C_1   0.499755 0.500041 0.142509 -0.008883
C16   C     C_1   0.500089 0.499994 0.957381 0.007926
H1    H     H_    0.122227 0.618584 0.581495 0.164961
H2    H     H_    0.771185 0.948857 0.419280 0.188005
H3    H     H_    0.877750 0.381349 0.418558 0.164200
H4    H     H_    0.606457 0.113087 0.422267 0.174633
H5    H     H_    0.395226 0.887884 0.441661 0.186794
H6    H     H_    0.105089 0.416298 0.442768 0.163759
H7    H     H_    0.894954 0.583869 0.557093 0.159297
H8    H     H_    0.217204 0.139010 0.557896 0.198482
H9    H     H_    0.292399 0.016127 0.588708 0.193977
H10   H     H_    0.773122 0.863866 0.518652 0.192828
N1    N     N_2   0.842710 0.448890 0.464580 -0.184949
N2    N     N_2   0.157290 0.551110 0.535420 -0.187112
N3    N     N_3   0.280947 0.072638 0.530710 -0.461406
N4    N     N_3   0.718797 0.926513 0.487162 -0.451161
O1    O     O_R   0.431050 0.692470 0.507130 -0.611012
O2    O     O_R   0.568950 0.307530 0.492870 -0.608591
O3    O     O_R   0.651120 0.659650 0.484400 -0.608614
O4    O     O_R   0.348880 0.340350 0.515600 -0.605711
O5    O     O_R   0.389940 0.516410 0.637650 -0.585662
O6    O     O_R   0.610060 0.483590 0.362350 -0.589672
O7    O     O_R   0.610010 0.483590 0.614920 -0.586538
O8    O     O_R   0.389990 0.516410 0.385080 -0.590643
Zn1   Zn    Zn3+2 0.353060 0.521920 0.515180 0.936491
Zn2   Zn    Zn3+2 0.646940 0.478080 0.484820 0.937557

loop_
_geom_bond_atom_site_label_1
_geom_bond_atom_site_label_2
_ccdc_geom_bond_type
C11   O8    A    
O5    Zn1   S    
C10   O5    A    
H2    N4    S    
C3    N4    S    
C2    C16   T    
C7    N1    D    
C8    H6    S    
C4    N3    S    
N2    Zn1   S    
C1    O1    A    
N1    Zn2   S    
C13   C15   T    
C5    H5    S    
C7    C8    S    
C2    C15   S    
C11   C13   S    
C9    O4    A    
C10   C12   S    
C10   O7    A    
C7    H7    S    
C11   O6    A    
O1    Zn1   S    
H10   N4    S    
O7    Zn2   S    
O2    Zn2   S    
H9    N3    S    
C5    C6    S    
C8    N2    D    
C14   C16   S    
O3    Zn2   S    
C1    O3    A    
O4    Zn1   S    
O6    Zn2   S    
C6    H4    S    
C4    C6    D    
H8    N3    S    
C9    O2    A    
C3    C5    D    
C4    C9    S    
H1    N2    S    
C12   C14   T    
H3    N1    S    
C1    C3    S    
O8    Zn1   S    
