data_mof_unit_46074.cif
_audit_creation_date              2012-10-26T18:29:52-0400
_audit_creation_method            fapswitch 2.2
_symmetry_space_group_name_H-M    P1
_symmetry_Int_Tables_number       1
_space_group_crystal_system       triclinic
_cell_length_a                    10.798124
_cell_length_b                    12.995108
_cell_length_c                    11.658049
_cell_angle_alpha                 100.027787
_cell_angle_beta                  93.656286
_cell_angle_gamma                 90.39744
_cell_volume                      1607.34933046

loop_
_atom_site_label
_atom_site_type_symbol
_atom_type_description
_atom_site_fract_x
_atom_site_fract_y
_atom_site_fract_z
_atom_type_partial_charge
C1    C     C_R   0.497201 0.299122 0.478460 0.554418
C2    C     C_R   0.520034 0.032359 0.554886 0.005776
C3    C     C_R   0.491024 0.969023 0.445203 0.021248
C4    C     C_R   0.259809 0.499732 0.500305 0.551692
C5    C     C_R   0.486544 0.861171 0.436342 -0.193256
C6    C     C_R   0.542007 0.878568 0.645349 0.231347
C7    C     C_R   0.545988 0.987329 0.653736 -0.141441
C8    C     C_R   0.378884 0.405339 0.021878 -0.178195
C9    C     C_R   0.390798 0.414002 0.144129 0.039097
C10   C     C_R   0.552781 0.540240 0.157006 0.058306
C11   C     C_R   0.544167 0.534115 0.034171 0.004770
C12   C     C_3   0.877522 0.497007 0.497474 0.042416
C13   C     C_R   0.455879 0.465754 0.965803 0.005422
C14   C     C_R   0.447164 0.459766 0.842973 0.042251
C15   C     C_R   0.609379 0.585795 0.855881 0.061842
C16   C     C_R   0.504167 0.701217 0.521812 0.570742
C17   C     C_R   0.621252 0.594452 0.978110 -0.170754
C18   C     C_R   0.740098 0.499785 0.499187 0.567443
C19   C     C_3   0.074710 0.402973 0.553359 -0.115124
C20   C     C_3   0.929315 0.404470 0.556533 -0.141936
C21   C     C_3   0.077314 0.599917 0.574930 -0.270151
C22   C     C_3   0.064786 0.496382 0.373879 -0.202794
C23   C     C_3   0.933751 0.600018 0.572935 -0.259528
C24   C     C_3   0.122090 0.497807 0.499807 0.003810
C25   C     C_R   0.127592 0.295732 0.505171 0.047181
C26   C     C_R   0.096890 0.243021 0.390361 -0.070350
C27   C     C_R   0.126693 0.138119 0.356523 -0.110959
C28   C     C_R   0.185379 0.083563 0.436839 -0.091561
C29   C     C_R   0.218541 0.134789 0.550025 -0.105052
C30   C     C_R   0.192430 0.240469 0.583391 -0.093272
C31   C     C_R   0.866840 0.295308 0.525990 0.032170
C32   C     C_R   0.889148 0.226057 0.605598 -0.079454
C33   C     C_R   0.856682 0.120136 0.575089 -0.102305
C34   C     C_3   0.922646 0.489298 0.370450 0.107239
C35   C     C_R   0.801166 0.081345 0.464712 -0.088340
C36   C     C_R   0.772379 0.149403 0.387107 -0.110745
C37   C     C_R   0.800928 0.256103 0.418647 -0.093647
C38   C     C_R   0.510765 0.815269 0.535486 0.032832
C39   C     C_R   0.495449 0.185900 0.465921 0.026515
C40   C     C_R   0.466060 0.014668 0.346149 -0.143855
C41   C     C_R   0.467661 0.122897 0.356548 -0.131915
C42   C     C_R   0.522511 0.140290 0.564480 -0.118032
Cu1   Cu    Cu3+1 0.509350 0.507730 0.615930 0.955735
Cu2   Cu    Cu3+1 0.490650 0.492270 0.384070 0.937695
H1    H     H_    0.109866 0.420834 0.646891 0.102690
H2    H     H_    0.669296 0.632486 0.813523 0.149716
H3    H     H_    0.309989 0.351885 0.971746 0.077970
H4    H     H_    0.690224 0.647827 0.028234 0.098636
H5    H     H_    0.331043 0.367177 0.186509 0.120067
H6    H     H_    0.620062 0.592899 0.210496 0.155963
H7    H     H_    0.910318 0.428430 0.650388 0.114168
H8    H     H_    0.116482 0.607292 0.666709 0.135399
H9    H     H_    0.905361 0.608321 0.664188 0.123124
H10   H     H_    0.094490 0.568874 0.343587 0.142094
H11   H     H_    0.101309 0.432166 0.310273 0.103766
H12   H     H_    0.110787 0.669474 0.541209 0.115165
H13   H     H_    0.896175 0.413058 0.317090 0.146772
H14   H     H_    0.901507 0.634897 0.347432 0.318650
H15   H     H_    0.589372 0.888809 0.811376 0.308750
H16   H     H_    0.041070 0.278787 0.328989 0.082315
H17   H     H_    0.099918 0.097981 0.269019 0.097205
H18   H     H_    0.205118 0.001525 0.411393 0.113673
H19   H     H_    0.263660 0.092316 0.612493 0.111536
H20   H     H_    0.216631 0.277218 0.672741 0.078281
H21   H     H_    0.937779 0.253326 0.689695 0.089494
H22   H     H_    0.877242 0.067709 0.636160 0.102698
H23   H     H_    0.897661 0.670006 0.539996 0.119100
H24   H     H_    0.777960 0.998953 0.440222 0.115566
H25   H     H_    0.726273 0.119611 0.302563 0.108251
H26   H     H_    0.771537 0.305179 0.357435 0.110627
H27   H     H_    0.463090 0.813019 0.351899 0.128312
H28   H     H_    0.443874 0.966909 0.261338 0.103215
H29   H     H_    0.569251 0.036785 0.737409 0.085467
H30   H     H_    0.446649 0.157150 0.279426 0.122288
H31   H     H_    0.545296 0.188629 0.648944 0.122129
H32   H     H_    0.379702 0.407311 0.789475 0.106537
N1    N     N_R   0.523430 0.519360 0.790130 -0.230584
N2    N     N_R   0.476570 0.480640 0.209880 -0.234463
O1    O     O_R   0.506640 0.354460 0.582000 -0.514082
O2    O     O_3   0.569323 0.833316 0.742634 -0.700209
O3    O     O_R   0.490840 0.341410 0.386200 -0.516599
O4    O     O_R   0.325590 0.506510 0.597900 -0.513131
O5    O     O_R   0.309790 0.493450 0.402100 -0.516260
O6    O     O_R   0.509160 0.658590 0.613800 -0.435297
O7    O     O_R   0.493360 0.645540 0.418000 -0.529001
O8    O     O_R   0.690210 0.506550 0.597900 -0.525294
O9    O     O_R   0.674410 0.493490 0.402100 -0.466434
O10   O     O_3   0.868423 0.564844 0.310408 -0.715548

loop_
_geom_bond_atom_site_label_1
_geom_bond_atom_site_label_2
_ccdc_geom_bond_type
C29   H19   S    
C8    C13   A    
C30   H20   S    
C2    C7    A    
C17   H4    S    
Cu2   O5    S    
C10   N2    A    
C7    H29   S    
C12   C23   S    
C42   H31   S    
C18   O8    A    
C28   C29   A    
C20   H7    S    
C4    C24   S    
C1    O3    A    
C16   O6    A    
C14   N1    A    
C23   H23   S    
C27   H17   S    
C41   H30   S    
C11   C17   A    
C19   C20   S    
C8    C9    A    
C34   H13   S    
C6    C38   A    
Cu2   O9    S    
C13   C14   A    
Cu1   O6    S    
C22   H10   S    
C33   H22   S    
C23   H9    S    
C39   C42   A    
C22   C34   S    
C9    H5    S    
C39   C41   A    
Cu2   O3    S    
C25   C26   A    
C31   C37   A    
C35   C36   A    
C14   H32   S    
Cu1   Cu2   S    
C29   C30   A    
C6    O2    S    
C31   C32   A    
C12   C20   S    
C26   C27   A    
C34   O10   S    
C6    C7    A    
Cu1   O1    S    
C40   C41   A    
C3    C40   A    
C21   C23   S    
C16   O7    A    
C1    O1    A    
C22   C24   S    
C12   C34   S    
Cu2   O7    S    
C10   H6    S    
C36   H25   S    
C25   C30   A    
C15   C17   A    
C36   C37   A    
C40   H28   S    
Cu1   O8    S    
C3    C5    A    
H14   O10   S    
H15   O2    S    
C21   H12   S    
C19   H1    S    
C22   H11   S    
Cu1   N1    S    
C18   O9    A    
C37   H26   S    
C32   C33   A    
Cu2   N2    S    
C2    C3    A    
C8    H3    S    
C5    H27   S    
C11   C13   A    
C15   N1    A    
C4    O5    A    
C35   H24   S    
C2    C42   A    
C33   C35   A    
C19   C24   S    
C9    N2    A    
C19   C25   S    
C10   C11   A    
C1    C39   S    
C4    O4    A    
C21   C24   S    
C12   C18   S    
C27   C28   A    
Cu1   O4    S    
C15   H2    S    
C5    C38   A    
C26   H16   S    
C21   H8    S    
C16   C38   S    
C32   H21   S    
C20   C31   S    
C28   H18   S    
