data_mof_unit_21598.cif
_audit_creation_date              2012-12-10T17:05:24-0500
_audit_creation_method            fapswitch 2.2
_symmetry_space_group_name_H-M    P1
_symmetry_Int_Tables_number       1
_space_group_crystal_system       triclinic
_cell_length_a                    10.025169
_cell_length_b                    10.70998
_cell_length_c                    15.450335
_cell_angle_alpha                 90.056548
_cell_angle_beta                  67.391611
_cell_angle_gamma                 90.354319
_cell_volume                      1531.38219603

loop_
_atom_site_label
_atom_site_type_symbol
_atom_type_description
_atom_site_fract_x
_atom_site_fract_y
_atom_site_fract_z
_atom_type_partial_charge
C1    C     C_R   0.501979 0.737492 0.497718 0.927195
C2    C     C_R   0.739097 0.515831 0.026376 0.175242
C3    C     C_R   0.594804 0.548246 0.082792 0.097827
C4    C     C_R   0.409264 0.499078 0.676216 0.911293
C5    C     C_R   0.838188 0.490534 0.068140 -0.215712
C6    C     C_R   0.792545 0.489603 0.165635 -0.197468
C7    C     C_R   0.551406 0.544876 0.179907 -0.264646
C8    C     C_2   0.603031 0.066890 0.509779 -0.203417
C9    C     C_2   0.482091 0.133325 0.530068 0.021706
C10   C     C_2   0.598242 0.933544 0.518656 -0.132044
C11   C     C_2   0.509159 0.869513 0.489593 -0.301718
C12   C     C_R   0.422724 0.540317 0.909240 0.045342
C13   C     C_2   0.117440 0.478873 0.426266 -0.285021
C14   C     C_2   0.964596 0.455767 0.430498 0.516531
C15   C     C_R   0.496179 0.262700 0.505888 0.889060
C16   C     C_R   0.590590 0.502197 0.323658 0.861499
C17   C     C_R   0.352221 0.514102 0.777560 -0.089779
C18   C     C_R   0.647567 0.512733 0.221558 -0.058322
C19   C     C_R   0.193524 0.624251 0.914698 -0.216207
C20   C     C_R   0.227200 0.584333 0.822988 -0.223328
C21   C     C_R   0.439222 0.478856 0.825438 0.071062
C22   C     C_3   0.043678 0.308488 0.308417 0.046637
C23   C     C_R   0.291896 0.604760 0.957684 0.153875
C24   C     C_3   0.145743 0.359033 0.212723 -0.378538
C25   C     C_3   0.281788 0.280200 0.170728 -0.892673
C26   C     C_R   0.531461 0.539980 0.946328 0.074084
C27   C     C_R   0.494658 0.573258 0.041005 0.067510
C28   C     C_R   0.360261 0.631525 0.090034 -0.237955
C29   C     C_R   0.262282 0.650150 0.047661 -0.219574
C30   C     C_R   0.677942 0.517299 0.889962 -0.174114
C31   C     C_R   0.780933 0.506808 0.929470 -0.230169
H1    H     H_    0.162338 0.698816 0.085869 0.151077
H2    H     H_    0.868649 0.466959 0.197235 0.182726
H3    H     H_    0.891988 0.486896 0.884604 0.158823
H4    H     H_    0.095018 0.676258 0.949931 0.155081
H5    H     H_    0.157994 0.610975 0.786921 0.171391
H6    H     H_    0.331628 0.669666 0.159518 0.145670
H7    H     H_    0.714675 0.511164 0.814533 0.175186
H8    H     H_    0.984835 0.226800 0.295712 0.160173
H9    H     H_    0.103950 0.270826 0.350034 0.142992
H10   H     H_    0.088947 0.359319 0.163573 0.220644
H11   H     H_    0.177514 0.456725 0.219648 0.224868
H12   H     H_    0.949227 0.467265 0.025681 0.153368
H13   H     H_    0.344990 0.284283 0.216054 0.262168
H14   H     H_    0.350224 0.316993 0.100304 0.279289
H15   H     H_    0.252772 0.181614 0.163380 0.264597
H16   H     H_    0.709674 0.109498 0.478445 0.167161
H17   H     H_    0.673834 0.888202 0.543271 0.181888
H18   H     H_    0.440228 0.914940 0.459538 0.171641
H19   H     H_    0.206463 0.472710 0.359060 0.184716
H20   H     H_    0.064588 0.493376 0.563517 0.164180
H21   H     H_    0.870325 0.551185 0.549363 0.115502
H22   H     H_    0.439756 0.559820 0.224438 0.154186
I1    I     I_    0.268444 0.069354 0.615697 -0.336832
I2    I     I_    0.557056 0.306950 0.784281 -0.351877
N1    N     N_2   0.148330 0.498670 0.499030 -0.193317
N2    N     N_2   0.852680 0.498640 0.499000 -0.202237
O1    O     O_R   0.386950 0.680940 0.500010 -0.598535
O2    O     O_R   0.613110 0.680900 0.499990 -0.621859
O3    O     O_R   0.322330 0.500030 0.632270 -0.611349
O4    O     O_R   0.548480 0.499990 0.632240 -0.594961
O5    O     O_R   0.386890 0.319100 0.500010 -0.584614
O6    O     O_R   0.613050 0.319060 0.499990 -0.591399
O7    O     O_R   0.451520 0.500010 0.367760 -0.625709
O8    O     O_R   0.677670 0.499970 0.367730 -0.561221
O9    O     O_3   0.939806 0.399865 0.356359 -0.613993
Zn1   Zn    Zn3+2 0.349000 0.500030 0.500020 0.963592
Zn2   Zn    Zn3+2 0.651000 0.499970 0.499980 0.998809

loop_
_geom_bond_atom_site_label_1
_geom_bond_atom_site_label_2
_ccdc_geom_bond_type
C8    C9    D    
C19   C23   A    
C11   H18   S    
C7    C18   A    
C25   H14   S    
O2    Zn2   S    
N1    Zn1   S    
C24   H11   S    
C19   C20   A    
C1    C11   S    
C6    H2    S    
C13   N1    D    
C22   H9    S    
O8    Zn2   S    
C3    C27   A    
C2    C3    A    
C5    H12   S    
C31   H3    S    
O3    Zn1   S    
C19   H4    S    
C13   C14   S    
C24   H10   S    
C12   C23   A    
C4    O3    A    
C26   C27   A    
C5    C6    A    
C12   C21   A    
C28   H6    S    
C22   H8    S    
C25   H15   S    
C25   H13   S    
C8    C10   S    
C28   C29   A    
C16   O8    A    
C15   O5    A    
C26   C30   A    
C29   H1    S    
C3    C7    A    
C1    O2    A    
C10   H17   S    
C30   C31   A    
C6    C18   A    
C22   C24   S    
C8    H16   S    
C2    C5    A    
O5    Zn1   S    
C10   C11   D    
C7    H22   S    
N2    Zn2   S    
C13   H19   S    
C20   H5    S    
O7    Zn1   S    
C23   C29   A    
O1    Zn1   S    
C17   C20   A    
C24   C25   S    
C14   O9    S    
C16   C18   S    
H20   N1    S    
H21   N2    S    
C27   C28   A    
C21   I2    S    
C14   N2    D    
O4    Zn2   S    
O6    Zn2   S    
C22   O9    S    
C15   O6    A    
C9    I1    S    
C16   O7    A    
C30   H7    S    
C1    O1    A    
C4    O4    A    
C17   C21   A    
C9    C15   S    
C12   C26   A    
C2    C31   A    
C4    C17   S    
