data_mof_unit_39855.cif
_audit_creation_date              2012-12-10T20:00:05-0500
_audit_creation_method            fapswitch 2.2
_symmetry_space_group_name_H-M    P1
_symmetry_Int_Tables_number       1
_space_group_crystal_system       triclinic
_cell_length_a                    15.008775
_cell_length_b                    14.265267
_cell_length_c                    8.889621
_cell_angle_alpha                 89.489371
_cell_angle_beta                  92.090268
_cell_angle_gamma                 90.443452
_cell_volume                      1901.91069524

loop_
_atom_site_label
_atom_site_type_symbol
_atom_type_description
_atom_site_fract_x
_atom_site_fract_y
_atom_site_fract_z
_atom_type_partial_charge
C1    C     C_R   0.326925 0.499411 0.495578 0.938694
C2    C     C_R   0.467703 0.894661 0.371471 0.297165
C3    C     C_R   0.499853 0.500260 0.218785 0.933146
C4    C     C_R   0.500147 0.499740 0.781215 0.933140
C5    C     C_R   0.493798 0.053452 0.507442 -0.103371
C6    C     C_R   0.506202 0.946548 0.492557 -0.103371
C7    C     C_1   0.499947 0.500377 0.065441 -0.093077
C8    C     C_1   0.500053 0.499623 0.934558 -0.093077
C9    C     C_R   0.089527 0.573870 0.408715 0.375302
C10   C     C_R   0.910473 0.426126 0.591273 0.375300
C11   C     C_R   0.910638 0.589892 0.537531 0.376414
C12   C     C_R   0.673075 0.500589 0.504424 0.938700
C13   C     C_R   0.089363 0.410106 0.462462 0.376412
C14   C     C_R   0.182179 0.578388 0.427177 0.059691
C15   C     C_R   0.817821 0.421610 0.572818 0.059688
C16   C     C_R   0.817984 0.589874 0.517673 0.088504
C17   C     C_R   0.182017 0.410125 0.482331 0.088521
C18   C     C_R   0.229196 0.496966 0.475692 -0.217102
C19   C     C_R   0.770804 0.503033 0.524309 -0.217100
C20   C     C_R   0.044689 0.495877 0.466895 -0.067492
C21   C     C_R   0.955311 0.504120 0.533091 -0.067492
C22   C     C_3   0.224453 0.732762 0.512238 -0.499968
C23   C     C_R   0.443606 0.204812 0.402585 0.370712
C24   C     C_3   0.775549 0.267228 0.487780 -0.499948
C25   C     C_3   0.765437 0.703461 0.333075 -0.539309
C26   C     C_3   0.234569 0.296561 0.666961 -0.539332
C27   C     C_R   0.556393 0.795189 0.597415 0.370710
C28   C     C_R   0.541519 0.203668 0.616044 0.337160
C29   C     C_R   0.458480 0.796332 0.383956 0.337163
C30   C     C_R   0.434176 0.106190 0.412910 0.303641
C31   C     C_R   0.565824 0.893810 0.587090 0.303640
C32   C     C_R   0.532296 0.105339 0.628529 0.297165
Cl1   Cl    Cl    0.376544 0.266403 0.269389 -0.458755
Cl2   Cl    Cl    0.670543 0.941951 0.645365 -0.421982
Cl3   Cl    Cl    0.536542 0.056655 0.812840 -0.348353
Cl4   Cl    Cl    0.463457 0.943344 0.187160 -0.348354
Cl5   Cl    Cl    0.623453 0.733598 0.730615 -0.458763
Cl6   Cl    Cl    0.602699 0.262279 0.759349 -0.481874
Cl7   Cl    Cl    0.397299 0.737720 0.240653 -0.481866
Cl8   Cl    Cl    0.033854 0.653298 0.283617 -0.521365
Cl9   Cl    Cl    0.966147 0.346699 0.716371 -0.521374
Cl10  Cl    Cl    0.966662 0.692495 0.602303 -0.507970
Cl11  Cl    Cl    0.033343 0.307501 0.397689 -0.507953
Cl12  Cl    Cl    0.329456 0.058049 0.354635 -0.421968
H1    H     H_    0.210854 0.691456 0.289604 0.308605
H2    H     H_    0.832375 0.719318 0.289403 0.279198
H3    H     H_    0.723483 0.767057 0.320824 0.245768
H4    H     H_    0.733240 0.646537 0.265494 0.224172
H5    H     H_    0.205797 0.269087 0.441765 0.318049
H6    H     H_    0.167633 0.280712 0.710645 0.279195
H7    H     H_    0.266770 0.353493 0.734519 0.224163
H8    H     H_    0.276522 0.232965 0.679229 0.245774
H9    H     H_    0.155002 0.756822 0.525541 0.279165
H10   H     H_    0.266293 0.794267 0.482776 0.243495
H11   H     H_    0.250809 0.702896 0.620696 0.231975
H12   H     H_    0.789143 0.308551 0.710411 0.308600
H13   H     H_    0.845001 0.243168 0.474485 0.279164
H14   H     H_    0.749194 0.297087 0.379315 0.231973
H15   H     H_    0.733710 0.205724 0.517253 0.243496
H16   H     H_    0.794201 0.730905 0.558282 0.318051
N1    N     N_R   0.500000 0.252470 0.500000 -0.207644
N2    N     N_R   0.500000 0.747530 0.500000 -0.207645
N3    N     N_2   0.227411 0.663682 0.394265 -0.251606
N4    N     N_2   0.772588 0.336319 0.605742 -0.251603
N5    N     N_2   0.773154 0.676405 0.490145 -0.251610
N6    N     N_2   0.226846 0.323596 0.509881 -0.251608
O1    O     O_R   0.369060 0.579480 0.500010 -0.582470
O2    O     O_R   0.630940 0.420520 0.499990 -0.582470
O3    O     O_R   0.630940 0.579480 0.499990 -0.573713
O4    O     O_R   0.369060 0.420520 0.500010 -0.573709
O5    O     O_R   0.500000 0.579460 0.285340 -0.570984
O6    O     O_R   0.500000 0.420540 0.714660 -0.570985
O7    O     O_R   0.500000 0.579460 0.714660 -0.574067
O8    O     O_R   0.500000 0.420540 0.285340 -0.574069
Zn1   Zn    Zn3+2 0.500000 0.606140 0.500000 1.061842
Zn2   Zn    Zn3+2 0.500000 0.393860 0.500000 1.061842

loop_
_geom_bond_atom_site_label_1
_geom_bond_atom_site_label_2
_ccdc_geom_bond_type
C9    Cl8   S    
C3    O5    A    
C9    C14   A    
H12   N4    S    
O3    Zn1   S    
C22   H11   S    
C27   N2    A    
C26   H8    S    
O2    Zn2   S    
C12   O2    A    
C11   C16   A    
C25   H3    S    
C9    C20   A    
C1    O4    A    
C28   Cl6   S    
C4    C8    S    
C5    C32   A    
C28   N1    A    
C29   Cl7   S    
C13   Cl11  S    
C26   H6    S    
C17   C18   A    
C1    C18   S    
C15   N4    S    
C25   N5    S    
C7    C8    T    
C24   N4    S    
O5    Zn1   S    
C26   H7    S    
C20   C21   S    
C10   Cl9   S    
C15   C19   A    
O7    Zn1   S    
C25   H4    S    
C30   Cl12  S    
C17   N6    S    
C2    C6    A    
O8    Zn2   S    
C27   Cl5   S    
C2    C29   A    
C14   N3    S    
C12   C19   S    
C24   H14   S    
C1    O1    A    
C12   O3    A    
C4    O7    A    
H16   N5    S    
C6    C31   A    
C22   H9    S    
C3    C7    S    
C10   C15   A    
C16   C19   A    
C10   C21   A    
O4    Zn2   S    
C5    C6    S    
N2    Zn1   S    
C31   Cl2   S    
N1    Zn2   S    
H5    N6    S    
C27   C31   A    
C13   C17   A    
C26   N6    S    
C32   Cl3   S    
C28   C32   A    
O1    Zn1   S    
C23   C30   A    
C11   Cl10  S    
C22   H10   S    
C5    C30   A    
C23   N1    A    
C2    Cl4   S    
C3    O8    A    
C14   C18   A    
C29   N2    A    
C24   H13   S    
O6    Zn2   S    
C16   N5    S    
C13   C20   A    
C22   N3    S    
C25   H2    S    
H1    N3    S    
C11   C21   A    
C24   H15   S    
C4    O6    A    
C23   Cl1   S    
