data_mof_unit_43890.cif
_audit_creation_date              2013-03-05T16:31:07-0500
_audit_creation_method            fapswitch 2.2
_symmetry_space_group_name_H-M    P1
_symmetry_Int_Tables_number       1
_space_group_crystal_system       triclinic
_cell_length_a                    10.799777
_cell_length_b                    10.814113
_cell_length_c                    9.536882
_cell_angle_alpha                 89.799714
_cell_angle_beta                  89.539728
_cell_angle_gamma                 90.441293
_cell_volume                      1113.73651076

loop_
_atom_site_label
_atom_site_type_symbol
_atom_site_description
_atom_site_fract_x
_atom_site_fract_y
_atom_site_fract_z
_atom_type_partial_charge
O1    O     O_R   0.500000 0.319640 0.618810 -0.600964
O2    O     O_R   0.500010 0.319680 0.381230 -0.587513
C1    C     C_R   0.503248 0.262266 0.500013 0.780973
O3    O     O_R   0.319640 0.499980 0.618820 -0.579596
O4    O     O_R   0.319650 0.500020 0.381230 -0.571693
C2    C     C_R   0.262458 0.492825 0.500945 0.795485
Cu1   Cu    Cu3+1 0.499990 0.499980 0.640670 0.942871
Cu2   Cu    Cu3+1 0.500010 0.500020 0.359330 0.952442
O5    O     O_R   0.499990 0.680320 0.618770 -0.575491
O6    O     O_R   0.500000 0.680360 0.381190 -0.583788
O7    O     O_R   0.680350 0.499980 0.618770 -0.587534
O8    O     O_R   0.680360 0.500020 0.381180 -0.580260
C3    C     C_R   0.503316 0.737722 0.499699 0.807896
C4    C     C_R   0.737332 0.495275 0.499445 0.787217
H1    H     H_    0.115453 0.624221 0.341469 0.162546
C5    C     C_R   0.122046 0.316517 0.683888 -0.277753
H2    H     H_    0.221642 0.312607 0.689717 0.165718
C6    C     C_R   0.053485 0.232989 0.767600 0.396451
C7    C     C_R   0.924964 0.227950 0.754528 -0.200880
H3    H     H_    0.870541 0.162277 0.815462 0.176749
C8    C     C_R   0.864669 0.308508 0.664768 -0.254185
H4    H     H_    0.765435 0.297918 0.656662 0.172470
C9    C     C_R   0.931365 0.398234 0.586248 0.103701
C10   C     C_R   0.062249 0.400168 0.592107 0.053299
C11   C     C_R   0.128305 0.483723 0.502784 -0.078412
C12   C     C_R   0.065379 0.561020 0.410269 -0.177998
H5    H     H_    0.891134 0.626148 0.340153 0.152246
C13   C     C_R   0.937807 0.561848 0.408930 -0.202683
C14   C     C_R   0.870672 0.483750 0.498319 -0.084052
C15   C     C_R   0.524180 0.063296 0.624852 0.081656
C16   C     C_R   0.518032 0.129333 0.499233 -0.091305
C17   C     C_R   0.530926 0.065085 0.371990 -0.184770
H6    H     H_    0.534172 0.113591 0.272450 0.167748
C18   C     C_R   0.530885 0.936147 0.371823 -0.203670
H7    H     H_    0.534147 0.888398 0.272225 0.162370
C19   C     C_R   0.517887 0.870810 0.498896 -0.094998
C20   C     C_R   0.524065 0.935954 0.624746 0.102600
C21   C     C_3   0.442319 0.928284 0.751582 -0.418436
C22   C     C_3   0.441875 0.068562 0.750992 -0.399239
H8    H     H_    0.350170 0.886490 0.729244 0.215891
H9    H     H_    0.490938 0.888385 0.843344 0.190241
H10   H     H_    0.350042 0.108041 0.725909 0.226989
H11   H     H_    0.489280 0.109819 0.842893 0.198504
C23   C     C_R   0.550696 0.596928 0.072840 0.254948
N1    N     N_R   0.500790 0.500930 0.147930 -0.195329
C24   C     C_R   0.439712 0.410438 0.075262 -0.043207
H12   H     H_    0.392738 0.336646 0.131622 0.169732
C25   C     C_R   0.440034 0.410368 0.926352 -0.057801
H13   H     H_    0.394159 0.336588 0.870904 0.176522
N2    N     N_R   0.500790 0.500890 0.852020 -0.195954
C26   C     C_R   0.550669 0.596918 0.925423 0.253928
C27   C     C_3   0.681780 0.640884 0.918145 -0.479514
C28   C     C_3   0.681796 0.640859 0.077370 -0.504201
H14   H     H_    0.745421 0.571238 0.872356 0.229132
H15   H     H_    0.689909 0.735072 0.871763 0.197012
H16   H     H_    0.745311 0.571120 0.122547 0.224478
H17   H     H_    0.690011 0.735022 0.122885 0.192971
N3    N     N_R   0.113970 0.153251 0.865995 0.110680
O9    O     O_R   0.215093 0.189286 0.927156 -0.427099
O10   O     O_R   0.061241 0.050545 0.906953 -0.367140

loop_
_geom_bond_atom_site_label_1
_geom_bond_atom_site_label_2
_geom_bond_distance
_ccdc_geom_bond_type
O4    Cu2   1.957344 S    
C1    C16   1.447653 S    
C9    C10   1.415061 A    
C20   C21   1.493484 S    
O5    C3    1.292362 A    
C12   C13   1.378007 A    
C16   C17   1.406901 A    
C27   H15   1.111618 S    
Cu2   O8    1.960520 S    
C17   H6    1.083173 S    
C25   N2    1.367156 A    
N2    C26   1.364234 A    
C11   C12   1.397241 A    
Cu1   Cu2   2.683103 S    
C5    C10   1.419181 A    
O1    Cu1   1.962054 S    
C8    H4    1.080342 S    
C10   C11   1.423365 A    
Cu1   O7    1.957344 S    
O4    C2    1.295517 A    
C19   C20   1.395610 A    
C21   H9    1.111732 S    
O3    Cu1   1.960518 S    
C9    C14   1.414506 A    
C23   C26   1.405907 A    
C5    C6    1.405955 A    
C13   C14   1.393309 A    
C21   H8    1.112293 S    
C27   H14   1.111657 S    
C15   C22   1.491510 S    
O2    C1    1.290755 A    
C22   H10   1.110280 S    
C18   C19   1.406182 A    
C8    C9    1.413004 A    
C15   C16   1.394871 A    
C18   H7    1.083174 S    
O7    C4    1.290719 A    
C24   C25   1.420117 A    
C2    C11   1.451363 S    
C4    C14   1.446330 S    
N3    O10   1.301579 A    
C26   C27   1.491198 S    
C21   C22   1.517015 S    
C27   C28   1.518510 S    
Cu1   N2    2.015767 S    
C3    C19   1.446593 S    
Cu2   O6    1.962054 S    
C6    C7    1.395248 A    
C24   H12   1.081411 S    
C28   H16   1.111468 S    
H5    C13   1.084126 S    
Cu1   O5    1.960643 S    
C28   H17   1.111538 S    
Cu2   N1    2.016035 S    
C25   H13   1.078319 S    
H1    C12   1.084234 S    
C22   H11   1.111644 S    
C7    C8    1.388596 A    
N3    O9    1.300017 A    
N1    C24   1.369373 A    
O3    C2    1.289233 A    
C23   C28   1.490965 S    
C6    N3    1.436550 S    
O2    Cu2   1.960644 S    
C23   N1    1.364190 A    
C7    H3    1.082929 S    
C15   C20   1.377079 A    
O8    C4    1.290179 A    
C5    H2    1.078633 S    
O1    C1    1.293976 A    
O6    C3    1.291764 A    
C17   C18   1.394347 A    
