data_mof_unit_39324.cif
_audit_creation_date              2012-12-10T19:11:27-0500
_audit_creation_method            fapswitch 2.2
_symmetry_space_group_name_H-M    P1
_symmetry_Int_Tables_number       1
_space_group_crystal_system       triclinic
_cell_length_a                    10.630795
_cell_length_b                    9.726048
_cell_length_c                    10.496505
_cell_angle_alpha                 89.993972
_cell_angle_beta                  89.459406
_cell_angle_gamma                 89.865675
_cell_volume                      1085.24137477

loop_
_atom_site_label
_atom_site_type_symbol
_atom_type_description
_atom_site_fract_x
_atom_site_fract_y
_atom_site_fract_z
_atom_type_partial_charge
C1    C     C_R   0.257638 0.499793 0.499479 0.821480
C2    C     C_3   0.499221 0.500295 0.122383 0.051137
C3    C     C_3   0.070462 0.571821 0.619740 -0.413517
C4    C     C_3   0.071662 0.348428 0.496704 -0.365945
C5    C     C_3   0.926254 0.568981 0.621187 -0.415568
C6    C     C_3   0.928873 0.348204 0.494688 -0.415600
C7    C     C_3   0.073260 0.574752 0.378779 -0.408527
C8    C     C_3   0.121179 0.498712 0.498667 0.180896
C9    C     C_3   0.878728 0.498339 0.498603 0.202764
C10   C     C_3   0.928761 0.576406 0.379776 -0.403384
C11   C     C_3   0.428769 0.081206 0.387787 -0.265465
C12   C     C_3   0.429980 0.919084 0.386976 -0.260559
C13   C     C_3   0.629293 0.080767 0.487894 -0.398615
C14   C     C_3   0.629347 0.918584 0.489048 -0.397937
C15   C     C_3   0.442101 0.082532 0.616675 0.510091
C16   C     C_3   0.440637 0.918510 0.615909 0.498200
C17   C     C_R   0.499519 0.500091 0.257228 0.850168
C18   C     C_R   0.742485 0.499570 0.499103 0.829684
C19   C     C_R   0.500258 0.499728 0.742762 0.839816
C20   C     C_3   0.471651 0.626905 0.040966 -0.144694
C21   C     C_3   0.412666 0.410020 0.043076 -0.182941
C22   C     C_3   0.385079 0.536417 0.959000 -0.211155
C23   C     C_3   0.499913 0.498534 0.877801 0.039821
C24   C     C_3   0.586647 0.588517 0.957324 -0.172435
C25   C     C_3   0.527437 0.371697 0.959214 -0.151277
C26   C     C_3   0.614040 0.461898 0.041449 -0.190266
H1    H     H_    0.290247 0.563362 0.923594 0.100906
H2    H     H_    0.895000 0.684865 0.380740 0.172583
H3    H     H_    0.893360 0.527462 0.291213 0.144762
H4    H     H_    0.470219 0.119306 0.296787 0.151947
H5    H     H_    0.473731 0.882570 0.296427 0.146015
H6    H     H_    0.330076 0.119260 0.390000 0.185809
H7    H     H_    0.331908 0.879656 0.386805 0.187422
H8    H     H_    0.675973 0.118261 0.399192 0.189026
H9    H     H_    0.677352 0.879537 0.401570 0.190226
H10   H     H_    0.503006 0.116212 0.697054 -0.021160
H11   H     H_    0.499208 0.882427 0.697324 -0.010548
H12   H     H_    0.686955 0.119236 0.568210 0.158117
H13   H     H_    0.685821 0.881121 0.570778 0.156842
H14   H     H_    0.448690 0.730998 0.078031 0.117797
H15   H     H_    0.341923 0.337441 0.082679 0.115533
H16   H     H_    0.657403 0.661004 0.917603 0.118002
H17   H     H_    0.550086 0.267687 0.921750 0.121349
H18   H     H_    0.706979 0.431756 0.080132 0.112312
H19   H     H_    0.101953 0.680609 0.620500 0.207824
H20   H     H_    0.108279 0.292798 0.411250 0.170259
H21   H     H_    0.107083 0.520950 0.706960 0.136108
H22   H     H_    0.103774 0.291974 0.582685 0.207535
H23   H     H_    0.892069 0.512288 0.706893 0.150939
H24   H     H_    0.892977 0.288922 0.578228 0.169526
H25   H     H_    0.889617 0.676124 0.627947 0.169915
H26   H     H_    0.896417 0.295262 0.406840 0.167879
H27   H     H_    0.108680 0.682386 0.376592 0.181239
H28   H     H_    0.108474 0.522445 0.291034 0.145939
N1    N     N_3   0.499750 0.138610 0.497240 -0.076392
N2    N     N_3   0.499750 0.861390 0.497240 -0.077178
O1    O     O_R   0.314910 0.616040 0.499970 -0.585699
O2    O     O_R   0.314910 0.383960 0.499970 -0.590598
O3    O     O_R   0.500080 0.616020 0.313900 -0.634892
O4    O     O_R   0.500080 0.383980 0.313900 -0.631932
O5    O     O_R   0.685320 0.616040 0.499930 -0.636358
O6    O     O_R   0.685320 0.383960 0.499930 -0.637398
O7    O     O_R   0.500150 0.616060 0.686000 -0.622163
O8    O     O_R   0.500150 0.383940 0.686000 -0.623757
Zn1   Zn    Zn3+2 0.500150 0.654960 0.499940 0.930590
Zn2   Zn    Zn3+2 0.500150 0.345040 0.499940 0.930017
O9    O     O_3   0.317570 0.135064 0.630085 -0.567515
C27   C     C_3   0.287197 0.172452 0.757101 -0.291240
H29   H     H_    0.344787 0.120646 0.830945 0.107430
H30   H     H_    0.187607 0.144867 0.776110 0.159992
H31   H     H_    0.294974 0.285377 0.768290 0.181767
O10   O     O_3   0.314755 0.870290 0.626146 -0.566798
C28   C     C_3   0.281875 0.832447 0.752140 -0.290853
H32   H     H_    0.337484 0.883963 0.827521 0.111975
H33   H     H_    0.291022 0.719851 0.761972 0.179047
H34   H     H_    0.181715 0.859462 0.769188 0.161679

loop_
_geom_bond_atom_site_label_1
_geom_bond_atom_site_label_2
_ccdc_geom_bond_type
C7    C10   S    
C14   N2    S    
O7    Zn1   S    
C1    C8    S    
C24   H16   S    
C28   H32   S    
C16   O10   S    
C4    C8    S    
C25   H17   S    
C6    C9    S    
C26   H18   S    
C7    C8    S    
C4    H20   S    
C24   C26   S    
C20   H14   S    
C15   C16   S    
C14   H13   S    
O2    Zn2   S    
C20   C24   S    
C11   H4    S    
C19   O7    A    
C27   H29   S    
C23   C24   S    
C9    C10   S    
C16   H11   S    
O4    Zn2   S    
C21   C22   S    
C2    C17   S    
C28   H33   S    
C5    H23   S    
O6    Zn2   S    
C2    C20   S    
O9    C27   S    
C4    C6    S    
C3    C8    S    
C14   H9    S    
C18   O6    A    
C25   C26   S    
C3    H19   S    
O8    Zn2   S    
C19   C23   S    
C16   N2    S    
C5    C9    S    
C1    O1    A    
C19   O8    A    
C15   O9    S    
C2    C21   S    
C2    C26   S    
C6    H24   S    
C13   H12   S    
C12   N2    S    
C17   O3    A    
C21   H15   S    
C20   C22   S    
C11   H6    S    
C22   H1    S    
C12   H5    S    
C28   H34   S    
C7    H27   S    
C15   H10   S    
N1    Zn2   S    
C11   N1    S    
C4    H22   S    
C10   H2    S    
C21   C25   S    
O1    Zn1   S    
O10   C28   S    
C3    C5    S    
C11   C12   S    
C18   O5    A    
C13   H8    S    
C1    O2    A    
O3    Zn1   S    
C10   H3    S    
C27   H31   S    
C3    H21   S    
C23   C25   S    
C17   O4    A    
O5    Zn1   S    
C9    C18   S    
C27   H30   S    
C22   C23   S    
C5    H25   S    
C7    H28   S    
C6    H26   S    
C12   H7    S    
C13   C14   S    
N2    Zn1   S    
C15   N1    S    
C13   N1    S    
