data_mof_unit_28358.cif
_audit_creation_date              2012-12-10T19:13:22-0500
_audit_creation_method            fapswitch 2.2
_symmetry_space_group_name_H-M    P1
_symmetry_Int_Tables_number       1
_space_group_crystal_system       triclinic
_cell_length_a                    9.693708
_cell_length_b                    10.629226
_cell_length_c                    16.609523
_cell_angle_alpha                 89.964381
_cell_angle_beta                  85.430904
_cell_angle_gamma                 89.98215
_cell_volume                      1705.94979687

loop_
_atom_site_label
_atom_site_type_symbol
_atom_type_description
_atom_site_fract_x
_atom_site_fract_y
_atom_site_fract_z
_atom_type_partial_charge
C1    C     C_R   0.500037 0.742483 0.500950 0.875595
C2    C     C_R   0.348612 0.535928 0.786161 -0.234713
C3    C     C_R   0.422581 0.542253 0.133807 -0.151279
C4    C     C_R   0.415694 0.504815 0.213966 0.574257
C5    C     C_R   0.654097 0.571695 0.221816 -0.252820
C6    C     C_R   0.660463 0.608893 0.141434 -0.185037
C7    C     C_R   0.543370 0.598210 0.098167 0.132857
C8    C     C_2   0.449487 0.684931 0.976497 0.488828
C9    C     C_2   0.553525 0.630834 0.012741 -0.298256
C10   C     C_R   0.530699 0.522074 0.259106 -0.182724
C11   C     C_3   0.451291 0.927772 0.421495 -0.518446
C12   C     C_R   0.481248 0.507033 0.653415 0.875853
C13   C     C_3   0.449417 0.072059 0.421828 -0.396997
C14   C     C_3   0.400603 0.927625 0.573681 0.416406
C15   C     C_3   0.649361 0.928619 0.511471 -0.385257
C16   C     C_3   0.500457 0.878839 0.502339 0.105051
C17   C     C_3   0.500930 0.121215 0.501877 0.099619
C18   C     C_3   0.404521 0.072754 0.574208 -0.457856
C19   C     C_3   0.649691 0.071430 0.510628 -0.389884
C20   C     C_3   0.912304 0.615416 0.540928 -0.373967
C21   C     C_3   0.074931 0.616720 0.541029 -0.306109
C22   C     C_3   0.914333 0.390062 0.545412 0.573860
C23   C     C_R   0.500190 0.257493 0.500948 0.876252
C24   C     C_3   0.929636 0.497761 0.418197 0.447262
C25   C     C_3   0.076946 0.392102 0.544938 -0.317272
C26   C     C_3   0.092121 0.498977 0.417999 -0.269031
C27   C     C_R   0.518910 0.501337 0.346125 0.926697
C28   C     C_R   0.470770 0.552040 0.736278 -0.019130
C29   C     C_R   0.578062 0.626855 0.762096 -0.080699
C30   C     C_R   0.565486 0.681382 0.837984 -0.240984
C31   C     C_R   0.446895 0.659257 0.889722 0.042834
C32   C     C_R   0.337349 0.588400 0.863134 -0.166497
H1    H     H_    0.671125 0.644753 0.723263 0.150927
H2    H     H_    0.755802 0.647793 0.113336 0.158135
H3    H     H_    0.345674 0.892017 0.412437 0.180748
H4    H     H_    0.521839 0.893585 0.369923 0.192999
H5    H     H_    0.516764 0.108182 0.369442 0.189713
H6    H     H_    0.342230 0.105747 0.414861 0.190350
H7    H     H_    0.293504 0.896999 0.561940 0.058828
H8    H     H_    0.297478 0.109276 0.570769 0.136526
H9    H     H_    0.688209 0.894319 0.568878 0.203742
H10   H     H_    0.722002 0.894152 0.460897 0.167941
H11   H     H_    0.721632 0.104797 0.459385 0.197988
H12   H     H_    0.689186 0.106774 0.567597 0.192969
H13   H     H_    0.441871 0.107966 0.631757 0.192267
H14   H     H_    0.864684 0.622835 0.603881 0.215477
H15   H     H_    0.878705 0.700576 0.508873 0.144827
H16   H     H_    0.116145 0.702929 0.509698 0.160180
H17   H     H_    0.104960 0.622767 0.604178 0.177619
H18   H     H_    0.108426 0.391379 0.607897 0.194598
H19   H     H_    0.744297 0.585478 0.255306 0.195288
H20   H     H_    0.896170 0.581259 0.384298 0.085832
H21   H     H_    0.134205 0.581582 0.382947 0.161472
H22   H     H_    0.135924 0.414054 0.386286 0.243125
H23   H     H_    0.882557 0.301542 0.516458 0.106695
H24   H     H_    0.119211 0.304195 0.516316 0.128310
H25   H     H_    0.644238 0.595218 0.977138 0.127762
H26   H     H_    0.246284 0.568822 0.903295 0.159001
H27   H     H_    0.334189 0.525569 0.099279 0.187714
H28   H     H_    0.263535 0.481130 0.766186 0.152583
H29   H     H_    0.650763 0.735927 0.857976 0.133484
N1    N     N_3   0.861190 0.500250 0.501720 -0.107483
N2    N     N_3   0.138550 0.503270 0.501080 -0.088169
O1    O     O_R   0.383960 0.685090 0.500020 -0.642985
O2    O     O_R   0.616040 0.685320 0.499960 -0.651416
O3    O     O_R   0.370240 0.499890 0.615830 -0.629883
O4    O     O_R   0.602330 0.500120 0.615770 -0.561601
O5    O     O_R   0.383960 0.314680 0.500040 -0.633230
O6    O     O_R   0.616040 0.314910 0.499980 -0.594813
O7    O     O_R   0.397670 0.499880 0.384230 -0.575545
O8    O     O_R   0.629760 0.500110 0.384170 -0.587272
Zn1   Zn    Zn3+2 0.345040 0.499850 0.500040 0.926751
Zn2   Zn    Zn3+2 0.654960 0.500150 0.499960 0.996236
F1    F     F_    0.296907 0.451846 0.246933 -0.678756
O9    O     O_3   0.441559 0.879553 0.647962 -0.613158
C33   C     C_3   0.325470 0.866005 0.704204 -0.342085
H30   H     H_    0.259736 0.786332 0.686817 0.168315
H31   H     H_    0.263473 0.954114 0.710453 0.153328
H32   H     H_    0.362042 0.844461 0.764220 0.212459
F2    F     F_    0.856132 0.387320 0.624342 -0.681380
F3    F     F_    0.888098 0.392184 0.377503 -0.668235
O10   O     O_3   0.335096 0.732676 0.022605 -0.605613
C34   C     C_3   0.280778 0.837784 0.983909 -0.304871
H33   H     H_    0.222510 0.808318 0.932156 0.155375
H34   H     H_    0.363080 0.906684 0.963862 0.158973
H35   H     H_    0.206775 0.886576 0.027721 0.199549

loop_
_geom_bond_atom_site_label_1
_geom_bond_atom_site_label_2
_ccdc_geom_bond_type
C10   C27   S    
C24   H20   S    
C26   H21   S    
C14   C18   S    
C33   H32   S    
C32   H26   S    
C26   N2    S    
C21   H17   S    
C15   C19   S    
C17   C23   S    
C12   C28   S    
C8    O10   S    
C11   H4    S    
C24   C26   S    
C3    C7    A    
C5    C6    A    
C2    H28   S    
C15   C16   S    
C29   H1    S    
O2    Zn2   S    
C2    C32   A    
C25   N2    S    
C18   H8    S    
C25   H18   S    
C14   H7    S    
O3    Zn1   S    
C31   C32   A    
C8    C9    D    
C22   C25   S    
C1    O2    A    
C25   H24   S    
N1    Zn2   S    
O6    Zn2   S    
O4    Zn2   S    
C13   H5    S    
C21   H16   S    
C26   H22   S    
C19   H11   S    
C12   O4    A    
C33   H30   S    
C15   H9    S    
O8    Zn2   S    
C12   O3    A    
C23   O6    A    
C6    H2    S    
C23   O5    A    
O9    C33   S    
C29   C30   A    
C22   N1    S    
C11   C16   S    
C34   H33   S    
C24   F3    S    
O5    Zn1   S    
C17   C18   S    
C1    C16   S    
C20   C21   S    
C13   H6    S    
C6    C7    A    
C27   O7    A    
C34   H34   S    
C14   C16   S    
C4    C10   A    
C3    C4    A    
C18   H13   S    
C27   O8    A    
C19   H12   S    
C7    C9    S    
C28   C29   A    
C24   N1    S    
C8    C31   S    
C4    F1    S    
C15   H10   S    
C33   H31   S    
C2    C28   A    
C22   H23   S    
C13   C17   S    
C14   O9    S    
C11   H3    S    
C22   F2    S    
C5    C10   A    
C11   C13   S    
C30   C31   A    
C17   C19   S    
C9    H25   S    
O1    Zn1   S    
C20   N1    S    
C21   N2    S    
C20   H15   S    
C34   H35   S    
N2    Zn1   S    
O10   C34   S    
C30   H29   S    
C5    H19   S    
O7    Zn1   S    
C1    O1    A    
C20   H14   S    
C3    H27   S    
