data_mof_unit_62953.cif
_audit_creation_date              2012-12-10T17:59:32-0500
_audit_creation_method            fapswitch 2.2
_symmetry_space_group_name_H-M    P1
_symmetry_Int_Tables_number       1
_space_group_crystal_system       triclinic
_cell_length_a                    18.328271
_cell_length_b                    18.328271
_cell_length_c                    34.476609
_cell_angle_alpha                 89.99999
_cell_angle_beta                  89.999988
_cell_angle_gamma                 90.0
_cell_volume                      11581.572732

loop_
_atom_site_label
_atom_site_type_symbol
_atom_type_description
_atom_site_fract_x
_atom_site_fract_y
_atom_site_fract_z
_atom_type_partial_charge
C1    C     C_R   0.939747 0.528172 0.418742 0.504275
C2    C     C_R   0.439748 0.971824 0.081258 0.504275
C3    C     C_R   0.471707 0.939441 0.540740 -0.014630
C4    C     C_R   0.939438 0.528288 0.459260 -0.014630
C5    C     C_R   0.060562 0.471712 0.540740 -0.014630
C6    C     C_R   0.471707 0.939441 0.459260 -0.014629
C7    C     C_R   0.528293 0.060559 0.540740 -0.014629
C8    C     C_R   0.439440 0.971709 0.959260 -0.014630
C9    C     C_R   0.560560 0.028291 0.040740 -0.014629
C10   C     C_R   0.028286 0.439437 0.959260 -0.014631
C11   C     C_R   0.971714 0.560562 0.040740 -0.014631
C12   C     C_R   0.560560 0.028291 0.959260 -0.014629
C13   C     C_R   0.971830 0.560254 0.918742 0.504276
C14   C     C_R   0.439440 0.971709 0.040740 -0.014629
C15   C     C_R   0.971714 0.560562 0.959260 -0.014631
C16   C     C_R   0.028286 0.439437 0.040740 -0.014631
C17   C     C_R   0.196261 0.696261 0.250000 0.002511
C18   C     C_R   0.803739 0.303739 0.750000 0.002511
C19   C     C_R   0.303739 0.196261 0.250000 0.002512
C20   C     C_R   0.696261 0.803739 0.750000 0.002512
C21   C     C_R   0.803739 0.303739 0.250000 0.002511
C22   C     C_R   0.196261 0.696261 0.750000 0.002511
C23   C     C_R   0.696261 0.803739 0.250000 0.002511
C24   C     C_R   0.028170 0.439746 0.081258 0.504276
C25   C     C_R   0.303739 0.196261 0.750000 0.002511
C26   C     C_R   0.196259 0.303741 0.750000 -0.001188
C27   C     C_R   0.803741 0.696259 0.250000 -0.001188
C28   C     C_R   0.303741 0.803741 0.750000 -0.001188
C29   C     C_R   0.696259 0.196259 0.250000 -0.001188
C30   C     C_R   0.803741 0.696259 0.750000 -0.001188
C31   C     C_R   0.196259 0.303741 0.250000 -0.001188
C32   C     C_R   0.696259 0.196259 0.750000 -0.001188
C33   C     C_R   0.303741 0.803741 0.250000 -0.001188
C34   C     C_R   1.000000 0.500000 0.479608 -0.029039
C35   C     C_R   0.439748 0.971824 0.918742 0.504275
C36   C     C_R   1.000000 0.500000 0.520392 -0.029039
C37   C     C_R   0.500000 1.000000 0.479608 -0.029039
C38   C     C_R   0.500000 1.000000 0.520392 -0.029039
C39   C     C_R   0.500000 0.000000 0.979608 -0.029040
C40   C     C_R   0.500000 1.000000 0.020392 -0.029040
C41   C     C_R   1.000000 0.500000 0.979608 -0.029038
C42   C     C_R   0.000000 0.500000 0.020392 -0.029038
C43   C     C_R   0.560252 0.028175 0.081258 0.504274
C44   C     C_R   0.028170 0.439746 0.918742 0.504276
C45   C     C_R   0.971830 0.560254 0.081258 0.504275
C46   C     C_R   1.000000 0.500000 0.398418 -0.319199
C47   C     C_R   1.000000 0.500000 0.601582 -0.319199
C48   C     C_R   0.500000 1.000000 0.398418 -0.319197
C49   C     C_R   0.060253 0.471828 0.581258 0.504275
C50   C     C_R   0.500000 1.000000 0.601582 -0.319197
C51   C     C_R   0.500000 1.000000 0.898418 -0.319199
C52   C     C_R   0.500000 1.000000 0.101582 -0.319199
C53   C     C_R   1.000000 0.500000 0.898418 -0.319199
C54   C     C_R   1.000000 0.500000 0.101582 -0.319199
C55   C     C_R   0.120332 0.443629 0.479812 -0.139710
C56   C     C_R   0.879668 0.556371 0.520188 -0.139710
C57   C     C_R   0.556380 0.120328 0.479812 -0.139710
C58   C     C_R   0.443620 0.879672 0.520188 -0.139710
C59   C     C_R   0.879668 0.556370 0.479812 -0.139710
C60   C     C_R   0.471823 0.939749 0.418742 0.504274
C61   C     C_R   0.120332 0.443629 0.520188 -0.139710
C62   C     C_R   0.443620 0.879672 0.479812 -0.139710
C63   C     C_R   0.556380 0.120328 0.520188 -0.139710
C64   C     C_R   0.379670 0.943623 0.979812 -0.139710
C65   C     C_R   0.620329 0.056377 0.020188 -0.139710
C66   C     C_R   0.056366 0.379666 0.979812 -0.139711
C67   C     C_R   0.943634 0.620334 0.020188 -0.139711
C68   C     C_R   0.620329 0.056377 0.979812 -0.139710
C69   C     C_R   0.379670 0.943623 0.020188 -0.139710
C70   C     C_R   0.943634 0.620334 0.979812 -0.139711
C71   C     C_R   0.528177 0.060251 0.581258 0.504274
C72   C     C_R   0.056366 0.379666 0.020188 -0.139711
C73   C     C_R   0.500000 0.000000 0.355957 0.927041
C74   C     C_R   0.500000 1.000000 0.644043 0.927041
C75   C     C_R   1.000000 0.500000 0.355957 0.927035
C76   C     C_R   0.000000 0.500000 0.644043 0.927035
C77   C     C_R   1.000000 0.500000 0.855957 0.927032
C78   C     C_R   0.000000 0.500000 0.144043 0.927032
C79   C     C_R   0.500000 1.000000 0.855957 0.927039
C80   C     C_R   0.500000 1.000000 0.144043 0.927039
C81   C     C_R   0.359881 0.140119 0.250000 0.783094
C82   C     C_R   0.060253 0.471828 0.418742 0.504275
C83   C     C_R   0.640119 0.859881 0.750000 0.783094
C84   C     C_R   0.859881 0.359881 0.250000 0.783094
C85   C     C_R   0.140119 0.640119 0.750000 0.783094
C86   C     C_R   0.640119 0.859881 0.250000 0.783095
C87   C     C_R   0.359881 0.140119 0.750000 0.783095
C88   C     C_R   0.140119 0.640119 0.250000 0.783094
C89   C     C_R   0.859881 0.359881 0.750000 0.783094
C90   C     C_R   0.359882 0.859881 0.750000 0.792658
C91   C     C_R   0.640118 0.140118 0.250000 0.792658
C92   C     C_R   0.859881 0.640118 0.750000 0.792656
C93   C     C_R   0.939747 0.528172 0.581258 0.504275
C94   C     C_R   0.140118 0.359882 0.250000 0.792656
C95   C     C_R   0.640118 0.140118 0.750000 0.792658
C96   C     C_R   0.359882 0.859881 0.250000 0.792658
C97   C     C_R   0.140118 0.359882 0.750000 0.792656
C98   C     C_R   0.859881 0.640118 0.250000 0.792656
C99   C     C_R   0.243914 0.809559 0.224865 -0.169079
C100  C     C_R   0.756086 0.190441 0.775135 -0.169079
C101  C     C_R   0.190441 0.243914 0.224865 -0.169080
C102  C     C_R   0.809559 0.756086 0.775135 -0.169080
C103  C     C_R   0.756086 0.190441 0.224865 -0.169079
C104  C     C_R   0.528177 0.060251 0.418742 0.504274
C105  C     C_R   0.243914 0.809559 0.775135 -0.169079
C106  C     C_R   0.809559 0.756086 0.224865 -0.169080
C107  C     C_R   0.190441 0.243914 0.775135 -0.169080
C108  C     C_R   0.243909 0.190443 0.775133 -0.177964
C109  C     C_R   0.756091 0.809557 0.224867 -0.177964
C110  C     C_R   0.190443 0.756091 0.775133 -0.177963
C111  C     C_R   0.809557 0.243909 0.224867 -0.177963
C112  C     C_R   0.756091 0.809557 0.775133 -0.177964
C113  C     C_R   0.243909 0.190443 0.224867 -0.177964
C114  C     C_R   0.809557 0.243909 0.775133 -0.177964
C115  C     C_R   0.471823 0.939749 0.581258 0.504274
C116  C     C_R   0.190443 0.756091 0.224867 -0.177964
C117  C     C_R   0.743909 0.309557 0.724867 -0.177963
C118  C     C_R   0.256091 0.690443 0.275133 -0.177963
C119  C     C_R   0.690443 0.743909 0.724867 -0.177965
C120  C     C_R   0.309557 0.256091 0.275133 -0.177965
C121  C     C_R   0.256091 0.690443 0.724867 -0.177964
C122  C     C_R   0.743909 0.309557 0.275133 -0.177964
C123  C     C_R   0.309557 0.256091 0.724867 -0.177964
C124  C     C_R   0.690443 0.743909 0.275133 -0.177965
C125  C     C_R   0.743914 0.690441 0.275135 -0.169079
C126  C     C_R   0.560252 0.028175 0.918742 0.504275
C127  C     C_R   0.256086 0.309559 0.724865 -0.169079
C128  C     C_R   0.690441 0.256086 0.275135 -0.169079
C129  C     C_R   0.309559 0.743914 0.724865 -0.169079
C130  C     C_R   0.256086 0.309559 0.275135 -0.169079
C131  C     C_R   0.743914 0.690441 0.724865 -0.169079
C132  C     C_R   0.309559 0.743914 0.275135 -0.169079
C133  C     C_R   0.690441 0.256086 0.724865 -0.169079
C134  C     C_R   0.060562 0.471712 0.459260 -0.014630
C135  C     C_R   0.939438 0.528288 0.540740 -0.014631
C136  C     C_R   0.528293 0.060559 0.459259 -0.014630
F1    F     F_    0.882062 0.556888 0.399154 -0.644616
F2    F     F_    0.382065 0.943105 0.100846 -0.644617
F3    F     F_    0.943116 0.617940 0.899154 -0.644616
F4    F     F_    0.056884 0.382060 0.100846 -0.644616
F5    F     F_    0.382065 0.943105 0.899154 -0.644617
F6    F     F_    0.617935 0.056895 0.100846 -0.644617
F7    F     F_    0.056884 0.382060 0.899154 -0.644615
F8    F     F_    0.943116 0.617940 0.100846 -0.644615
F9    F     F_    0.117938 0.443112 0.600846 -0.644616
F10   F     F_    0.443102 0.882066 0.399154 -0.644618
F11   F     F_    0.556898 0.117933 0.600846 -0.644618
F12   F     F_    0.117938 0.443112 0.399154 -0.644616
F13   F     F_    0.882062 0.556888 0.600846 -0.644616
F14   F     F_    0.556898 0.117933 0.399154 -0.644618
F15   F     F_    0.443102 0.882066 0.600846 -0.644618
F16   F     F_    0.617935 0.056895 0.899154 -0.644617
H1    H     H_    0.167316 0.421625 0.464759 0.203072
H2    H     H_    0.667312 0.078384 0.035241 0.203072
H3    H     H_    0.078369 0.332682 0.964759 0.203072
H4    H     H_    0.921631 0.667318 0.035241 0.203072
H5    H     H_    0.667312 0.078384 0.964759 0.203072
H6    H     H_    0.332688 0.921616 0.035241 0.203072
H7    H     H_    0.921631 0.667318 0.964759 0.203073
H8    H     H_    0.078369 0.332682 0.035241 0.203073
H9    H     H_    0.238344 0.855314 0.205203 0.178706
H10   H     H_    0.761656 0.144686 0.794797 0.178706
H11   H     H_    0.144686 0.238344 0.205204 0.178706
H12   H     H_    0.832684 0.578375 0.535241 0.203072
H13   H     H_    0.855314 0.761656 0.794796 0.178706
H14   H     H_    0.761656 0.144686 0.205203 0.178706
H15   H     H_    0.238344 0.855314 0.794797 0.178706
H16   H     H_    0.855314 0.761656 0.205204 0.178706
H17   H     H_    0.144686 0.238344 0.794796 0.178706
H18   H     H_    0.238335 0.144685 0.794792 0.173849
H19   H     H_    0.761665 0.855315 0.205208 0.173849
H20   H     H_    0.144685 0.761665 0.794793 0.173850
H21   H     H_    0.855315 0.238335 0.205207 0.173850
H22   H     H_    0.761665 0.855315 0.794792 0.173849
H23   H     H_    0.578388 0.167310 0.464759 0.203072
H24   H     H_    0.238335 0.144685 0.205208 0.173849
H25   H     H_    0.855315 0.238335 0.794793 0.173850
H26   H     H_    0.144685 0.761665 0.205207 0.173850
H27   H     H_    0.738335 0.355315 0.705207 0.173849
H28   H     H_    0.261665 0.644685 0.294793 0.173849
H29   H     H_    0.644685 0.738335 0.705208 0.173849
H30   H     H_    0.355315 0.261665 0.294792 0.173849
H31   H     H_    0.261665 0.644685 0.705207 0.173850
H32   H     H_    0.738335 0.355315 0.294793 0.173850
H33   H     H_    0.355315 0.261665 0.705208 0.173849
H34   H     H_    0.421611 0.832690 0.535241 0.203072
H35   H     H_    0.644685 0.738335 0.294792 0.173849
H36   H     H_    0.738344 0.644686 0.294796 0.178706
H37   H     H_    0.261656 0.355314 0.705204 0.178706
H38   H     H_    0.644686 0.261656 0.294797 0.178706
H39   H     H_    0.355314 0.738344 0.705203 0.178706
H40   H     H_    0.261656 0.355314 0.294796 0.178706
H41   H     H_    0.738344 0.644686 0.705204 0.178706
H42   H     H_    0.355314 0.738344 0.294797 0.178706
H43   H     H_    0.644686 0.261656 0.705203 0.178706
H44   H     H_    0.832684 0.578375 0.464759 0.203072
H45   H     H_    0.167316 0.421625 0.535241 0.203072
H46   H     H_    0.421611 0.832690 0.464759 0.203072
H47   H     H_    0.578388 0.167310 0.535241 0.203072
H48   H     H_    0.332688 0.921616 0.964759 0.203072
O1    O     O_3   0.500000 1.000000 0.250000 -0.517133
O2    O     O_R   0.500000 0.939270 0.662450 -0.590053
O3    O     O_R   0.939270 0.500000 0.337550 -0.590050
O4    O     O_R   0.060730 0.500000 0.662450 -0.590050
O5    O     O_R   0.000000 0.439270 0.837550 -0.590048
O6    O     O_R   0.000000 0.560730 0.162450 -0.590049
O7    O     O_R   0.560730 1.000000 0.837550 -0.590052
O8    O     O_R   0.439270 1.000000 0.162450 -0.590052
O9    O     O_R   0.000000 0.560730 0.837550 -0.590049
O10   O     O_R   1.000000 0.439270 0.162450 -0.590049
O11   O     O_R   0.439270 1.000000 0.837550 -0.590052
O12   O     O_3   0.500000 1.000000 0.750000 -0.517133
O13   O     O_R   0.560730 1.000000 0.162450 -0.590053
O14   O     O_R   0.414490 0.146150 0.273020 -0.646601
O15   O     O_R   0.585510 0.853850 0.726980 -0.646601
O16   O     O_R   0.853850 0.414490 0.273020 -0.646600
O17   O     O_R   0.146150 0.585510 0.726980 -0.646600
O18   O     O_R   0.585510 0.853850 0.273020 -0.646601
O19   O     O_R   0.414490 0.146150 0.726980 -0.646601
O20   O     O_R   0.146150 0.585510 0.273020 -0.646600
O21   O     O_R   0.853850 0.414490 0.726980 -0.646600
O22   O     O_R   0.414490 0.853850 0.726980 -0.636852
O23   O     O_3   0.000000 0.500000 0.250000 -0.517133
O24   O     O_R   0.585510 0.146150 0.273020 -0.636851
O25   O     O_R   0.853850 0.585510 0.726980 -0.636852
O26   O     O_R   0.146150 0.414490 0.273020 -0.636852
O27   O     O_R   0.585510 0.146150 0.726980 -0.636852
O28   O     O_R   0.414490 0.853850 0.273020 -0.636852
O29   O     O_R   0.146150 0.414490 0.726980 -0.636852
O30   O     O_R   0.853850 0.585510 0.273020 -0.636852
O31   O     O_R   0.914490 0.646150 0.773020 -0.636852
O32   O     O_R   0.085510 0.353850 0.226980 -0.636852
O33   O     O_R   0.353850 0.914490 0.773020 -0.636852
O34   O     O_3   1.000000 0.500000 0.750000 -0.517133
O35   O     O_R   0.646150 0.085510 0.226980 -0.636852
O36   O     O_R   0.085510 0.353850 0.773020 -0.636852
O37   O     O_R   0.914490 0.646150 0.226980 -0.636852
O38   O     O_R   0.646150 0.085510 0.773020 -0.636852
O39   O     O_R   0.353850 0.914490 0.226980 -0.636852
O40   O     O_R   0.914490 0.353850 0.226980 -0.646599
O41   O     O_R   0.085510 0.646150 0.773020 -0.646599
O42   O     O_R   0.353850 0.085510 0.226980 -0.646601
O43   O     O_R   0.646150 0.914490 0.773020 -0.646601
O44   O     O_R   0.085510 0.646150 0.226980 -0.646600
O45   O     O_R   0.500000 0.939270 0.337550 -0.590053
O46   O     O_R   0.914490 0.353850 0.773020 -0.646600
O47   O     O_R   0.646150 0.914490 0.226980 -0.646601
O48   O     O_R   0.353850 0.085510 0.773020 -0.646601
O49   O     O_R   0.500000 0.060730 0.662450 -0.590054
O50   O     O_R   0.060730 0.500000 0.337550 -0.590050
O51   O     O_R   0.939270 0.500000 0.662450 -0.590050
O52   O     O_R   0.500000 0.060730 0.337550 -0.590053
Zn1   Zn    Zn3+2 0.413190 1.000000 0.217350 1.010948
Zn2   Zn    Zn3+2 0.086810 0.500000 0.282650 1.010948
Zn3   Zn    Zn3+2 0.500000 0.913190 0.717350 1.010948
Zn4   Zn    Zn3+2 0.500000 0.086810 0.282650 1.010948
Zn5   Zn    Zn3+2 0.086810 0.500000 0.717350 1.010948
Zn6   Zn    Zn3+2 0.913190 0.500000 0.282650 1.010948
Zn7   Zn    Zn3+2 0.500000 0.086810 0.717350 1.010948
Zn8   Zn    Zn3+2 0.500000 0.913190 0.282650 1.010948
Zn9   Zn    Zn3+2 0.586810 1.000000 0.782650 1.010948
Zn10  Zn    Zn3+2 1.000000 0.413190 0.217350 1.010948
Zn11  Zn    Zn3+2 1.000000 0.586810 0.782650 1.010948
Zn12  Zn    Zn3+2 0.586810 1.000000 0.217350 1.010948
Zn13  Zn    Zn3+2 0.413190 1.000000 0.782650 1.010948
Zn14  Zn    Zn3+2 1.000000 0.586810 0.217350 1.010948
Zn15  Zn    Zn3+2 1.000000 0.413190 0.782650 1.010948
Zn16  Zn    Zn3+2 0.913190 0.500000 0.717350 1.010948

loop_
_geom_bond_atom_site_label_1
_geom_bond_atom_site_label_2
_ccdc_geom_bond_type
C58   C62   A    
O34   Zn5   S    
C112  H22   S    
C105  C110  A    
C36   C135  A    
C27   C98   S    
O50   Zn2   S    
C86   O47   A    
C116  H26   S    
C58   H34   S    
C17   C88   S    
C101  C113  A    
C41   C42   A    
C71   F11   S    
C16   C72   A    
O1    Zn12  S    
O16   Zn6   S    
C117  C133  A    
C18   C114  A    
C94   O32   A    
C87   O48   A    
C47   C49   A    
C98   O37   A    
C84   O40   A    
O22   Zn3   S    
C24   F4    S    
C79   O11   A    
C12   C68   A    
C117  H27   S    
O35   Zn12  S    
O32   Zn10  S    
C125  H36   S    
C120  C130  A    
C31   C101  A    
C13   F3    S    
C82   F12   S    
C14   C40   A    
C47   C76   S    
C90   O22   A    
C31   C130  A    
C108  H18   S    
C124  H35   S    
C50   C74   S    
C51   C79   S    
C7    C71   A    
C32   C133  A    
C70   H7    S    
C79   O7    A    
C43   C52   A    
C73   O45   A    
C34   C134  A    
C24   C54   A    
C30   C131  A    
C48   C104  A    
C5    C36   A    
C83   O43   A    
C118  H28   S    
O11   Zn13  S    
O17   Zn5   S    
C89   O46   A    
C29   C103  A    
C11   C42   A    
C103  C111  A    
C50   C115  A    
C86   O18   A    
C22   C85   S    
C104  F14   S    
C21   C122  A    
O45   Zn8   S    
C85   O17   A    
C46   C82   A    
O23   Zn14  S    
C123  H33   S    
C20   C112  A    
C102  C112  A    
C44   C53   A    
C7    C38   A    
C97   O29   A    
O28   Zn8   S    
O5    Zn15  S    
C3    C38   A    
C11   C67   A    
C68   H5    S    
C22   C110  A    
C23   C86   S    
O20   Zn2   S    
O39   Zn1   S    
O36   Zn15  S    
C119  C131  A    
C107  C108  A    
C57   C136  A    
C48   C60   A    
C8    C39   A    
C87   O19   A    
C75   O50   A    
C45   C54   A    
C78   O10   A    
O25   Zn16  S    
C128  H38   S    
O47   Zn12  S    
O3    Zn6   S    
C77   O9    A    
C121  H31   S    
C73   O52   A    
C65   C68   A    
C122  H32   S    
C2    C14   A    
C16   C24   A    
C98   O30   A    
C99   H9    S    
C10   C41   A    
C132  H42   S    
C18   C89   S    
C5    C49   A    
C20   C83   S    
C131  H41   S    
C60   F10   S    
O49   Zn7   S    
O7    Zn9   S    
O15   Zn3   S    
C46   C75   S    
C21   C111  A    
C130  H40   S    
C57   C63   A    
C13   C53   A    
C10   C66   A    
C23   C109  A    
C66   C72   A    
O12   Zn9   S    
C9    C43   A    
O13   Zn12  S    
O14   Zn4   S    
C57   H23   S    
C2    F2    S    
C6    C60   A    
C101  H11   S    
C100  C114  A    
C62   H46   S    
C30   C92   S    
C61   H45   S    
C99   C116  A    
C126  F16   S    
C75   O3    A    
O48   Zn13  S    
C74   O2    A    
C92   O31   A    
C97   O36   A    
C10   C44   A    
C9    C40   A    
C32   C100  A    
C90   O33   A    
C15   C41   A    
O37   Zn14  S    
C33   C99   A    
C95   O38   A    
C106  H16   S    
C81   O42   A    
C82   C134  A    
C53   C77   S    
C50   C71   A    
C78   O6    A    
C88   O44   A    
C37   C38   A    
C77   O5    A    
C45   F8    S    
O44   Zn14  S    
O4    Zn5   S    
O34   Zn16  S    
C81   O14   A    
C21   C84   S    
C28   C105  A    
C133  H43   S    
C114  H25   S    
C30   C102  A    
C9    C65   A    
C85   O41   A    
C69   H6    S    
C47   C93   A    
C6    C37   A    
C49   F9    S    
O6    Zn14  S    
C127  H37   S    
C64   C69   A    
C105  H15   S    
C25   C123  A    
C18   C117  A    
C7    C63   A    
C80   O13   A    
C2    C52   A    
C17   C118  A    
C35   F5    S    
C113  H24   S    
C93   F13   S    
C33   C132  A    
O34   Zn11  S    
C80   O8    A    
C8    C64   A    
C19   C120  A    
C102  H13   S    
C13   C15   A    
C31   C94   S    
C35   C51   A    
C14   C69   A    
C11   C45   A    
O19   Zn7   S    
O8    Zn1   S    
C129  H39   S    
O46   Zn15  S    
O1    Zn4   S    
C33   C96   S    
C96   O28   A    
C123  C127  A    
C29   C91   S    
C74   O49   A    
C1    F1    S    
C26   C127  A    
O24   Zn4   S    
C22   C121  A    
C19   C113  A    
C107  H17   S    
C91   O35   A    
C28   C129  A    
C15   C70   A    
O31   Zn11  S    
C37   C136  A    
C104  C136  A    
C111  H21   S    
C51   C126  A    
C52   C80   S    
C48   C73   S    
C121  C129  A    
C25   C87   S    
C93   C135  A    
C26   C107  A    
O12   Zn13  S    
O23   Zn6   S    
C83   O15   A    
C76   O4    A    
O2    Zn3   S    
C119  H29   S    
C23   C124  A    
C84   O16   A    
O9    Zn11  S    
O27   Zn7   S    
C59   H44   S    
C55   C134  A    
C56   H12   S    
O12   Zn7   S    
C72   H8    S    
C56   C59   A    
O52   Zn4   S    
C1    C4    A    
O18   Zn8   S    
C67   C70   A    
O12   Zn3   S    
C64   H48   S    
O1    Zn8   S    
O21   Zn16  S    
C3    C115  A    
C89   O21   A    
C5    C61   A    
C27   C125  A    
O23   Zn2   S    
C6    C62   A    
O34   Zn15  S    
C66   H3    S    
C43   F6    S    
C12   C39   A    
C44   F7    S    
O1    Zn1   S    
C55   C61   A    
C4    C59   A    
C96   O39   A    
O40   Zn10  S    
C63   H47   S    
C27   C106  A    
C34   C36   A    
C16   C42   A    
C20   C119  A    
C4    C34   A    
C122  C128  A    
C1    C46   A    
C95   O27   A    
C56   C135  A    
C118  C132  A    
C92   O25   A    
C94   O26   A    
C26   C97   S    
O33   Zn13  S    
C39   C40   A    
C3    C58   A    
C88   O20   A    
O26   Zn2   S    
C32   C95   S    
C12   C126  A    
C25   C108  A    
C103  H14   S    
O41   Zn11  S    
C29   C128  A    
C115  F15   S    
O10   Zn10  S    
O42   Zn1   S    
O30   Zn6   S    
C67   H4    S    
O38   Zn9   S    
C28   C90   S    
O43   Zn9   S    
C65   H2    S    
C100  H10   S    
C91   O24   A    
C19   C81   S    
C76   O51   A    
C120  H30   S    
O51   Zn16  S    
C8    C35   A    
O23   Zn10  S    
C55   H1    S    
C109  H19   S    
C17   C116  A    
O29   Zn5   S    
C124  C125  A    
C54   C78   S    
C106  C109  A    
C110  H20   S    
