data_mof_unit_28498.cif
_audit_creation_date              2012-10-26T20:20:47-0400
_audit_creation_method            fapswitch 2.2
_symmetry_space_group_name_H-M    P1
_symmetry_Int_Tables_number       1
_space_group_crystal_system       triclinic
_cell_length_a                    8.735337
_cell_length_b                    10.834388
_cell_length_c                    9.523989
_cell_angle_alpha                 90.01053
_cell_angle_beta                  97.93563
_cell_angle_gamma                 90.151651
_cell_volume                      892.734696048

loop_
_atom_site_label
_atom_site_type_symbol
_atom_type_description
_atom_site_fract_x
_atom_site_fract_y
_atom_site_fract_z
_atom_type_partial_charge
C1    C     C_R   0.499887 0.262084 0.499942 0.550924
C2    C     C_R   0.499216 0.063884 0.627479 -0.139532
C3    C     C_R   0.500129 0.871776 0.500044 0.020281
C4    C     C_R   0.499871 0.128223 0.499956 0.020281
C5    C     C_R   0.400384 0.426145 0.061732 0.010890
C6    C     C_R   0.599616 0.573855 0.938268 0.010890
C7    C     C_R   0.400412 0.426184 0.912946 0.009555
C8    C     C_R   0.599588 0.573816 0.087054 0.009555
C9    C     C_R   0.500112 0.737916 0.500058 0.550924
C10   C     C_R   0.203746 0.499964 0.463724 0.552022
C11   C     C_R   0.796254 0.500036 0.536276 0.552022
C12   C     C_2   0.037918 0.500044 0.443748 -0.154641
C13   C     C_2   0.962082 0.499956 0.556252 -0.154642
C14   C     C_R   0.500617 0.063815 0.372473 -0.139478
C15   C     C_R   0.499383 0.936184 0.627527 -0.139478
C16   C     C_R   0.500784 0.936116 0.372521 -0.139531
Cu1   Cu    Cu3+1 0.500000 0.500020 0.640660 0.937438
Cu2   Cu    Cu3+1 0.500000 0.499980 0.359340 0.937438
H1    H     H_    0.977989 0.500218 0.335808 0.125580
H2    H     H_    0.679256 0.633090 0.153219 0.107259
H3    H     H_    0.022010 0.499782 0.664192 0.125580
H4    H     H_    0.501111 0.111805 0.272762 0.128104
H5    H     H_    0.498889 0.888195 0.727238 0.128104
H6    H     H_    0.501437 0.888072 0.272847 0.128008
H7    H     H_    0.498563 0.111928 0.727153 0.128008
H8    H     H_    0.320732 0.366828 0.107647 0.108609
H9    H     H_    0.679268 0.633172 0.892353 0.108610
H10   H     H_    0.320744 0.366910 0.846781 0.107259
N1    N     N_R   0.500040 0.500030 0.852080 -0.225611
N2    N     N_R   0.499960 0.499970 0.147920 -0.225611
O1    O     O_R   0.499990 0.319660 0.618740 -0.508448
O2    O     O_R   0.500010 0.680340 0.381260 -0.508448
O3    O     O_R   0.499990 0.319630 0.381170 -0.508478
O4    O     O_R   0.500010 0.680370 0.618830 -0.508478
O5    O     O_R   0.274840 0.500010 0.591370 -0.501742
O6    O     O_R   0.725160 0.499990 0.408630 -0.501742
O7    O     O_R   0.274830 0.499980 0.353800 -0.500739
O8    O     O_R   0.725170 0.500020 0.646200 -0.500739

loop_
_geom_bond_atom_site_label_1
_geom_bond_atom_site_label_2
_ccdc_geom_bond_type
C11   O8    A    
C2    C4    A    
C10   O5    A    
C3    C9    S    
Cu1   N1    S    
C6    H9    S    
C1    C4    S    
C8    N2    A    
C14   H4    S    
C15   H5    S    
Cu1   Cu2   S    
C13   H3    S    
C16   H6    S    
C2    C15   A    
C11   C13   S    
C8    H2    S    
C10   C12   S    
C10   O7    A    
Cu2   N2    S    
C12   H1    S    
C11   O6    A    
Cu2   O7    S    
C2    H7    S    
Cu1   O8    S    
C4    C14   A    
C9    O4    A    
Cu1   O1    S    
Cu2   O3    S    
C14   C16   A    
Cu2   O2    S    
Cu1   O4    S    
C7    H10   S    
C1    O3    A    
C7    N1    A    
C1    O1    A    
C6    N1    A    
C3    C15   A    
C12   C13   D    
C5    N2    A    
C5    C7    A    
C6    C8    A    
Cu1   O5    S    
C9    O2    A    
Cu2   O6    S    
C3    C16   A    
C5    H8    S    
