data_mof_unit_6720.cif
_audit_creation_date              2013-03-05T16:18:54-0500
_audit_creation_method            fapswitch 2.2
_symmetry_space_group_name_H-M    P1
_symmetry_Int_Tables_number       1
_space_group_crystal_system       triclinic
_cell_length_a                    9.944927
_cell_length_b                    10.832202
_cell_length_c                    16.736547
_cell_angle_alpha                 90.77295
_cell_angle_beta                  85.369805
_cell_angle_gamma                 88.051161
_cell_volume                      1795.79022627

loop_
_atom_site_label
_atom_site_type_symbol
_atom_site_description
_atom_site_fract_x
_atom_site_fract_y
_atom_site_fract_z
_atom_type_partial_charge
O1    O     O_R   0.383960 0.685090 0.500020 -0.649188
O2    O     O_R   0.616040 0.685320 0.499960 -0.525494
C1    C     C_R   0.496526 0.741329 0.502464 0.969515
O3    O     O_R   0.370240 0.499890 0.615830 -0.639108
O4    O     O_R   0.602330 0.500120 0.615770 -0.551598
C2    C     C_R   0.480838 0.502741 0.653145 0.938416
Zn1   Zn    Zn3+2 0.345040 0.499850 0.500040 1.024803
Zn2   Zn    Zn3+2 0.654960 0.500150 0.499960 1.096894
O5    O     O_R   0.383960 0.314680 0.500040 -0.579138
O6    O     O_R   0.616040 0.314910 0.499980 -0.571731
O7    O     O_R   0.397670 0.499880 0.384230 -0.553329
O8    O     O_R   0.629760 0.500110 0.384170 -0.605383
C3    C     C_R   0.500547 0.257580 0.500777 0.957527
C4    C     C_R   0.517861 0.507353 0.348002 0.929277
C5    C     C_R   0.464460 0.509845 0.740989 -0.158235
C6    C     C_R   0.565268 0.555040 0.787837 0.348944
C7    C     C_R   0.540767 0.558823 0.870765 -0.152394
C8    C     C_R   0.415228 0.528609 0.907611 0.051466
C9    C     C_R   0.316212 0.483390 0.861923 -0.038012
C10   C     C_R   0.341115 0.472906 0.779288 -0.188155
C11   C     C_R   0.419656 0.692840 0.176421 -0.064134
C12   C     C_R   0.438824 0.656009 0.253641 -0.144034
C13   C     C_R   0.597861 0.491536 0.202414 0.331270
C14   C     C_R   0.580396 0.531466 0.124966 -0.168676
C15   C     C_R   0.484587 0.625968 0.112254 -0.010863
C16   C     C_2   0.392110 0.540198 0.994986 0.210605
C17   C     C_2   0.438176 0.640326 0.032072 0.311214
C18   C     C_R   0.521689 0.551649 0.266739 -0.111671
H1    H     H_    0.383110 0.705037 0.303369 0.178651
H2    H     H_    0.219664 0.457187 0.890076 0.198010
H3    H     H_    0.347143 0.766939 0.166722 0.182510
H4    H     H_    0.262479 0.437048 0.745234 0.214525
H5    H     H_    0.618641 0.590712 0.906957 0.195698
H6    H     H_    0.631081 0.481043 0.074147 0.176158
C19   C     C_3   0.340368 0.933573 0.504650 0.100014
H7    H     H_    0.300432 0.901773 0.447712 0.108728
C20   C     C_3   0.346014 0.076244 0.501201 0.139248
H8    H     H_    0.310347 0.103324 0.442391 0.207785
H9    H     H_    0.475994 0.095131 0.633198 0.133726
C21   C     C_3   0.565965 0.927182 0.575238 0.248020
C22   C     C_3   0.561894 0.919702 0.424487 -0.614051
C23   C     C_3   0.488836 0.877191 0.504292 -0.149621
H10   H     H_    0.661880 0.872095 0.413109 0.307452
H11   H     H_    0.504857 0.892858 0.372705 0.174551
C24   C     C_3   0.496606 0.119754 0.502947 -0.203484
C25   C     C_3   0.549135 0.069070 0.581649 0.164121
C26   C     C_3   0.576751 0.060895 0.426010 0.073155
H12   H     H_    0.529743 0.098583 0.372736 0.153284
H13   H     H_    0.674796 0.901511 0.562248 0.216731
C27   C     C_3   0.911132 0.612551 0.544535 0.212767
H14   H     H_    0.866149 0.613475 0.607141 0.252879
C28   C     C_3   0.071217 0.611957 0.546011 0.175496
H15   H     H_    0.109253 0.697871 0.518897 0.181656
H16   H     H_    0.126764 0.391804 0.603751 0.256109
C29   C     C_3   0.925401 0.390778 0.548475 0.313879
C30   C     C_3   0.930527 0.501307 0.415524 0.465004
N1    N     N_3   0.861190 0.500250 0.501720 -0.272166
N2    N     N_3   0.138550 0.503270 0.501080 -0.221830
C31   C     C_3   0.085407 0.396276 0.544275 -0.343124
C32   C     C_3   0.093613 0.506453 0.416445 0.542664
H17   H     H_    0.133807 0.311948 0.517835 0.282347
N3    N     N_R   0.687290 0.606939 0.753621 0.231420
O9    O     O_R   0.795547 0.600496 0.792396 -0.299329
O10   O     O_R   0.680380 0.689148 0.698305 -0.386064
N4    N     N_R   0.241769 0.894065 0.568866 0.227449
O11   O     O_R   0.276859 0.864329 0.639298 -0.323113
O12   O     O_R   0.114116 0.915741 0.560675 -0.318337
O13   O     O_3   0.254984 0.135526 0.559961 -0.682060
H18   H     H_    0.272134 0.106427 0.613992 0.377766
O14   O     O_3   0.523738 0.873495 0.648342 -0.684498
H19   H     H_    0.580539 0.906380 0.689316 0.368650
N5    N     N_R   0.720383 0.088666 0.417925 0.288049
O15   O     O_R   0.804746 0.028523 0.459966 -0.250922
O16   O     O_R   0.768245 0.142657 0.353383 -0.245470
O17   O     O_3   0.670735 0.120133 0.597712 -0.641004
H20   H     H_    0.687916 0.097997 0.653503 0.369787
O18   O     O_3   0.867574 0.724422 0.512892 -0.699909
H21   H     H_    0.885272 0.790914 0.551712 0.383100
O19   O     O_3   0.103739 0.614074 0.626352 -0.672652
H22   H     H_    0.190791 0.654964 0.628121 0.407021
N6    N     N_R   0.870804 0.396929 0.634391 0.226980
O20   O     O_R   0.941409 0.439075 0.690322 -0.319365
O21   O     O_R   0.763417 0.337625 0.657652 -0.311606
O22   O     O_3   0.899308 0.394784 0.373173 -0.628585
H23   H     H_    0.808282 0.369537 0.392405 0.399850
N7    N     N_R   0.679897 0.382757 0.213638 0.235991
O23   O     O_R   0.632505 0.295473 0.259202 -0.351684
O24   O     O_R   0.790328 0.360894 0.167759 -0.254644
N8    N     N_R   0.884945 0.602171 0.363509 0.250667
O25   O     O_R   0.932324 0.600828 0.288591 -0.257385
O26   O     O_R   0.785865 0.679532 0.383320 -0.330970
O27   O     O_3   0.144384 0.615095 0.380231 -0.732080
H24   H     H_    0.086797 0.688816 0.396487 0.339789
N9    N     N_R   0.154746 0.404691 0.363824 0.313393
O28   O     O_R   0.146725 0.412337 0.286755 -0.179356
O29   O     O_R   0.221109 0.310277 0.389524 -0.366868
N10   N     N_R   0.904881 0.262636 0.519181 0.253789
O30   O     O_R   0.959369 0.225005 0.449588 -0.264784
O31   O     O_R   0.910025 0.177572 0.573183 -0.211858
O32   O     O_3   0.459402 0.748446 0.990502 -0.721010
H25   H     H_    0.500254 0.807888 0.026228 0.366636
N11   N     N_R   0.340981 0.436242 0.039738 0.192181
O33   O     O_R   0.272482 0.453221 0.108845 -0.281199
O34   O     O_R   0.352690 0.325437 0.008360 -0.327447

loop_
_geom_bond_atom_site_label_1
_geom_bond_atom_site_label_2
_geom_bond_distance
_ccdc_geom_bond_type
C1    C23   1.470846 S    
C12   H1    1.084133 S    
C29   C31   1.590294 S    
C22   C23   1.551323 S    
C19   H7    1.116255 S    
C8    C16   1.464899 S    
N10   O30   1.298724 A    
O18   H21   0.993141 S    
Zn1   O7    1.966479 S    
C11   H3    1.083372 S    
C16   C17   1.353892 D    
C20   H8    1.112544 S    
C21   O14   1.401560 S    
C19   C20   1.550054 S    
O4    C2    1.314183 A    
N11   O34   1.301374 A    
O7    C4    1.301467 A    
N7    O24   1.301170 A    
C19   N4    1.473278 S    
N2    C32   1.519815 S    
C5    C6    1.417548 A    
C20   O13   1.413769 S    
C30   N1    1.548273 S    
C8    C9    1.392314 A    
C24   C26   1.573985 S    
C19   C23   1.578049 S    
O5    C3    1.296447 A    
O27   H24   0.988725 S    
N3    O10   1.297381 A    
N10   O31   1.302013 A    
C2    C5    1.466761 S    
C9    C10   1.387631 A    
C6    C7    1.389455 A    
N4    O12   1.301626 A    
C13   N7    1.433407 S    
C27   C28   1.594016 S    
C13   C14   1.394198 A    
O14   H19   0.992930 S    
N8    O26   1.290982 A    
C28   O19   1.408194 S    
Zn1   N2    2.051265 S    
C21   C23   1.565063 S    
C12   C18   1.406259 A    
C11   C12   1.383585 A    
C22   H10   1.105822 S    
N9    O28   1.302323 A    
C7    H5    1.083650 S    
O3    Zn1   1.974018 S    
C25   O17   1.390899 S    
N6    O21   1.300404 A    
C30   O22   1.402875 S    
H16   C31   1.108345 S    
C32   O27   1.420387 S    
C5    C10   1.410329 A    
C17   O32   1.383974 S    
C31   H17   1.089363 S    
C14   C15   1.404735 A    
N5    O16   1.299393 A    
N7    O23   1.299750 A    
O13   H18   0.987476 S    
C27   H14   1.105378 S    
N2    C31   1.465527 S    
C24   C25   1.555767 S    
N6    O20   1.301577 A    
C30   C32   1.626033 S    
O1    C1    1.295793 A    
C21   C25   1.541738 S    
O17   H20   0.993782 S    
N3    O9    1.301545 A    
Zn2   N1    2.053566 S    
C26   H12   1.115499 S    
Zn2   O8    1.974020 S    
C29   N10   1.491920 S    
C7    C8    1.398225 A    
C22   C26   1.541609 S    
C13   C18   1.404542 A    
O22   H23   0.984906 S    
N9    O29   1.295498 A    
C28   N2    1.497051 S    
H9    C25   1.109622 S    
O3    C2    1.308977 A    
C30   N8    1.487547 S    
O8    C4    1.309604 A    
C29   N1    1.574955 S    
C22   H11   1.114081 S    
C29   N6    1.495263 S    
C20   C24   1.587637 S    
C27   O18   1.398309 S    
C28   H15   1.105777 S    
C10   H4    1.083486 S    
Zn1   O5    2.029836 S    
C11   C15   1.389332 A    
O1    Zn1   2.056431 S    
C27   N1    1.521508 S    
O2    Zn2   2.029838 S    
N5    O15   1.301500 A    
O6    C3    1.323366 A    
O4    Zn2   1.966479 S    
C15   C17   1.462475 S    
O2    C1    1.313292 A    
C16   N11   1.444923 S    
C3    C24   1.495661 S    
O32   H25   0.991863 S    
N11   O33   1.301597 A    
C14   H6    1.084116 S    
C26   N5    1.465697 S    
O19   H22   0.988134 S    
Zn2   O6    2.056430 S    
N4    O11   1.297739 A    
C4    C18   1.446357 S    
N8    O25   1.303089 A    
C9    H2    1.083333 S    
C6    N3    1.435079 S    
C21   H13   1.111712 S    
C32   N9    1.483946 S    
