data_mof_unit_52521.cif
_audit_creation_date              2012-12-11T18:13:25-0500
_audit_creation_method            fapswitch 2.2
_symmetry_space_group_name_H-M    P1
_symmetry_Int_Tables_number       1
_space_group_crystal_system       triclinic
_cell_length_a                    8.222147
_cell_length_b                    12.70797
_cell_length_c                    18.725314
_cell_angle_alpha                 99.293387
_cell_angle_beta                  90.504458
_cell_angle_gamma                 98.97158
_cell_volume                      1906.08492101

loop_
_atom_site_label
_atom_site_type_symbol
_atom_type_description
_atom_site_fract_x
_atom_site_fract_y
_atom_site_fract_z
_atom_type_partial_charge
Ba1   Ba    Ba6+2 0.852780 0.548340 0.465070 1.664296
Ba2   Ba    Ba6+2 0.337060 0.451750 0.534940 1.682454
C1    C     C_3   0.637260 0.922612 0.288054 -0.369410
C2    C     C_R   0.905727 0.376204 0.092154 0.017779
C3    C     C_R   0.745062 0.325680 0.069245 -0.112340
C4    C     C_3   0.101127 0.785980 0.266504 0.285533
C5    C     C_R   0.681351 0.332469 0.000791 -0.105751
C6    C     C_R   0.777482 0.388561 0.953121 0.029486
C7    C     C_R   0.939876 0.437794 0.974808 0.033960
C8    C     C_R   0.713970 0.394868 0.884049 -0.110429
C9    C     C_R   0.811965 0.446854 0.834304 0.001698
C10   C     C_R   0.974621 0.498366 0.856493 -0.004989
C11   C     C_R   0.036949 0.493839 0.927042 0.000083
C12   C     C_3   0.678400 0.820456 0.312018 0.309355
C13   C     C_R   0.755156 0.446698 0.762351 -0.029885
C14   C     C_R   0.863142 0.490636 0.713423 -0.328750
C15   C     C_R   0.020552 0.546446 0.734853 0.082926
C16   C     C_3   0.056244 0.829105 0.198603 -0.388445
C17   C     C_R   0.074947 0.555248 0.808649 -0.023966
C18   C     C_R   0.167514 0.480222 0.066618 -0.001796
C19   C     C_R   0.229994 0.478193 0.137747 0.000038
C20   C     C_R   0.122240 0.432443 0.188403 -0.036570
C21   C     C_R   0.964349 0.377300 0.163151 -0.062844
C22   C     C_R   0.226074 0.617933 0.836748 0.385010
C23   C     C_3   0.462626 0.264079 0.314475 0.312980
C24   C     C_R   0.295272 0.599995 0.901944 -0.004335
C25   C     C_R   0.199304 0.541595 0.948740 -0.022800
C26   C     C_R   0.266239 0.532352 0.017459 0.018766
C27   C     C_R   0.462274 0.635469 0.919118 -0.092085
C28   C     C_3   0.234497 0.788482 0.619320 0.299813
C29   C     C_R   0.530957 0.619530 0.983260 -0.079103
C30   C     C_R   0.433015 0.573742 0.035722 0.021233
C31   C     C_R   0.397709 0.523785 0.158217 -0.101077
C32   C     C_R   0.500342 0.566516 0.104373 -0.064981
C33   C     C_R   0.451252 0.527930 0.232223 0.039886
C34   C     C_3   0.445857 0.222013 0.233555 -0.397957
C35   C     C_R   0.339428 0.487671 0.281600 -0.197048
C36   C     C_R   0.175355 0.443390 0.262486 0.041070
C37   C     C_R   0.760934 0.184209 0.534969 -0.268605
C38   C     C_R   0.428883 0.808640 0.474432 -0.278929
C39   C     C_R   0.401866 0.985877 0.451840 -0.109632
C40   C     C_3   0.233465 0.909346 0.634503 -0.332278
C41   C     C_R   0.337605 0.877620 0.447938 0.055510
C42   C     C_R   0.578733 0.849147 0.511863 0.039404
C43   C     C_R   0.641439 0.961641 0.521412 -0.057633
C44   C     C_R   0.552485 0.030056 0.488965 -0.077069
C45   C     C_3   0.024373 0.161566 0.732591 0.762075
C46   C     C_R   0.615123 0.141076 0.495085 0.046553
C47   C     C_R   0.852269 0.117920 0.565248 -0.045673
C48   C     C_R   0.791096 0.007730 0.560307 -0.086435
C49   C     C_3   0.964613 0.212335 0.384470 0.266266
C50   C     C_3   0.996777 0.096773 0.372898 -0.324714
C51   C     C_3   0.730447 0.707126 0.682395 0.366954
C52   C     C_3   0.746961 0.744014 0.764178 0.216467
C53   C     C_2   0.680195 0.598060 0.115278 0.520541
C54   C     C_2   0.261163 0.744772 0.255113 0.386937
C55   C     C_3   0.068797 0.106327 0.794723 -0.204542
C56   C     C_3   0.555055 0.181754 0.709336 0.371008
C57   C     C_3   0.573660 0.096253 0.755785 -0.383941
C58   C     C_R   0.004551 0.431567 0.044606 0.013458
H1    H     H_    0.800800 0.838789 0.340002 0.070478
H2    H     H_    0.848867 0.686090 0.661949 -0.024592
H3    H     H_    0.632745 0.635126 0.671011 0.000731
H4    H     H_    0.647407 0.988629 0.335291 0.080333
H5    H     H_    0.762501 0.675324 0.792225 -0.072520
H6    H     H_    0.632246 0.773414 0.783303 0.111411
H7    H     H_    0.586026 0.797381 0.351292 0.068724
H8    H     H_    0.509799 0.909192 0.265142 0.125425
H9    H     H_    0.340900 0.281886 0.333676 0.012596
H10   H     H_    0.555067 0.339090 0.323698 0.042196
H11   H     H_    0.350540 0.148596 0.222618 0.130719
H12   H     H_    0.310663 0.945746 0.683588 0.114975
H13   H     H_    0.409262 0.284322 0.204235 0.046386
H14   H     H_    0.565384 0.201430 0.213254 0.121054
H15   H     H_    0.721966 0.948008 0.246096 0.126250
H16   H     H_    0.150335 0.898446 0.190011 0.099984
H17   H     H_    0.899218 0.121525 0.711872 -0.152474
H18   H     H_    0.191130 0.145479 0.819390 0.117393
H19   H     H_    0.974925 0.112121 0.836879 0.074490
H20   H     H_    0.073322 0.019816 0.774600 0.098031
H21   H     H_    0.680161 0.215035 0.693426 -0.096602
H22   H     H_    0.480727 0.143334 0.659432 0.068467
H23   H     H_    0.282540 0.947946 0.588690 0.075898
H24   H     H_    0.662455 0.131254 0.801681 0.119331
H25   H     H_    0.619485 0.026800 0.722809 0.101253
H26   H     H_    0.003965 0.719098 0.274542 0.110182
H27   H     H_    0.453494 0.067204 0.778141 0.121893
H28   H     H_    0.666707 0.283342 0.105114 0.066794
H29   H     H_    0.556176 0.294088 0.985255 0.080534
H30   H     H_    0.821581 0.484385 0.657704 0.061309
H31   H     H_    0.588446 0.357425 0.869434 0.105965
H32   H     H_    0.884132 0.335577 0.198530 0.092918
H33   H     H_    0.543162 0.672165 0.881695 0.078506
H34   H     H_    0.105685 0.924994 0.643629 0.127346
H35   H     H_    0.662320 0.644922 0.990261 0.118712
H36   H     H_    0.379676 0.495334 0.337651 0.058935
H37   H     H_    0.329812 0.034619 0.427066 0.114416
H38   H     H_    0.864369 0.959316 0.585055 0.101786
H39   H     H_    0.810323 0.268867 0.537475 0.055785
H40   H     H_    0.378502 0.723723 0.469265 0.085368
H41   H     H_    0.049559 0.764899 0.150277 0.124628
H42   H     H_    0.935777 0.857381 0.204168 0.182388
H43   H     H_    0.360995 0.773293 0.608893 -0.007003
H44   H     H_    0.151517 0.753610 0.571451 0.051816
H45   H     H_    0.833784 0.213286 0.395177 0.000189
H46   H     H_    0.979300 0.795075 0.785715 0.318142
H47   H     H_    0.965060 0.299678 0.723323 0.261446
H48   H     H_    0.357283 0.759451 0.839028 0.280162
H49   H     H_    0.754711 0.538882 0.123797 0.005773
H50   H     H_    0.324644 0.746465 0.204568 0.010256
H51   H     H_    0.041373 0.256402 0.432171 0.081771
H52   H     H_    0.935469 0.051596 0.321855 0.121486
H53   H     H_    0.950297 0.056978 0.418746 0.099047
H54   H     H_    0.130677 0.095949 0.368202 0.137213
O1    O     O_2   0.873090 0.425890 0.325140 -0.467655
O2    O     O_2   0.179459 0.121495 0.541967 -0.484407
O3    O     O_3   0.141825 0.149352 0.679153 -0.591287
O4    O     O_3   0.122420 0.434370 0.414380 -0.498306
O5    O     O_3   0.578370 0.633800 0.536380 -0.490625
O6    O     O_2   0.341510 0.231850 0.465510 -0.469793
O7    O     O_3   0.514118 0.184844 0.349454 -0.645285
O8    O     O_2   0.416528 0.456617 0.756676 -0.453582
O9    O     O_3   0.472338 0.259897 0.748845 -0.567495
O10   O     O_3   0.659500 0.627100 0.368810 -0.481718
O11   O     O_2   0.800753 0.559919 0.249747 -0.522026
O12   O     O_3   0.688454 0.791594 0.650362 -0.633719
O13   O     O_3   0.999175 0.253545 0.320463 -0.641584
O14   O     O_3   0.679910 0.739640 0.251023 -0.570143
O15   O     O_2   0.848200 0.768190 0.534530 -0.476074
O16   O     O_3   0.081160 0.685950 0.404810 -0.452924
O17   O     O_2   0.005842 0.881805 0.456887 -0.508662
O18   O     O_3   0.879198 0.828720 0.781800 -0.724287
O19   O     O_3   0.027073 0.271273 0.759427 -0.720882
O20   O     O_3   0.301311 0.699515 0.802221 -0.725044
O21   O     O_2   0.746177 0.690333 0.112985 -0.584381
O22   O     O_2   0.320856 0.707236 0.302874 -0.648695
O23   O     O_3   0.111993 0.870825 0.325646 -0.631527
O24   O     O_2   0.316610 0.574140 0.674900 -0.422036
O25   O     O_3   0.067290 0.565720 0.585630 -0.517808
O26   O     O_3   0.530210 0.372990 0.631200 -0.473444
O27   O     O_3   0.182907 0.746575 0.681111 -0.591582
O28   O     O_3   0.611340 0.366290 0.463630 -0.478446
O29   O     O_3   0.108550 0.314140 0.595200 -0.465466
P1    P     P_3+3 0.041040 0.394770 0.336330 0.983271
P2    P     P_3+3 0.672880 0.754030 0.556100 0.970758
P3    P     P_3+3 0.130748 0.826581 0.409379 0.984307
P4    P     P_3+3 0.148670 0.605320 0.663680 1.048866
P5    P     P_3+3 0.066182 0.174762 0.596852 0.960344
P6    P     P_3+3 0.647230 0.609863 0.275183 0.985893
P7    P     P_3+3 0.524137 0.229779 0.443013 0.934304
P8    P     P_3+3 0.544729 0.386328 0.725657 0.995908

loop_
_geom_bond_atom_site_label_1
_geom_bond_atom_site_label_2
_ccdc_geom_bond_type
O10   P6    S    
C14   H30   S    
C46   P7    S    
O16   P3    S    
C55   H19   S    
Ba1   P2    S    
C1    H8    S    
C13   P8    S    
Ba2   O4    S    
C5    C6    A    
C52   H5    S    
C50   H53   S    
H46   O18   S    
O25   P4    S    
C56   O9    S    
C28   O27   S    
O3    P5    S    
Ba2   O25   S    
C15   P4    S    
C22   C24   A    
O4    P1    S    
C56   H22   S    
Ba1   O5    S    
C29   H35   S    
C19   C31   A    
C50   H52   S    
C13   C14   A    
C20   C36   A    
C12   O14   S    
O7    P7    S    
O17   P3    D    
Ba1   Ba2   S    
C16   H42   S    
C7    C11   A    
Ba1   O28   S    
C31   C33   A    
C3    H28   S    
C9    C13   A    
C38   C41   A    
C6    C7    A    
C28   H43   S    
C49   H51   S    
C39   C44   A    
C18   C58   A    
C1    H15   S    
O15   P2    D    
Ba1   O25   S    
C34   H11   S    
C49   H45   S    
Ba1   O4    S    
Ba1   O15   S    
C32   C53   S    
C19   C20   A    
C45   O19   S    
C27   C29   A    
Ba2   O29   S    
C39   C41   A    
C55   H20   S    
C54   H50   S    
C54   O22   D    
O12   P2    S    
C42   P2    S    
C44   C46   A    
O29   P5    S    
C4    C16   S    
O9    P8    S    
C48   H38   S    
C49   C50   S    
Ba2   O24   S    
O23   P3    S    
C26   C30   A    
C57   H24   S    
Ba1   O16   S    
C51   O12   S    
C56   H21   S    
C3    C5    A    
C2    C21   A    
Ba2   O6    S    
C14   C15   A    
C18   C26   A    
C56   C57   S    
C43   C44   A    
C12   H1    S    
C47   P5    S    
C16   H41   S    
C30   C32   A    
C57   H25   S    
H48   O20   S    
C35   C36   A    
C45   C55   S    
C51   H2    S    
C37   H39   S    
C29   C30   A    
C45   O3    S    
O24   P4    D    
C12   H7    S    
C2    C58   A    
C40   H12   S    
C31   C32   A    
C24   C25   A    
C10   C11   A    
O26   P8    S    
C1    C12   S    
O11   P6    D    
C33   P6    S    
C37   C47   A    
C8    H31   S    
Ba2   O28   S    
C39   H37   S    
C23   H9    S    
C45   H17   S    
C42   C43   A    
O2    P5    D    
C22   O20   S    
C21   H32   S    
O1    P1    D    
C34   H14   S    
C16   H16   S    
C33   C35   A    
C40   H34   S    
C36   P1    S    
C55   H18   S    
C28   C40   S    
C40   H23   S    
C4    C54   S    
C2    C3    A    
C38   H40   S    
Ba2   O5    S    
C51   C52   S    
C52   H6    S    
C50   H54   S    
O5    P2    S    
C52   O18   S    
O6    P7    D    
C4    H26   S    
C7    C58   A    
C49   O13   S    
O8    P8    D    
O28   P7    S    
C4    O23   S    
C17   C22   A    
Ba2   P4    S    
Ba1   O10   S    
Ba2   O26   S    
H47   O19   S    
Ba1   P1    S    
C27   H33   S    
C51   H3    S    
C43   C48   A    
C53   O21   D    
C10   C17   A    
C15   C17   A    
O13   P1    S    
C1    H4    S    
C57   H27   S    
C8    C9    A    
O27   P4    S    
C23   C34   S    
O14   P6    S    
C38   C42   A    
C18   C19   A    
C35   H36   S    
C24   C27   A    
C6    C8    A    
C47   C48   A    
C28   H44   S    
C25   C26   A    
C41   P3    S    
C20   C21   A    
C11   C25   A    
C23   H10   S    
Ba1   O1    S    
C23   O7    S    
C34   H13   S    
C53   H49   S    
C9    C10   A    
C37   C46   A    
C5    H29   S    
