data_mof_unit_55521.cif
_audit_creation_date              2012-12-10T19:07:37-0500
_audit_creation_method            fapswitch 2.2
_symmetry_space_group_name_H-M    P1
_symmetry_Int_Tables_number       1
_space_group_crystal_system       triclinic
_cell_length_a                    10.867081
_cell_length_b                    10.856097
_cell_length_c                    9.555019
_cell_angle_alpha                 90.937948
_cell_angle_beta                  90.071199
_cell_angle_gamma                 90.764883
_cell_volume                      1126.9919536

loop_
_atom_site_label
_atom_site_type_symbol
_atom_type_description
_atom_site_fract_x
_atom_site_fract_y
_atom_site_fract_z
_atom_type_partial_charge
C1    C     C_R   0.496270 0.262524 0.498891 0.800881
C2    C     C_R   0.938261 0.488158 0.620224 0.112805
C3    C     C_3   0.929861 0.456789 0.771244 -0.437978
C4    C     C_3   0.071524 0.456914 0.770677 -0.446134
C5    C     C_R   0.465620 0.066838 0.621135 0.126607
C6    C     C_R   0.481222 0.129811 0.496550 -0.100961
C7    C     C_R   0.478055 0.062408 0.369881 -0.188125
C8    C     C_R   0.478755 0.933821 0.371560 -0.198615
C9    C     C_R   0.483415 0.871407 0.499773 -0.096440
C10   C     C_R   0.466389 0.939988 0.623239 0.127096
C11   C     C_3   0.534613 0.941457 0.759105 -0.488137
C12   C     C_R   0.262764 0.499747 0.499821 0.814921
C13   C     C_3   0.533227 0.080757 0.756103 -0.441981
C14   C     C_R   0.598969 0.545571 0.074799 0.107980
C15   C     C_R   0.409873 0.440752 0.072733 0.649227
C16   C     C_R   0.409698 0.441383 0.924053 -0.170907
C17   C     C_R   0.599279 0.544754 0.927264 0.148037
C18   C     C_3   0.648799 0.672660 0.923372 -0.527449
C19   C     C_3   0.648445 0.674097 0.081744 0.440252
C20   C     C_R   0.497176 0.737972 0.500679 0.801618
C21   C     C_R   0.737310 0.499609 0.499939 0.816594
C22   C     C_R   0.062214 0.488099 0.619911 0.116569
C23   C     C_R   0.130250 0.501877 0.498379 -0.108817
C24   C     C_R   0.064778 0.517698 0.372436 -0.178552
C25   C     C_R   0.935674 0.516925 0.372553 -0.167784
C26   C     C_R   0.870049 0.501505 0.498686 -0.116231
Cu1   Cu    Cu3+1 0.499990 0.499980 0.640670 0.947791
Cu2   Cu    Cu3+1 0.500010 0.500020 0.359330 1.014629
H1    H     H_    0.628917 0.903787 0.749012 0.206519
H2    H     H_    0.475462 0.122640 0.839737 0.204701
H3    H     H_    0.626268 0.123144 0.743839 0.202670
H4    H     H_    0.335857 0.395282 0.867266 0.164065
H5    H     H_    0.741789 0.679067 0.876062 0.214311
H6    H     H_    0.888115 0.526818 0.274024 0.230880
H7    H     H_    0.890926 0.532302 0.836143 0.213423
H8    H     H_    0.888128 0.364067 0.787392 0.199450
H9    H     H_    0.113939 0.532849 0.834427 0.209671
H10   H     H_    0.110841 0.364142 0.786311 0.200219
H11   H     H_    0.481915 0.108277 0.270130 0.180462
H12   H     H_    0.481813 0.884372 0.272547 0.156902
H13   H     H_    0.476962 0.905043 0.845452 0.194195
N1    N     N_R   0.500790 0.500930 0.147930 -0.272456
N2    N     N_R   0.500790 0.500890 0.852020 -0.209235
O1    O     O_R   0.500000 0.319640 0.618810 -0.586355
O2    O     O_R   0.500010 0.319680 0.381230 -0.553523
O3    O     O_R   0.319650 0.499970 0.618810 -0.594943
O4    O     O_R   0.319660 0.500010 0.381230 -0.526876
O5    O     O_R   0.499990 0.680320 0.618770 -0.577682
O6    O     O_R   0.500000 0.680360 0.381190 -0.594596
O7    O     O_R   0.680340 0.499990 0.618770 -0.579210
O8    O     O_R   0.680350 0.500030 0.381190 -0.560014
H14   H     H_    0.112505 0.529372 0.273997 0.201295
F1    F     F_    0.318093 0.380320 0.139824 -0.665737
H15   H     H_    0.579973 0.734091 0.879256 0.168846
F2    F     F_    0.766046 0.679724 0.136981 -0.665587
H16   H     H_    0.584335 0.741529 0.129041 0.081709

loop_
_geom_bond_atom_site_label_1
_geom_bond_atom_site_label_2
_ccdc_geom_bond_type
Cu1   O5    S    
C2    C22   A    
C21   C26   S    
C17   N2    A    
Cu2   O4    S    
C24   H14   S    
C20   O6    A    
C16   H4    S    
C4    C22   S    
Cu2   O6    S    
C9    C20   S    
C5    C13   S    
C14   C17   A    
Cu1   O7    S    
C3    H7    S    
C25   H6    S    
C14   N1    A    
C17   C18   S    
C7    C8    A    
C2    C26   A    
C24   C25   A    
C11   C13   S    
C16   N2    A    
C1    O2    A    
C20   O5    A    
C3    H8    S    
C12   O4    A    
C15   F1    S    
Cu1   O3    S    
Cu2   N1    S    
C21   O7    A    
Cu2   O8    S    
C19   H16   S    
C2    C3    S    
C6    C7    A    
C5    C6    A    
C18   H5    S    
Cu2   O2    S    
C21   O8    A    
C10   C11   S    
C18   H15   S    
C23   C24   A    
C1    C6    S    
Cu1   N2    S    
C13   H2    S    
C5    C10   A    
C8    H12   S    
C4    H9    S    
C11   H1    S    
C12   O3    A    
C18   C19   S    
C9    C10   A    
C11   H13   S    
C19   F2    S    
Cu1   Cu2   S    
C7    H11   S    
C22   C23   A    
C12   C23   S    
C1    O1    A    
C25   C26   A    
Cu1   O1    S    
C14   C19   S    
C13   H3    S    
C3    C4    S    
C15   C16   A    
C15   N1    A    
C4    H10   S    
C8    C9    A    
