data_mof_unit_9719.cif
_audit_creation_date              2012-12-10T17:44:35-0500
_audit_creation_method            fapswitch 2.2
_symmetry_space_group_name_H-M    P1
_symmetry_Int_Tables_number       1
_space_group_crystal_system       triclinic
_cell_length_a                    9.94391
_cell_length_b                    10.734253
_cell_length_c                    15.290894
_cell_angle_alpha                 93.636484
_cell_angle_beta                  68.961695
_cell_angle_gamma                 90.243691
_cell_volume                      1519.9906705

loop_
_atom_site_label
_atom_site_type_symbol
_atom_type_description
_atom_site_fract_x
_atom_site_fract_y
_atom_site_fract_z
_atom_type_partial_charge
C1    C     C_R   0.505634 0.737991 0.489581 0.878673
C2    C     C_R   0.744782 0.475584 0.026158 0.005614
C3    C     C_R   0.596997 0.461189 0.080209 0.103467
C4    C     C_R   0.410923 0.492428 0.675537 0.838274
C5    C     C_R   0.838230 0.530785 0.068874 -0.089526
C6    C     C_R   0.788786 0.546159 0.168584 -0.040224
C7    C     C_R   0.544603 0.510425 0.173685 -0.092850
C8    C     C_R   0.354990 0.861506 0.379477 -0.200858
C9    C     C_R   0.278821 0.922794 0.334052 -0.082251
C10   C     C_R   0.285029 0.052226 0.330342 0.025927
C11   C     C_R   0.367010 0.119798 0.374164 -0.247112
C12   C     C_R   0.442004 0.399364 0.898581 0.081672
C13   C     C_R   0.438744 0.059670 0.425625 0.114664
C14   C     C_R   0.434555 0.928317 0.426517 0.112708
C15   C     C_R   0.518549 0.867961 0.469339 -0.141007
C16   C     C_R   0.504676 0.259566 0.492603 0.904301
C17   C     C_R   0.623223 0.932792 0.492223 -0.139330
C18   C     C_R   0.620411 0.060051 0.500762 -0.037074
C19   C     C_R   0.519982 0.125460 0.473277 -0.181440
C20   C     C_R   0.782503 0.622335 0.657331 -0.022964
C21   C     C_R   0.814122 0.643624 0.739374 -0.155227
C22   C     C_R   0.955979 0.652333 0.732602 -0.153665
C23   C     C_R   0.300572 0.362759 0.950028 0.215543
C24   C     C_R   0.064210 0.623395 0.646962 -0.108902
C25   C     C_R   0.033529 0.560377 0.573434 0.197294
C26   C     C_R   0.888134 0.560802 0.575268 0.116227
C27   C     C_R   0.969957 0.443052 0.427963 0.032174
C28   C     C_R   0.589023 0.509173 0.324129 0.884914
C29   C     C_R   0.112084 0.444889 0.428433 -0.197971
C30   C     C_R   0.363868 0.455075 0.772462 -0.043078
C31   C     C_R   0.642055 0.523211 0.221441 -0.197772
C32   C     C_R   0.196621 0.358361 0.907296 -0.158895
C33   C     C_R   0.228772 0.403643 0.818078 -0.196989
C34   C     C_R   0.549379 0.399763 0.938866 -0.048721
C35   C     C_R   0.467747 0.452995 0.813965 -0.251488
C36   C     C_2   0.977845 0.583749 0.008291 0.377982
C37   C     C_2   0.209721 0.117719 0.278551 0.436065
C38   C     C_2   0.722156 0.117896 0.541976 0.480867
C39   C     C_2   0.951709 0.376189 0.345824 0.426276
C40   C     C_2   0.686624 0.723030 0.652598 0.460815
C41   C     C_2   0.403263 0.580578 0.209851 0.358891
C42   C     C_2   0.884633 0.598672 0.216397 0.533548
C43   C     C_2   0.758954 0.339441 0.788082 0.421717
C44   C     C_R   0.502858 0.409212 0.037170 0.129318
C45   C     C_R   0.362899 0.368005 0.088888 -0.147579
C46   C     C_R   0.264648 0.339349 0.044551 -0.168428
C47   C     C_R   0.699519 0.396965 0.885888 -0.044919
C48   C     C_R   0.794933 0.435505 0.930393 -0.216108
H1    H     H_    0.355621 0.761322 0.372672 0.165048
H2    H     H_    0.802765 0.182177 0.503429 0.126858
H3    H     H_    0.035813 0.380350 0.277222 0.004044
H4    H     H_    0.572509 0.710489 0.669244 0.074964
H5    H     H_    0.732141 0.681749 0.803814 0.155294
H6    H     H_    0.335471 0.588654 0.282939 0.090888
H7    H     H_    0.981795 0.692107 0.791351 0.144885
H8    H     H_    0.169984 0.654370 0.638854 0.192199
H9    H     H_    0.992157 0.559943 0.199463 0.093688
H10   H     H_    0.908862 0.432550 0.889836 0.163700
H11   H     H_    0.089695 0.324405 0.944124 0.138821
H12   H     H_    0.199339 0.399588 0.370680 0.114542
H13   H     H_    0.569375 0.496961 0.781024 0.142653
H14   H     H_    0.328538 0.359811 0.163738 0.108696
H15   H     H_    0.689108 0.289933 0.757797 0.122094
H16   H     H_    0.149120 0.398832 0.784975 0.190360
H17   H     H_    0.157214 0.310456 0.085903 0.152951
H18   H     H_    0.993219 0.605456 0.937138 0.071012
H19   H     H_    0.706039 0.884134 0.507078 0.232183
H20   H     H_    0.219167 0.868058 0.298809 0.206266
H21   H     H_    0.218855 0.217602 0.273982 -0.004304
H22   H     H_    0.378959 0.218218 0.363271 0.150142
N1    N     N_R   0.856800 0.501200 0.500850 -0.128785
N2    N     N_R   0.142390 0.501280 0.500880 -0.114358
O1    O     O_R   0.385310 0.683220 0.500000 -0.652316
O2    O     O_2   0.136476 0.061142 0.240583 -0.529517
O3    O     O_2   0.718607 0.091113 0.619151 -0.528209
O4    O     O_2   0.850439 0.308143 0.353715 -0.550073
O5    O     O_2   0.732152 0.828965 0.644224 -0.544273
O6    O     O_2   0.361403 0.634283 0.155969 -0.524507
O7    O     O_2   0.844593 0.687540 0.274128 -0.557516
O8    O     O_2   0.887059 0.344355 0.740741 -0.571626
O9    O     O_R   0.614640 0.683250 0.500010 -0.619273
O10   O     O_R   0.319840 0.499980 0.632240 -0.617778
O11   O     O_R   0.549160 0.500000 0.632250 -0.652040
O12   O     O_R   0.385360 0.316750 0.499990 -0.601215
O13   O     O_R   0.614690 0.316780 0.500000 -0.589479
O14   O     O_R   0.450840 0.500000 0.367750 -0.669847
O15   O     O_R   0.680160 0.500020 0.367760 -0.547353
O16   O     O_2   0.076813 0.605453 0.036016 -0.550345
Zn1   Zn    Zn3+2 0.346880 0.499980 0.499990 0.937643
Zn2   Zn    Zn3+2 0.653120 0.500020 0.500010 1.001329

loop_
_geom_bond_atom_site_label_1
_geom_bond_atom_site_label_2
_ccdc_geom_bond_type
C39   H3    S    
C37   O2    D    
C37   H21   S    
C27   C29   A    
C11   H22   S    
C43   H15   S    
C45   C46   A    
C36   O16   D    
N1    Zn2   S    
C12   C23   A    
O10   Zn1   S    
C30   C35   A    
C10   C37   S    
C3    C7    A    
C16   C19   S    
C5    C6    A    
C20   C40   S    
C36   H18   S    
C1    O9    A    
C5    C36   S    
C45   H14   S    
C16   O12   A    
C18   C19   A    
C27   C39   S    
C8    C9    A    
C1    C15   S    
C9    C10   A    
C29   N2    A    
C6    C31   A    
C42   O7    D    
C23   C46   A    
C13   C14   A    
C26   N1    A    
C42   H9    S    
C25   C26   A    
C38   O3    D    
C3    C44   A    
C17   H19   S    
C7    C31   A    
C13   C19   A    
C34   C44   A    
C24   C25   A    
C46   H17   S    
C41   O6    D    
C2    C48   A    
C43   O8    D    
C40   H4    S    
C47   C48   A    
C29   H12   S    
C28   O15   A    
C17   C18   A    
C35   H13   S    
C25   N2    A    
C39   O4    D    
C12   C35   A    
O9    Zn2   S    
C28   O14   A    
C16   O13   A    
C22   C24   A    
C2    C5    A    
O12   Zn1   S    
C12   C34   A    
C27   N1    A    
C44   C45   A    
C15   C17   A    
O11   Zn2   S    
C8    C14   A    
C30   C33   A    
C40   O5    D    
C28   C31   S    
O14   Zn1   S    
O13   Zn2   S    
C48   H10   S    
C22   H7    S    
C38   H2    S    
C24   H8    S    
C1    O1    A    
C23   C32   A    
C2    C3    A    
C18   C38   S    
C9    H20   S    
O1    Zn1   S    
C32   C33   A    
C21   H5    S    
N2    Zn1   S    
C11   C13   A    
C4    O11   A    
C20   C26   A    
C33   H16   S    
C7    C41   S    
C41   H6    S    
C10   C11   A    
C4    O10   A    
C20   C21   A    
C6    C42   S    
O15   Zn2   S    
C14   C15   A    
C34   C47   A    
C32   H11   S    
C21   C22   A    
C43   C47   S    
C8    H1    S    
C4    C30   S    
