data_mof_unit_60162.cif
_audit_creation_date              2012-12-10T20:29:36-0500
_audit_creation_method            fapswitch 2.2
_symmetry_space_group_name_H-M    P1
_symmetry_Int_Tables_number       1
_space_group_crystal_system       orthorhombic
_cell_length_a                    26.240616
_cell_length_b                    39.747137
_cell_length_c                    39.748519
_cell_angle_alpha                 90.0
_cell_angle_beta                  90.0
_cell_angle_gamma                 90.0
_cell_volume                      41457.2823576

loop_
_atom_site_label
_atom_site_type_symbol
_atom_type_description
_atom_site_fract_x
_atom_site_fract_y
_atom_site_fract_z
_atom_type_partial_charge
C1    C     C_R   0.611316 0.999899 0.249846 0.944902
C2    C     C_R   0.388683 0.999899 0.750154 0.944901
C3    C     C_R   0.388684 0.000025 0.249972 0.945422
C4    C     C_R   0.611316 0.000025 0.750027 0.945422
C5    C     C_R   0.111316 0.000025 0.749972 0.945423
C6    C     C_R   0.888684 0.000025 0.250028 0.945425
C7    C     C_R   0.888684 0.999899 0.749846 0.944901
C8    C     C_R   0.111316 0.999899 0.250154 0.944901
C9    C     C_R   0.111316 0.500025 0.249972 0.945408
C10   C     C_R   0.888684 0.499899 0.750154 0.944914
C11   C     C_R   0.888684 0.499899 0.249846 0.944912
C12   C     C_R   0.111316 0.500025 0.750027 0.945407
C13   C     C_R   0.611316 0.499899 0.749846 0.944913
C14   C     C_R   0.388684 0.500025 0.250028 0.945407
C15   C     C_R   0.388684 0.500025 0.749972 0.945407
C16   C     C_R   0.611316 0.499899 0.250154 0.944913
C17   C     C_1   0.749994 0.764800 0.249998 0.016434
C18   C     C_1   0.250006 0.764800 0.750001 0.016353
C19   C     C_1   0.249994 0.764800 0.250001 0.016353
C20   C     C_1   0.750006 0.764800 0.749998 0.016434
C21   C     C_1   0.249996 0.264797 0.249998 0.016408
C22   C     C_1   0.750004 0.264802 0.750001 0.016379
C23   C     C_1   0.749996 0.264802 0.250001 0.016379
C24   C     C_1   0.250004 0.264797 0.749999 0.016408
C25   C     C_R   0.707271 0.818293 0.261345 -0.264793
C26   C     C_R   0.292728 0.818293 0.738652 -0.264843
C27   C     C_R   0.292715 0.818292 0.261355 -0.264897
C28   C     C_R   0.707286 0.818292 0.738644 -0.264847
C29   C     C_R   0.207283 0.818292 0.761352 -0.264897
C30   C     C_R   0.792719 0.818292 0.238650 -0.264848
C31   C     C_R   0.792725 0.818293 0.761352 -0.264792
C32   C     C_R   0.207274 0.818293 0.238649 -0.264842
C33   C     C_R   0.207319 0.318290 0.261420 -0.264780
C34   C     C_R   0.792763 0.318296 0.738714 -0.264851
C35   C     C_R   0.792756 0.318295 0.261291 -0.264910
C36   C     C_R   0.207325 0.318289 0.738576 -0.264840
C37   C     C_R   0.707242 0.318295 0.761289 -0.264910
C38   C     C_R   0.292676 0.318289 0.238578 -0.264841
C39   C     C_R   0.292680 0.318289 0.761422 -0.264781
C40   C     C_R   0.707238 0.318296 0.238711 -0.264850
C41   C     C_R   0.707249 0.853570 0.262267 0.451133
C42   C     C_R   0.292749 0.853570 0.737730 0.451145
C43   C     C_R   0.292739 0.853568 0.262278 0.451286
C44   C     C_R   0.707262 0.853568 0.737721 0.451275
C45   C     C_R   0.207260 0.853568 0.762275 0.451285
C46   C     C_R   0.792742 0.853568 0.237728 0.451275
C47   C     C_R   0.792746 0.853569 0.762274 0.451134
C48   C     C_R   0.207253 0.853569 0.237727 0.451146
C49   C     C_R   0.207300 0.353565 0.262342 0.451255
C50   C     C_R   0.792787 0.353573 0.737791 0.451144
C51   C     C_R   0.792782 0.353572 0.262213 0.451166
C52   C     C_R   0.207305 0.353564 0.737654 0.451278
C53   C     C_R   0.707216 0.353572 0.762211 0.451164
C54   C     C_R   0.292696 0.353564 0.237656 0.451278
C55   C     C_R   0.292698 0.353565 0.762344 0.451256
C56   C     C_R   0.707214 0.353573 0.237788 0.451144
C57   C     C_R   0.749997 0.871570 0.249998 -0.238026
C58   C     C_R   0.250003 0.871570 0.750002 -0.238033
C59   C     C_R   0.249997 0.871570 0.250002 -0.238039
C60   C     C_R   0.750003 0.871570 0.749998 -0.238036
C61   C     C_R   0.249999 0.371568 0.249999 -0.238287
C62   C     C_R   0.750001 0.371572 0.750000 -0.237787
C63   C     C_R   0.749999 0.371572 0.250000 -0.237791
C64   C     C_R   0.250001 0.371567 0.750000 -0.238290
C65   C     C_R   0.749994 0.800830 0.249998 0.012007
C66   C     C_R   0.250006 0.800830 0.750002 0.012045
C67   C     C_R   0.249994 0.800829 0.250002 0.012044
C68   C     C_R   0.750006 0.800829 0.749998 0.012005
C69   C     C_R   0.249997 0.300826 0.249999 0.012017
C70   C     C_R   0.750003 0.300832 0.750001 0.012031
C71   C     C_R   0.749997 0.300832 0.250001 0.012030
C72   C     C_R   0.250003 0.300826 0.749999 0.012017
C73   C     C_2   0.527945 0.520448 0.268990 0.578973
C74   C     C_2   0.472051 0.518716 0.729289 0.580237
C75   C     C_2   0.472051 0.518716 0.270711 0.580237
C76   C     C_2   0.527945 0.520448 0.731009 0.578974
C77   C     C_2   0.027949 0.518716 0.770711 0.580237
C78   C     C_2   0.972055 0.520448 0.231010 0.578972
C79   C     C_2   0.972055 0.520448 0.768990 0.578973
C80   C     C_2   0.027949 0.518716 0.229289 0.580240
C81   C     C_2   0.027945 0.020448 0.268990 0.579009
C82   C     C_2   0.972055 0.020448 0.731009 0.579007
C83   C     C_2   0.972050 0.018716 0.270711 0.580206
C84   C     C_2   0.027949 0.018716 0.729289 0.580207
C85   C     C_2   0.527949 0.018716 0.770711 0.580205
C86   C     C_2   0.472050 0.018716 0.229289 0.580205
C87   C     C_2   0.472054 0.020448 0.768990 0.579009
C88   C     C_2   0.527945 0.020448 0.231010 0.579009
C89   C     C_2   0.555983 0.498458 0.251114 -0.533882
C90   C     C_2   0.444021 0.500933 0.751359 -0.534584
C91   C     C_2   0.444021 0.500932 0.248641 -0.534585
C92   C     C_2   0.555983 0.498458 0.748886 -0.533883
C93   C     C_2   0.055979 0.500933 0.748641 -0.534585
C94   C     C_2   0.944017 0.498458 0.248886 -0.533883
C95   C     C_2   0.944017 0.498458 0.751114 -0.533882
C96   C     C_2   0.055979 0.500932 0.251359 -0.534585
C97   C     C_2   0.055983 0.998458 0.251114 -0.533897
C98   C     C_2   0.944017 0.998458 0.748886 -0.533896
C99   C     C_2   0.944021 0.000932 0.248641 -0.534575
C100  C     C_2   0.055979 0.000932 0.751359 -0.534577
C101  C     C_2   0.555979 0.000932 0.748641 -0.534575
C102  C     C_2   0.444021 0.000932 0.251359 -0.534576
C103  C     C_2   0.444017 0.998458 0.751114 -0.533897
C104  C     C_2   0.555983 0.998458 0.248886 -0.533896
C105  C     C_R   0.719083 0.978559 0.568185 -0.242920
C106  C     C_R   0.280917 0.978560 0.431815 -0.242926
C107  C     C_R   0.280927 0.978566 0.568185 -0.242754
C108  C     C_R   0.719073 0.978567 0.431815 -0.242748
C109  C     C_R   0.219073 0.978566 0.068185 -0.242754
C110  C     C_R   0.780927 0.978566 0.931815 -0.242749
C111  C     C_R   0.780918 0.978560 0.068185 -0.242920
C112  C     C_R   0.219083 0.978560 0.931815 -0.242926
C113  C     C_R   0.219071 0.478567 0.568185 -0.242780
C114  C     C_R   0.780914 0.478558 0.431815 -0.242894
C115  C     C_R   0.780914 0.478558 0.568185 -0.242895
C116  C     C_R   0.219071 0.478567 0.431815 -0.242780
C117  C     C_R   0.719086 0.478558 0.068185 -0.242895
C118  C     C_R   0.280929 0.478567 0.931815 -0.242781
C119  C     C_R   0.280929 0.478567 0.068185 -0.242780
C120  C     C_R   0.719086 0.478558 0.931815 -0.242894
C121  C     C_R   0.718290 0.978076 0.603293 0.628772
C122  C     C_R   0.281710 0.978076 0.396707 0.628768
C123  C     C_R   0.281720 0.978083 0.603293 0.628897
C124  C     C_R   0.718279 0.978083 0.396707 0.628902
C125  C     C_R   0.218280 0.978083 0.103293 0.628896
C126  C     C_R   0.781720 0.978082 0.896707 0.628900
C127  C     C_R   0.781711 0.978076 0.103293 0.628775
C128  C     C_R   0.218289 0.978076 0.896707 0.628769
C129  C     C_R   0.218277 0.478084 0.603293 0.628703
C130  C     C_R   0.781706 0.478074 0.396707 0.628963
C131  C     C_R   0.781707 0.478074 0.603293 0.628962
C132  C     C_R   0.218277 0.478085 0.396707 0.628702
C133  C     C_R   0.718294 0.478074 0.103293 0.628960
C134  C     C_R   0.281723 0.478084 0.896707 0.628702
C135  C     C_R   0.281723 0.478084 0.103293 0.628704
C136  C     C_R   0.718293 0.478074 0.896707 0.628963
C137  C     C_R   0.750138 0.999945 0.621745 -0.148756
C138  C     C_R   0.249862 0.999945 0.378255 -0.148755
C139  C     C_R   0.249860 0.999944 0.621745 -0.149638
C140  C     C_R   0.750140 0.999944 0.378255 -0.149639
C141  C     C_R   0.250140 0.999944 0.121745 -0.149637
C142  C     C_R   0.749860 0.999944 0.878255 -0.149638
C143  C     C_R   0.749862 0.999945 0.121745 -0.148757
C144  C     C_R   0.250138 0.999945 0.878255 -0.148756
C145  C     C_R   0.250140 0.499944 0.621745 -0.149484
C146  C     C_R   0.749862 0.499945 0.378255 -0.148907
C147  C     C_R   0.749862 0.499945 0.621745 -0.148907
C148  C     C_R   0.250140 0.499944 0.378255 -0.149483
C149  C     C_R   0.750138 0.499945 0.121745 -0.148906
C150  C     C_R   0.249860 0.499944 0.878255 -0.149483
C151  C     C_R   0.249860 0.499944 0.121745 -0.149484
C152  C     C_R   0.750138 0.499945 0.878255 -0.148907
C153  C     C_R   0.749995 0.999931 0.158920 0.825867
C154  C     C_R   0.250005 0.999931 0.841079 0.825866
C155  C     C_R   0.250005 0.999931 0.158920 0.827881
C156  C     C_R   0.749995 0.999931 0.841079 0.827882
C157  C     C_R   0.249995 0.999931 0.658921 0.827882
C158  C     C_R   0.750005 0.999931 0.341079 0.827883
C159  C     C_R   0.750005 0.999931 0.658921 0.825865
C160  C     C_R   0.249995 0.999931 0.341079 0.825865
C161  C     C_R   0.249995 0.499931 0.158921 0.827348
C162  C     C_R   0.750005 0.499931 0.841079 0.826401
C163  C     C_R   0.750005 0.499931 0.158920 0.826398
C164  C     C_R   0.249995 0.499931 0.841079 0.827345
C165  C     C_R   0.749995 0.499931 0.658921 0.826399
C166  C     C_R   0.250005 0.499931 0.341079 0.827346
C167  C     C_R   0.250005 0.499931 0.658921 0.827348
C168  C     C_R   0.749995 0.499931 0.341079 0.826400
C169  C     C_R   0.782526 0.022080 0.604223 -0.262330
C170  C     C_R   0.217474 0.022080 0.395777 -0.262330
C171  C     C_R   0.217459 0.022071 0.604223 -0.259987
C172  C     C_R   0.782541 0.022071 0.395777 -0.259986
C173  C     C_R   0.282541 0.022071 0.104223 -0.259986
C174  C     C_R   0.717459 0.022071 0.895777 -0.259986
C175  C     C_R   0.717473 0.022080 0.104223 -0.262331
C176  C     C_R   0.282526 0.022080 0.895777 -0.262330
C177  C     C_R   0.282545 0.522068 0.604223 -0.260094
C178  C     C_R   0.717478 0.522083 0.395777 -0.262223
C179  C     C_R   0.717478 0.522083 0.604223 -0.262224
C180  C     C_R   0.282545 0.522068 0.395777 -0.260096
C181  C     C_R   0.782521 0.522083 0.104223 -0.262224
C182  C     C_R   0.217455 0.522068 0.895777 -0.260096
C183  C     C_R   0.217455 0.522068 0.104223 -0.260094
C184  C     C_R   0.782522 0.522083 0.895777 -0.262222
C185  C     C_R   0.783113 0.022426 0.569127 -0.159038
C186  C     C_R   0.216887 0.022426 0.430873 -0.159038
C187  C     C_R   0.216872 0.022417 0.569127 -0.159028
C188  C     C_R   0.783128 0.022417 0.430873 -0.159030
C189  C     C_R   0.283128 0.022417 0.069127 -0.159029
C190  C     C_R   0.716872 0.022417 0.930873 -0.159029
C191  C     C_R   0.716886 0.022426 0.069127 -0.159038
C192  C     C_R   0.283113 0.022426 0.930873 -0.159038
C193  C     C_R   0.283133 0.522414 0.569127 -0.159060
C194  C     C_R   0.716893 0.522430 0.430873 -0.159006
C195  C     C_R   0.716892 0.522430 0.569127 -0.159009
C196  C     C_R   0.283133 0.522414 0.430873 -0.159061
C197  C     C_R   0.783107 0.522430 0.069127 -0.159008
C198  C     C_R   0.216867 0.522414 0.930873 -0.159061
C199  C     C_R   0.216867 0.522414 0.069127 -0.159060
C200  C     C_R   0.783107 0.522430 0.930873 -0.159007
C201  C     C_R   0.751402 0.000682 0.551131 0.056743
C202  C     C_R   0.248598 0.000682 0.448869 0.056744
C203  C     C_R   0.248596 0.000681 0.551131 0.056500
C204  C     C_R   0.751404 0.000681 0.448869 0.056498
C205  C     C_R   0.251404 0.000681 0.051131 0.056500
C206  C     C_R   0.748596 0.000681 0.948869 0.056498
C207  C     C_R   0.748598 0.000682 0.051131 0.056742
C208  C     C_R   0.251402 0.000682 0.948869 0.056744
C209  C     C_R   0.251406 0.500679 0.551131 0.056504
C210  C     C_R   0.748600 0.500683 0.448869 0.056737
C211  C     C_R   0.748600 0.500683 0.551131 0.056738
C212  C     C_R   0.251406 0.500679 0.448869 0.056504
C213  C     C_R   0.751400 0.500683 0.051131 0.056738
C214  C     C_R   0.248594 0.500679 0.948869 0.056504
C215  C     C_R   0.248594 0.500679 0.051131 0.056504
C216  C     C_R   0.751400 0.500683 0.948869 0.056737
C217  C     C_1   0.751889 0.000993 0.515110 -0.014378
C218  C     C_1   0.248110 0.000993 0.484890 -0.014381
C219  C     C_1   0.248110 0.000993 0.515110 -0.014186
C220  C     C_1   0.751890 0.000993 0.484890 -0.014183
C221  C     C_1   0.251890 0.000993 0.015110 -0.014187
C222  C     C_1   0.748110 0.000993 0.984890 -0.014184
C223  C     C_1   0.748110 0.000993 0.015110 -0.014378
C224  C     C_1   0.251889 0.000993 0.984890 -0.014381
C225  C     C_1   0.251894 0.500991 0.515110 -0.014185
C226  C     C_1   0.748114 0.500995 0.484890 -0.014380
C227  C     C_1   0.748114 0.500995 0.515110 -0.014380
C228  C     C_1   0.251894 0.500991 0.484890 -0.014186
C229  C     C_1   0.751886 0.500995 0.015110 -0.014381
C230  C     C_1   0.248106 0.500991 0.984890 -0.014186
C231  C     C_1   0.248106 0.500991 0.015110 -0.014185
C232  C     C_1   0.751886 0.500995 0.984890 -0.014380
C233  C     C_R   0.750000 0.090929 0.250000 0.783646
C234  C     C_R   0.250000 0.090929 0.750000 0.783657
C235  C     C_R   0.250000 0.090929 0.250000 0.783657
C236  C     C_R   0.750000 0.090929 0.750000 0.783646
C237  C     C_R   0.250000 0.590929 0.250000 0.782166
C238  C     C_R   0.750000 0.590929 0.750000 0.785139
C239  C     C_R   0.750000 0.590929 0.250000 0.785139
C240  C     C_R   0.250000 0.590929 0.750000 0.782165
C241  C     C_R   0.749999 0.908873 0.249999 0.868168
C242  C     C_R   0.250001 0.908873 0.750000 0.868152
C243  C     C_R   0.249999 0.908873 0.250000 0.868142
C244  C     C_R   0.750001 0.908873 0.750000 0.868143
C245  C     C_R   0.250000 0.408872 0.250000 0.868396
C246  C     C_R   0.750000 0.408874 0.750000 0.867884
C247  C     C_R   0.750000 0.408874 0.250000 0.867875
C248  C     C_R   0.250000 0.408872 0.750000 0.868389
C249  C     C_R   0.717137 0.681017 0.271419 -0.159259
C250  C     C_R   0.282838 0.681017 0.728565 -0.159395
C251  C     C_R   0.282831 0.681017 0.271437 -0.159399
C252  C     C_R   0.717145 0.681017 0.728579 -0.159264
C253  C     C_R   0.217169 0.681017 0.771437 -0.159398
C254  C     C_R   0.782855 0.681017 0.228579 -0.159264
C255  C     C_R   0.782862 0.681016 0.771419 -0.159260
C256  C     C_R   0.217162 0.681017 0.228565 -0.159395
C257  C     C_R   0.217149 0.181015 0.271426 -0.159435
C258  C     C_R   0.782852 0.181018 0.728574 -0.159437
C259  C     C_R   0.782843 0.181018 0.271429 -0.159224
C260  C     C_R   0.217158 0.181016 0.728570 -0.159221
C261  C     C_R   0.717157 0.181018 0.771429 -0.159223
C262  C     C_R   0.282842 0.181016 0.228570 -0.159221
C263  C     C_R   0.282851 0.181015 0.771426 -0.159435
C264  C     C_R   0.717148 0.181018 0.228574 -0.159437
C265  C     C_R   0.717098 0.645908 0.271448 -0.178536
C266  C     C_R   0.282877 0.645908 0.728536 -0.180582
C267  C     C_R   0.282874 0.645909 0.271465 -0.180584
C268  C     C_R   0.717102 0.645909 0.728551 -0.178538
C269  C     C_R   0.217126 0.645909 0.771465 -0.180584
C270  C     C_R   0.782897 0.645909 0.228551 -0.178538
C271  C     C_R   0.782901 0.645908 0.771448 -0.178536
C272  C     C_R   0.217123 0.645908 0.228536 -0.180583
C273  C     C_R   0.217110 0.145907 0.271455 -0.178481
C274  C     C_R   0.782891 0.145909 0.728545 -0.178478
C275  C     C_R   0.782884 0.145910 0.271457 -0.180639
C276  C     C_R   0.217116 0.145908 0.728542 -0.180643
C277  C     C_R   0.717116 0.145910 0.771457 -0.180639
C278  C     C_R   0.282884 0.145908 0.228542 -0.180643
C279  C     C_R   0.282890 0.145907 0.771455 -0.178482
C280  C     C_R   0.717109 0.145909 0.228545 -0.178478
C281  C     C_R   0.749999 0.628015 0.250000 -0.014243
C282  C     C_R   0.250001 0.628015 0.750000 -0.012795
C283  C     C_R   0.249999 0.628015 0.250000 -0.012794
C284  C     C_R   0.750001 0.628015 0.750000 -0.014243
C285  C     C_R   0.249998 0.128015 0.249999 -0.013514
C286  C     C_R   0.750002 0.128016 0.750001 -0.013523
C287  C     C_R   0.749998 0.128016 0.250001 -0.013522
C288  C     C_R   0.250002 0.128015 0.749999 -0.013514
C289  C     C_R   0.749995 0.698557 0.249999 0.147568
C290  C     C_R   0.250004 0.698557 0.750001 0.148019
C291  C     C_R   0.249996 0.698557 0.250001 0.148019
C292  C     C_R   0.750004 0.698557 0.749999 0.147569
C293  C     C_R   0.249995 0.198555 0.249998 0.147799
C294  C     C_R   0.750005 0.198558 0.750002 0.147789
C295  C     C_R   0.749995 0.198558 0.250002 0.147790
C296  C     C_R   0.250005 0.198555 0.749998 0.147798
C297  C     C_1   0.749994 0.734579 0.249999 -0.066577
C298  C     C_1   0.250006 0.734579 0.750001 -0.066990
C299  C     C_1   0.249994 0.734579 0.250001 -0.066990
C300  C     C_1   0.750006 0.734579 0.749999 -0.066577
C301  C     C_1   0.249995 0.234577 0.249998 -0.066773
C302  C     C_1   0.750005 0.234581 0.750002 -0.066794
C303  C     C_1   0.749995 0.234581 0.250002 -0.066794
C304  C     C_1   0.250005 0.234577 0.749998 -0.066773
H1    H     H_    0.691578 0.694469 0.288078 0.142665
H2    H     H_    0.308379 0.694469 0.711893 0.142428
H3    H     H_    0.308371 0.694470 0.288109 0.142424
H4    H     H_    0.691586 0.694470 0.711920 0.142662
H5    H     H_    0.191629 0.694470 0.788109 0.142424
H6    H     H_    0.808414 0.694470 0.211920 0.142662
H7    H     H_    0.808422 0.694469 0.788078 0.142665
H8    H     H_    0.191621 0.694469 0.211893 0.142427
H9    H     H_    0.191599 0.194468 0.288092 0.142648
H10   H     H_    0.808402 0.194470 0.711909 0.142646
H11   H     H_    0.808392 0.194471 0.288095 0.142441
H12   H     H_    0.191609 0.194469 0.711904 0.142442
H13   H     H_    0.691608 0.194471 0.788095 0.142441
H14   H     H_    0.308391 0.194469 0.211904 0.142443
H15   H     H_    0.308401 0.194468 0.788092 0.142648
H16   H     H_    0.691598 0.194470 0.211909 0.142646
H17   H     H_    0.808265 0.039640 0.556043 0.157966
H18   H     H_    0.191735 0.039640 0.443957 0.157966
H19   H     H_    0.191710 0.039625 0.556043 0.158139
H20   H     H_    0.808290 0.039625 0.443957 0.158139
H21   H     H_    0.308289 0.039625 0.056043 0.158139
H22   H     H_    0.691711 0.039625 0.943957 0.158138
H23   H     H_    0.691734 0.039639 0.056043 0.157966
H24   H     H_    0.308265 0.039640 0.943957 0.157966
H25   H     H_    0.308297 0.539620 0.556043 0.158163
H26   H     H_    0.691744 0.539646 0.443957 0.157942
H27   H     H_    0.691744 0.539646 0.556043 0.157942
H28   H     H_    0.308298 0.539620 0.443956 0.158162
H29   H     H_    0.808256 0.539646 0.056043 0.157942
H30   H     H_    0.191702 0.539620 0.943956 0.158162
H31   H     H_    0.191702 0.539620 0.056043 0.158163
H32   H     H_    0.808256 0.539646 0.943957 0.157942
H33   H     H_    0.691346 0.632815 0.288235 0.176156
H34   H     H_    0.308611 0.632815 0.711736 0.174825
H35   H     H_    0.308608 0.632816 0.288264 0.174822
H36   H     H_    0.691349 0.632816 0.711765 0.176154
H37   H     H_    0.191392 0.632816 0.788264 0.174822
H38   H     H_    0.808651 0.632816 0.211765 0.176153
H39   H     H_    0.808654 0.632815 0.788235 0.176156
H40   H     H_    0.191389 0.632815 0.211736 0.174825
H41   H     H_    0.191367 0.132814 0.288249 0.176109
H42   H     H_    0.808634 0.132816 0.711752 0.176105
H43   H     H_    0.808628 0.132817 0.288250 0.174868
H44   H     H_    0.191373 0.132815 0.711749 0.174873
H45   H     H_    0.691372 0.132817 0.788250 0.174869
H46   H     H_    0.308627 0.132815 0.211749 0.174873
H47   H     H_    0.308633 0.132814 0.788249 0.176109
H48   H     H_    0.691366 0.132816 0.211752 0.176105
H49   H     H_    0.673805 0.804533 0.269468 0.165459
H50   H     H_    0.326192 0.804533 0.730527 0.165424
H51   H     H_    0.326177 0.804530 0.269484 0.165440
H52   H     H_    0.673824 0.804530 0.730514 0.165476
H53   H     H_    0.173820 0.804530 0.769479 0.165440
H54   H     H_    0.826183 0.804530 0.230526 0.165475
H55   H     H_    0.826188 0.804532 0.769481 0.165460
H56   H     H_    0.173811 0.804533 0.230522 0.165425
H57   H     H_    0.173886 0.304529 0.269603 0.165477
H58   H     H_    0.826256 0.304535 0.730638 0.165466
H59   H     H_    0.826247 0.304534 0.269369 0.165425
H60   H     H_    0.173895 0.304527 0.730391 0.165436
H61   H     H_    0.673751 0.304534 0.769364 0.165425
H62   H     H_    0.326108 0.304527 0.230395 0.165436
H63   H     H_    0.326111 0.304529 0.769606 0.165477
H64   H     H_    0.673747 0.304535 0.230634 0.165467
H65   H     H_    0.538810 0.477940 0.237278 0.134107
H66   H     H_    0.461204 0.487146 0.771906 0.133132
H67   H     H_    0.461204 0.487146 0.228094 0.133133
H68   H     H_    0.538810 0.477940 0.762722 0.134107
H69   H     H_    0.038796 0.487146 0.728094 0.133133
H70   H     H_    0.961190 0.477940 0.262722 0.134107
H71   H     H_    0.961190 0.477940 0.737278 0.134107
H72   H     H_    0.038796 0.487146 0.271906 0.133133
H73   H     H_    0.038810 0.977940 0.237278 0.134108
H74   H     H_    0.961190 0.977940 0.762722 0.134109
H75   H     H_    0.961204 0.987146 0.228094 0.133128
H76   H     H_    0.038796 0.987146 0.771906 0.133130
H77   H     H_    0.538796 0.987146 0.728094 0.133130
H78   H     H_    0.461204 0.987146 0.271906 0.133129
H79   H     H_    0.461190 0.977940 0.737278 0.134108
H80   H     H_    0.538810 0.977940 0.262722 0.134107
H81   H     H_    0.694453 0.961646 0.554292 0.169742
H82   H     H_    0.305548 0.961647 0.445708 0.169739
H83   H     H_    0.305567 0.961659 0.554292 0.169749
H84   H     H_    0.694433 0.961660 0.445708 0.169752
H85   H     H_    0.194434 0.961659 0.054292 0.169749
H86   H     H_    0.805566 0.961659 0.945708 0.169752
H87   H     H_    0.805549 0.961647 0.054292 0.169742
H88   H     H_    0.194452 0.961647 0.945708 0.169739
H89   H     H_    0.194429 0.461662 0.554292 0.169747
H90   H     H_    0.805542 0.461643 0.445708 0.169743
H91   H     H_    0.805542 0.461643 0.554292 0.169743
H92   H     H_    0.194429 0.461662 0.445708 0.169747
H93   H     H_    0.694458 0.461643 0.054292 0.169743
H94   H     H_    0.305571 0.461662 0.945708 0.169747
H95   H     H_    0.305571 0.461662 0.054292 0.169747
H96   H     H_    0.694458 0.461643 0.945708 0.169743
H97   H     H_    0.807437 0.039183 0.617614 0.200803
H98   H     H_    0.192563 0.039183 0.382385 0.200803
H99   H     H_    0.192538 0.039167 0.617615 0.201902
H100  H     H_    0.807463 0.039167 0.382385 0.201902
H101  H     H_    0.307462 0.039168 0.117615 0.201902
H102  H     H_    0.692538 0.039168 0.882385 0.201902
H103  H     H_    0.692562 0.039182 0.117614 0.200804
H104  H     H_    0.307438 0.039183 0.882385 0.200803
H105  H     H_    0.307468 0.539163 0.617615 0.201908
H106  H     H_    0.692570 0.539188 0.382386 0.200798
H107  H     H_    0.692570 0.539188 0.617614 0.200797
H108  H     H_    0.307469 0.539163 0.382385 0.201908
H109  H     H_    0.807429 0.539188 0.117614 0.200797
H110  H     H_    0.192532 0.539163 0.882385 0.201908
H111  H     H_    0.192531 0.539163 0.117615 0.201908
H112  H     H_    0.807430 0.539188 0.882386 0.200798
O1    O     O_3   0.750000 0.999950 0.250000 -0.523559
O2    O     O_3   0.250000 0.999950 0.750000 -0.523559
O3    O     O_3   0.250000 0.999950 0.250000 -0.523559
O4    O     O_3   0.750000 0.999950 0.750000 -0.523559
O5    O     O_3   0.250000 0.499950 0.250000 -0.523561
O6    O     O_3   0.750000 0.499950 0.750000 -0.523559
O7    O     O_3   0.750000 0.499950 0.250000 -0.523559
O8    O     O_3   0.250000 0.499950 0.750000 -0.523561
O9    O     O_R   0.635440 0.980340 0.269560 -0.639431
O10   O     O_R   0.364560 0.980340 0.730440 -0.639430
O11   O     O_R   0.364560 0.980340 0.269560 -0.639264
O12   O     O_R   0.635440 0.980340 0.730440 -0.639264
O13   O     O_R   0.135440 0.980340 0.769560 -0.639265
O14   O     O_R   0.864560 0.980340 0.230440 -0.639266
O15   O     O_R   0.864560 0.980340 0.769560 -0.639429
O16   O     O_R   0.135440 0.980340 0.230440 -0.639430
O17   O     O_R   0.135440 0.480340 0.269560 -0.639327
O18   O     O_R   0.864560 0.480340 0.730440 -0.639364
O19   O     O_R   0.864560 0.480340 0.269560 -0.639364
O20   O     O_R   0.135440 0.480340 0.730440 -0.639328
O21   O     O_R   0.635440 0.480340 0.769560 -0.639365
O22   O     O_R   0.364560 0.480340 0.230440 -0.639329
O23   O     O_R   0.364560 0.480340 0.769560 -0.639327
O24   O     O_R   0.635440 0.480340 0.230440 -0.639363
O25   O     O_R   0.719960 0.019580 0.175120 -0.649960
O26   O     O_R   0.280040 0.019580 0.824880 -0.649960
O27   O     O_R   0.280040 0.019580 0.175120 -0.647197
O28   O     O_R   0.719960 0.019580 0.824880 -0.647197
O29   O     O_R   0.219960 0.019580 0.675120 -0.647197
O30   O     O_R   0.780040 0.019580 0.324880 -0.647197
O31   O     O_R   0.780040 0.019580 0.675120 -0.649960
O32   O     O_R   0.219960 0.019580 0.324880 -0.649960
O33   O     O_R   0.219960 0.519580 0.175120 -0.647253
O34   O     O_R   0.780040 0.519580 0.824880 -0.649904
O35   O     O_R   0.780040 0.519580 0.175120 -0.649905
O36   O     O_R   0.219960 0.519580 0.824880 -0.647253
O37   O     O_R   0.719960 0.519580 0.675120 -0.649905
O38   O     O_R   0.280040 0.519580 0.324880 -0.647253
O39   O     O_R   0.280040 0.519580 0.675120 -0.647253
O40   O     O_R   0.719960 0.519580 0.324880 -0.649904
O41   O     O_R   0.719970 0.074780 0.230320 -0.637327
O42   O     O_R   0.280030 0.074780 0.769680 -0.637331
O43   O     O_R   0.280030 0.074780 0.230320 -0.640319
O44   O     O_R   0.719970 0.074780 0.769680 -0.640314
O45   O     O_R   0.219970 0.074780 0.730320 -0.640319
O46   O     O_R   0.780030 0.074780 0.269680 -0.640314
O47   O     O_R   0.780030 0.074780 0.730320 -0.637326
O48   O     O_R   0.219970 0.074780 0.269680 -0.637331
O49   O     O_R   0.219970 0.574780 0.230320 -0.640037
O50   O     O_R   0.780030 0.574780 0.769680 -0.637610
O51   O     O_R   0.780030 0.574780 0.230320 -0.637608
O52   O     O_R   0.219970 0.574780 0.769680 -0.640035
O53   O     O_R   0.719970 0.574780 0.730320 -0.637608
O54   O     O_R   0.280030 0.574780 0.269680 -0.640036
O55   O     O_R   0.280030 0.574780 0.730320 -0.640036
O56   O     O_R   0.719970 0.574780 0.269680 -0.637609
O57   O     O_R   0.719960 0.925120 0.269570 -0.606037
O58   O     O_R   0.280040 0.925120 0.730430 -0.606033
O59   O     O_R   0.280040 0.925120 0.269570 -0.605789
O60   O     O_R   0.719960 0.925120 0.730430 -0.605788
O61   O     O_R   0.219960 0.925120 0.769570 -0.605792
O62   O     O_R   0.780040 0.925120 0.230430 -0.605795
O63   O     O_R   0.780040 0.925120 0.769570 -0.606029
O64   O     O_R   0.219960 0.925120 0.230430 -0.606031
O65   O     O_R   0.219960 0.425120 0.269570 -0.605643
O66   O     O_R   0.780040 0.425120 0.730430 -0.606173
O67   O     O_R   0.780040 0.425120 0.269570 -0.606171
O68   O     O_R   0.219960 0.425120 0.730430 -0.605641
O69   O     O_R   0.719960 0.425120 0.769570 -0.606174
O70   O     O_R   0.280040 0.425120 0.230430 -0.605643
O71   O     O_R   0.280040 0.425120 0.769570 -0.605641
O72   O     O_R   0.719960 0.425120 0.230430 -0.606171
O73   O     O_R   0.780030 0.980340 0.175130 -0.579865
O74   O     O_R   0.219970 0.980340 0.824870 -0.579865
O75   O     O_R   0.219970 0.980340 0.175130 -0.579786
O76   O     O_R   0.780030 0.980340 0.824870 -0.579786
O77   O     O_R   0.280030 0.980340 0.675130 -0.579786
O78   O     O_R   0.719970 0.980340 0.324870 -0.579785
O79   O     O_R   0.719970 0.980340 0.675130 -0.579866
O80   O     O_R   0.280030 0.980340 0.324870 -0.579866
O81   O     O_R   0.280030 0.480340 0.175130 -0.580155
O82   O     O_R   0.719970 0.480340 0.824870 -0.579497
O83   O     O_R   0.719970 0.480340 0.175130 -0.579498
O84   O     O_R   0.280030 0.480340 0.824870 -0.580155
O85   O     O_R   0.780030 0.480340 0.675130 -0.579498
O86   O     O_R   0.219970 0.480340 0.324870 -0.580155
O87   O     O_R   0.219970 0.480340 0.675130 -0.580155
O88   O     O_R   0.780030 0.480340 0.324870 -0.579497
O89   O     O_R   0.635440 0.019580 0.230320 -0.570107
O90   O     O_R   0.364560 0.019580 0.769680 -0.570107
O91   O     O_R   0.364560 0.019580 0.230320 -0.570461
O92   O     O_R   0.635440 0.019580 0.769680 -0.570461
O93   O     O_R   0.135440 0.019580 0.730320 -0.570461
O94   O     O_R   0.864560 0.019580 0.269680 -0.570461
O95   O     O_R   0.864560 0.019580 0.730320 -0.570107
O96   O     O_R   0.135440 0.019580 0.269680 -0.570107
O97   O     O_R   0.135440 0.519580 0.230320 -0.570369
O98   O     O_R   0.864560 0.519580 0.769680 -0.570199
O99   O     O_R   0.864560 0.519580 0.230320 -0.570199
O100  O     O_R   0.135440 0.519580 0.769680 -0.570369
O101  O     O_R   0.635440 0.519580 0.730320 -0.570199
O102  O     O_R   0.364560 0.519580 0.269680 -0.570369
O103  O     O_R   0.364560 0.519580 0.730320 -0.570369
O104  O     O_R   0.635440 0.519580 0.269680 -0.570199
Zn1   Zn    Zn3+2 0.792910 0.971920 0.221920 1.023840
Zn2   Zn    Zn3+2 0.207090 0.971920 0.778080 1.023837
Zn3   Zn    Zn3+2 0.207090 0.971920 0.221920 1.024561
Zn4   Zn    Zn3+2 0.792910 0.971920 0.778080 1.024564
Zn5   Zn    Zn3+2 0.292910 0.971920 0.721920 1.024562
Zn6   Zn    Zn3+2 0.707090 0.971920 0.278080 1.024565
Zn7   Zn    Zn3+2 0.707090 0.971920 0.721920 1.023839
Zn8   Zn    Zn3+2 0.292910 0.971920 0.278080 1.023836
Zn9   Zn    Zn3+2 0.292910 0.471920 0.221920 1.024538
Zn10  Zn    Zn3+2 0.707090 0.471920 0.778080 1.023862
Zn11  Zn    Zn3+2 0.707090 0.471920 0.221920 1.023862
Zn12  Zn    Zn3+2 0.292910 0.471920 0.778080 1.024537
Zn13  Zn    Zn3+2 0.792910 0.471920 0.721920 1.023863
Zn14  Zn    Zn3+2 0.207090 0.471920 0.278080 1.024538
Zn15  Zn    Zn3+2 0.207090 0.471920 0.721920 1.024537
Zn16  Zn    Zn3+2 0.792910 0.471920 0.278080 1.023862
Zn17  Zn    Zn3+2 0.707090 0.027980 0.221910 1.008733
Zn18  Zn    Zn3+2 0.292910 0.027980 0.778090 1.008732
Zn19  Zn    Zn3+2 0.292910 0.027980 0.221910 1.009364
Zn20  Zn    Zn3+2 0.707090 0.027980 0.778090 1.009364
Zn21  Zn    Zn3+2 0.207090 0.027980 0.721910 1.009364
Zn22  Zn    Zn3+2 0.792910 0.027980 0.278090 1.009365
Zn23  Zn    Zn3+2 0.792910 0.027980 0.721910 1.008732
Zn24  Zn    Zn3+2 0.207090 0.027980 0.278090 1.008731
Zn25  Zn    Zn3+2 0.207090 0.527980 0.221910 1.008640
Zn26  Zn    Zn3+2 0.792910 0.527980 0.778090 1.009456
Zn27  Zn    Zn3+2 0.792910 0.527980 0.221910 1.009455
Zn28  Zn    Zn3+2 0.207090 0.527980 0.778090 1.008639
Zn29  Zn    Zn3+2 0.707090 0.527980 0.721910 1.009455
Zn30  Zn    Zn3+2 0.292910 0.527980 0.278090 1.008639
Zn31  Zn    Zn3+2 0.292910 0.527980 0.721910 1.008640
Zn32  Zn    Zn3+2 0.707090 0.527980 0.278090 1.009456
O105  O     O_3   0.663684 0.870495 0.272220 -0.588548
C305  C     C_3   0.658000 0.867253 0.307369 -0.184702
H113  H     H_    0.692906 0.875510 0.321033 0.167895
H114  H     H_    0.647854 0.841051 0.314497 0.133676
H115  H     H_    0.626293 0.883780 0.315591 0.204149
O106  O     O_3   0.336313 0.870495 0.727775 -0.588546
C306  C     C_3   0.341991 0.867253 0.692625 -0.184724
H116  H     H_    0.307083 0.875510 0.678964 0.167889
H117  H     H_    0.352135 0.841051 0.685497 0.133655
H118  H     H_    0.373697 0.883780 0.684401 0.204157
O107  O     O_3   0.336301 0.870491 0.272240 -0.588072
C307  C     C_3   0.341963 0.867251 0.307391 -0.184442
H119  H     H_    0.352097 0.841048 0.314523 0.133533
H120  H     H_    0.307051 0.875513 0.321045 0.167636
H121  H     H_    0.373669 0.883775 0.315620 0.204271
O108  O     O_3   0.663701 0.870491 0.727757 -0.588072
C308  C     C_3   0.658041 0.867251 0.692606 -0.184411
H122  H     H_    0.647909 0.841048 0.685473 0.133552
H123  H     H_    0.692955 0.875514 0.678953 0.167637
H124  H     H_    0.626336 0.883775 0.684376 0.204270
O109  O     O_3   0.163696 0.870491 0.772234 -0.588077
C309  C     C_3   0.158027 0.867250 0.807384 -0.184442
H125  H     H_    0.192938 0.875511 0.821042 0.167637
H126  H     H_    0.147891 0.841048 0.814515 0.133534
H127  H     H_    0.126321 0.883775 0.815611 0.204268
O110  O     O_3   0.836307 0.870491 0.227771 -0.588078
C310  C     C_3   0.841982 0.867250 0.192621 -0.184424
H128  H     H_    0.807074 0.875510 0.178961 0.167643
H129  H     H_    0.852121 0.841047 0.185492 0.133557
H130  H     H_    0.873690 0.883775 0.184396 0.204260
O111  O     O_3   0.836308 0.870494 0.772233 -0.588541
C311  C     C_3   0.841977 0.867254 0.807384 -0.184692
H131  H     H_    0.852117 0.841051 0.814514 0.133673
H132  H     H_    0.807066 0.875513 0.821041 0.167889
H133  H     H_    0.873682 0.883780 0.815611 0.204159
O112  O     O_3   0.163690 0.870494 0.227769 -0.588542
C312  C     C_3   0.158019 0.867254 0.192619 -0.184722
H134  H     H_    0.147878 0.841052 0.185489 0.133652
H135  H     H_    0.192929 0.875513 0.178961 0.167889
H136  H     H_    0.126313 0.883780 0.184393 0.204161
O113  O     O_3   0.163775 0.370486 0.272377 -0.588062
C313  C     C_3   0.158261 0.367258 0.307539 -0.184250
H137  H     H_    0.193224 0.375536 0.321127 0.167649
H138  H     H_    0.148176 0.341054 0.314700 0.133507
H139  H     H_    0.126577 0.383775 0.315819 0.204339
O114  O     O_3   0.836384 0.370501 0.727902 -0.588542
C314  C     C_3   0.842198 0.367248 0.692763 -0.184878
H140  H     H_    0.807336 0.375489 0.679040 0.167863
H141  H     H_    0.852388 0.341047 0.685661 0.133707
H142  H     H_    0.873923 0.383782 0.684586 0.204098
O115  O     O_3   0.836378 0.370499 0.272104 -0.588550
C315  C     C_3   0.842187 0.367248 0.307244 -0.184868
H143  H     H_    0.852372 0.341046 0.314348 0.133695
H144  H     H_    0.807323 0.375492 0.320963 0.167870
H145  H     H_    0.873912 0.383780 0.315422 0.204098
O116  O     O_3   0.163780 0.370484 0.727618 -0.588071
C316  C     C_3   0.158271 0.367257 0.692455 -0.184244
H146  H     H_    0.148190 0.341053 0.685292 0.133497
H147  H     H_    0.193235 0.375538 0.678870 0.167657
H148  H     H_    0.126587 0.383773 0.684174 0.204339
O117  O     O_3   0.663619 0.370499 0.772099 -0.588552
C317  C     C_3   0.657805 0.367247 0.807238 -0.184872
H149  H     H_    0.692667 0.375491 0.820960 0.167872
H150  H     H_    0.647618 0.341046 0.814341 0.133698
H151  H     H_    0.626079 0.383780 0.815415 0.204094
O118  O     O_3   0.336223 0.370484 0.227622 -0.588072
C318  C     C_3   0.341737 0.367256 0.192460 -0.184249
H152  H     H_    0.306774 0.375536 0.178872 0.167658
H153  H     H_    0.351820 0.341053 0.185298 0.133500
H154  H     H_    0.373421 0.383773 0.184180 0.204336
O119  O     O_3   0.336223 0.370486 0.772381 -0.588059
C319  C     C_3   0.341732 0.367258 0.807544 -0.184249
H155  H     H_    0.351815 0.341054 0.814706 0.133506
H156  H     H_    0.306767 0.375537 0.821129 0.167648
H157  H     H_    0.373415 0.383774 0.815825 0.204342
O120  O     O_3   0.663619 0.370500 0.227897 -0.588539
C320  C     C_3   0.657811 0.367248 0.192757 -0.184873
H158  H     H_    0.647624 0.341047 0.185654 0.133704
H159  H     H_    0.692674 0.375492 0.179037 0.167862
H160  H     H_    0.626086 0.383782 0.184578 0.204101
F1    F     F_    0.550820 0.545175 0.287261 -0.592112
F2    F     F_    0.449163 0.536903 0.704506 -0.591622
F3    F     F_    0.449163 0.536903 0.295494 -0.591622
F4    F     F_    0.550820 0.545175 0.712738 -0.592112
F5    F     F_    0.050837 0.536903 0.795494 -0.591622
F6    F     F_    0.949180 0.545175 0.212739 -0.592112
F7    F     F_    0.949180 0.545175 0.787261 -0.592112
F8    F     F_    0.050836 0.536902 0.204506 -0.591623
F9    F     F_    0.050820 0.045174 0.287262 -0.592089
F10   F     F_    0.949180 0.045174 0.712738 -0.592089
F11   F     F_    0.949163 0.036903 0.295494 -0.591642
F12   F     F_    0.050837 0.036903 0.704506 -0.591643
F13   F     F_    0.550836 0.036903 0.795494 -0.591642
F14   F     F_    0.449163 0.036903 0.204506 -0.591642
F15   F     F_    0.449180 0.045174 0.787261 -0.592089
F16   F     F_    0.550820 0.045174 0.212738 -0.592089
F17   F     F_    0.686450 0.956192 0.618966 -0.654559
F18   F     F_    0.313550 0.956192 0.381034 -0.654562
F19   F     F_    0.313572 0.956207 0.618966 -0.654356
F20   F     F_    0.686427 0.956207 0.381034 -0.654351
F21   F     F_    0.186428 0.956206 0.118966 -0.654359
F22   F     F_    0.813572 0.956206 0.881034 -0.654356
F23   F     F_    0.813551 0.956193 0.118966 -0.654554
F24   F     F_    0.186450 0.956193 0.881034 -0.654560
F25   F     F_    0.186421 0.456211 0.618966 -0.654540
F26   F     F_    0.813541 0.456187 0.381034 -0.654381
F27   F     F_    0.813541 0.456187 0.618966 -0.654379
F28   F     F_    0.186420 0.456211 0.381034 -0.654539
F29   F     F_    0.686459 0.456187 0.118966 -0.654381
F30   F     F_    0.313579 0.456211 0.881034 -0.654541
F31   F     F_    0.313579 0.456211 0.118966 -0.654538
F32   F     F_    0.686459 0.456187 0.881034 -0.654379

loop_
_geom_bond_atom_site_label_1
_geom_bond_atom_site_label_2
_ccdc_geom_bond_type
O6    Zn29  S    
C117  H93   S    
C314  H140  S    
O100  Zn28  S    
C40   C71   A    
C165  O37   A    
C244  O60   A    
C251  C291  A    
O105  C305  S    
C48   O112  S    
C26   C66   A    
C143  C175  A    
C117  C133  A    
C42   C58   A    
O28   Zn20  S    
C235  O48   A    
C161  O33   A    
C179  C195  A    
C312  H134  S    
C239  C281  S    
O12   Zn7   S    
C238  O50   A    
C177  C193  A    
C2    O10   A    
C241  O57   A    
C12   O20   A    
O93   Zn21  S    
O29   Zn21  S    
C192  H24   S    
O35   Zn27  S    
C276  C288  A    
C53   O117  S    
O1    Zn17  S    
C130  C146  A    
O118  C318  S    
C164  O84   A    
C123  F19   S    
C225  C228  T    
C273  C285  A    
O108  C308  S    
O4    Zn20  S    
C317  H151  S    
C121  F17   S    
C98   H74   S    
C248  O68   A    
O6    Zn10  S    
C4    O12   A    
C81   C83   S    
C5    O13   A    
C190  C206  A    
O86   Zn14  S    
C91   H67   S    
C151  C161  S    
C263  C296  A    
C191  H23   S    
C131  F27   S    
C163  O35   A    
C234  O42   A    
C197  H29   S    
O52   Zn28  S    
C307  H121  S    
C33   C69   A    
O53   Zn29  S    
C199  H31   S    
C38   C69   A    
C275  C287  A    
C16   C89   S    
O40   Zn32  S    
C111  H87   S    
C305  H114  S    
C247  O72   A    
C108  C124  A    
O21   Zn10  S    
C136  C152  A    
C272  C283  A    
O46   Zn22  S    
O37   Zn29  S    
C114  H90   S    
O68   Zn15  S    
C108  H84   S    
C252  H4    S    
C85   C87   S    
C265  C281  A    
O107  C307  S    
C274  H42   S    
O82   Zn10  S    
C25   C41   A    
O62   Zn1   S    
O27   Zn19  S    
O114  C314  S    
C308  H124  S    
C12   O100  A    
C267  H35   S    
C28   C44   A    
C29   C45   A    
C305  H115  S    
C194  H26   S    
O15   Zn4   S    
C309  H125  S    
C92   H68   S    
C5    C100  S    
C249  C289  A    
O10   Zn5   S    
C10   O98   A    
C262  C293  A    
C133  C149  A    
C127  C143  A    
C117  C213  A    
C128  C144  A    
C112  C208  A    
O63   Zn4   S    
C87   C103  D    
O4    Zn7   S    
C242  O58   A    
C82   C84   S    
C2    O90   A    
C35   C51   A    
C239  O51   A    
C12   C93   S    
C254  H6    S    
C38   H62   S    
O41   Zn17  S    
C198  C214  A    
C251  C267  A    
C213  C229  S    
C271  H39   S    
C312  H136  S    
C157  O77   A    
O106  C306  S    
C168  O88   A    
C161  O81   A    
C20   C68   S    
O31   Zn23  S    
C311  H131  S    
C5    O93   A    
C15   O23   A    
C249  H1    S    
C258  H10   S    
O5    Zn30  S    
C54   C61   A    
C162  O34   A    
C162  O82   A    
C63   C247  S    
C114  C130  A    
C13   O21   A    
O3    Zn8   S    
C289  C297  S    
C28   H52   S    
C320  H159  S    
C280  C287  A    
C247  O67   A    
C76   C92   D    
C245  O65   A    
C78   C94   D    
C126  F22   S    
C86   C88   S    
C180  C196  A    
C144  C154  S    
O88   Zn16  S    
C143  C153  S    
C73   C89   D    
C10   O18   A    
C138  C160  S    
C165  O85   A    
C235  O43   A    
C160  O32   A    
C251  H3    S    
C313  H137  S    
C240  O55   A    
O45   Zn21  S    
O76   Zn4   S    
O104  Zn32  S    
O5    Zn9   S    
C33   C49   A    
O8    Zn15  S    
C207  C223  S    
C196  C212  A    
C130  F26   S    
C155  O75   A    
C181  C197  A    
O64   Zn3   S    
C316  H146  S    
C153  O73   A    
C200  H32   S    
C239  O56   A    
C83   F11   S    
C276  H44   S    
C186  C202  A    
C307  H120  S    
C278  H46   S    
C74   C76   S    
C26   H50   S    
C199  C215  A    
C248  O71   A    
C28   C68   A    
C46   O110  S    
C229  C232  T    
C257  H9    S    
O92   Zn20  S    
O47   Zn23  S    
C6    C99   S    
C135  C151  A    
C180  H108  S    
O95   Zn23  S    
C238  O53   A    
C255  H7    S    
O120  C320  S    
C146  C178  A    
O81   Zn9   S    
C58   C242  S    
O60   Zn7   S    
C44   O108  S    
O51   Zn27  S    
C147  C165  S    
C140  C158  S    
C181  H109  S    
O55   Zn31  S    
C125  C141  A    
C118  H94   S    
C116  C132  A    
C57   C241  S    
O102  Zn30  S    
C131  C147  A    
C274  C286  A    
C264  C295  A    
O30   Zn22  S    
O6    Zn13  S    
C263  C279  A    
C36   C52   A    
C43   C59   A    
C37   C53   A    
C266  C282  A    
O9    Zn6   S    
C240  C282  S    
C210  C226  S    
C3    O11   A    
O11   Zn8   S    
C311  H133  S    
C167  O87   A    
C1    O9    A    
C319  H155  S    
C88   C104  D    
C175  H103  S    
C306  H118  S    
C176  H104  S    
O75   Zn3   S    
C157  O29   A    
C294  C302  S    
C16   O104  A    
C87   F15   S    
C275  H43   S    
C40   H64   S    
C125  F21   S    
C159  O79   A    
C191  C207  A    
C187  H19   S    
C85   F13   S    
C188  C204  A    
C21   C69   S    
C212  C228  S    
C109  C205  A    
C107  C203  A    
C147  C179  A    
C194  C210  A    
C119  H95   S    
C105  C201  A    
C120  H96   S    
O99   Zn27  S    
C47   O111  S    
O116  C316  S    
C144  C176  A    
C56   O120  S    
O91   Zn19  S    
C317  H150  S    
C128  F24   S    
C27   H51   S    
C317  H149  S    
C178  H106  S    
C32   C67   A    
C172  H100  S    
C110  C126  A    
C173  H101  S    
C242  O61   A    
C314  H142  S    
C171  H99   S    
C293  C301  S    
C64   C248  S    
C86   C102  D    
C111  C207  A    
C316  H148  S    
C169  H97   S    
C6    O94   A    
C48   C59   A    
C272  H40   S    
O7    Zn32  S    
C296  C304  S    
C79   F7    S    
O3    Zn24  S    
C14   O102  A    
C309  H127  S    
O49   Zn25  S    
C30   C46   A    
C33   H57   S    
C7    O15   A    
C18   C298  T    
C151  C183  A    
C18   C66   S    
C150  C164  S    
C250  C290  A    
C115  C211  A    
C310  H130  S    
C142  C156  S    
C202  C218  S    
C113  C209  A    
C233  O46   A    
O70   Zn9   S    
C320  H158  S    
C111  C127  A    
C43   O107  S    
C277  H45   S    
C10   C95   S    
C206  C222  S    
C74   C90   D    
C45   O109  S    
C291  C299  S    
C200  C216  A    
C279  H47   S    
C14   C91   S    
C30   C65   A    
C27   C67   A    
C35   C71   A    
C260  C276  A    
O43   Zn19  S    
C245  O70   A    
C261  C277  A    
C107  H83   S    
C226  C227  T    
C269  H37   S    
O84   Zn12  S    
C17   C297  T    
C148  C166  S    
C31   C47   A    
C95   H71   S    
O25   Zn17  S    
C8    O96   A    
C319  H157  S    
O80   Zn8   S    
C36   C72   A    
C265  H33   S    
C100  H76   S    
C31   H55   S    
C166  O38   A    
O2    Zn5   S    
O117  C317  S    
O101  Zn29  S    
C196  H28   S    
C82   C98   D    
C253  C290  A    
C290  C298  S    
C107  C123  A    
O5    Zn14  S    
O32   Zn24  S    
C85   C101  D    
C150  C182  A    
O1    Zn22  S    
C217  C220  T    
C178  C194  A    
C243  O59   A    
C153  O25   A    
C158  O78   A    
C236  O47   A    
C237  O49   A    
C295  C303  S    
C278  C285  A    
C184  C200  A    
C221  C224  T    
C280  H48   S    
C238  C284  S    
C308  H123  S    
C258  C274  A    
O7    Zn27  S    
C134  F30   S    
C187  C203  A    
C75   F3    S    
C9    O17   A    
C188  H20   S    
C99   H75   S    
C185  C201  A    
O78   Zn6   S    
C309  H126  S    
C160  O80   A    
C174  H102  S    
C96   H72   S    
C39   C55   A    
C260  C296  A    
C189  C205  A    
C40   C56   A    
C182  C198  A    
C190  H22   S    
C16   O24   A    
C19   C67   S    
C82   F10   S    
C34   C70   A    
C122  C138  A    
C233  O41   A    
C170  H98   S    
C257  C293  A    
O3    Zn3   S    
O98   Zn26  S    
C77   C79   S    
C88   F16   S    
C259  C295  A    
C148  C180  A    
C83   C99   D    
C37   C70   A    
C149  C181  A    
C32   C48   A    
C30   H54   S    
C209  C225  S    
O20   Zn15  S    
C319  H156  S    
C259  C275  A    
O90   Zn18  S    
O94   Zn22  S    
C31   C68   A    
C45   C58   A    
O69   Zn10  S    
C60   C244  S    
O58   Zn5   S    
C49   C61   A    
C137  C159  S    
C29   H53   S    
C310  H128  S    
C76   F4    S    
C23   C71   S    
C51   C63   A    
C250  C266  A    
C311  H132  S    
C52   C64   A    
C320  H160  S    
O33   Zn25  S    
C141  C155  S    
C255  C271  A    
C13   O101  A    
C266  H34   S    
C119  C135  A    
C252  C292  A    
O66   Zn13  S    
C84   C100  D    
C106  C122  A    
O34   Zn26  S    
C79   C95   D    
C36   H60   S    
O4    Zn4   S    
C90   H66   S    
O44   Zn20  S    
C38   C54   A    
C267  C283  A    
C81   F9    S    
C218  C219  T    
C4    C101  S    
C170  C186  A    
C261  H13   S    
C184  H112  S    
C9    C96   S    
C270  H38   S    
O89   Zn17  S    
C174  C190  A    
O14   Zn1   S    
C11   C94   S    
C84   F12   S    
C3    O91   A    
O8    Zn28  S    
C132  F28   S    
C313  H138  S    
C158  O30   A    
C159  O31   A    
C318  H154  S    
C1    O89   A    
C269  C282  A    
C292  C300  S    
C208  C224  S    
C305  H113  S    
C214  C230  S    
C197  C213  A    
O42   Zn18  S    
C145  C167  S    
C250  H2    S    
C146  C168  S    
C11   O19   A    
C167  O39   A    
C22   C302  T    
C41   O105  S    
C124  C140  A    
C252  C268  A    
C312  H135  S    
C101  H77   S    
C32   H56   S    
C163  O83   A    
C203  C219  S    
O1    Zn6   S    
C313  H139  S    
C103  H79   S    
C37   H61   S    
O79   Zn7   S    
C7    O95   A    
C139  C171  A    
C39   H63   S    
C41   C57   A    
C116  C212  A    
C246  O66   A    
O18   Zn13  S    
C179  H107  S    
O23   Zn12  S    
C233  C287  S    
C93   H69   S    
C2    C103  S    
C44   C60   A    
C234  C288  S    
C112  H88   S    
C177  H105  S    
C315  H143  S    
C14   O22   A    
C126  C142  A    
O71   Zn12  S    
C52   O116  S    
C78   C80   S    
C26   C42   A    
O87   Zn15  S    
C230  C231  T    
C89   H65   S    
C112  C128  A    
C176  C192  A    
C50   O114  S    
O73   Zn1   S    
C256  H8    S    
C166  O86   A    
O2    Zn21  S    
C27   C43   A    
O6    Zn26  S    
C4    O92   A    
C108  C204  A    
C189  H21   S    
C25   C65   A    
O103  Zn31  S    
O77   Zn5   S    
C6    O14   A    
C35   H59   S    
C116  H92   S    
C80   F8    S    
C61   C245  S    
O7    Zn16  S    
C152  C162  S    
C185  H17   S    
C155  O27   A    
C134  C150  A    
C119  C215  A    
C7    C98   S    
C123  C139  A    
O50   Zn26  S    
C138  C170  A    
C318  H153  S    
O119  C319  S    
C104  H80   S    
C254  C270  A    
C154  O74   A    
C183  H111  S    
O113  C313  S    
C271  C284  A    
O97   Zn25  S    
C142  C174  A    
C115  C131  A    
C20   C300  T    
C24   C304  T    
C256  C272  A    
C62   C246  S    
C268  H36   S    
C113  C129  A    
C268  C284  A    
C215  C231  S    
C25   H49   S    
C115  H91   S    
C237  O54   A    
C175  C191  A    
C113  H89   S    
O48   Zn24  S    
C121  C137  A    
O57   Zn6   S    
C262  C278  A    
C243  O64   A    
O96   Zn24  S    
C59   C243  S    
O59   Zn8   S    
C42   O106  S    
C49   O113  S    
C106  H82   S    
O61   Zn2   S    
O16   Zn3   S    
C235  C285  S    
C47   C60   A    
O36   Zn28  S    
C86   F14   S    
C139  C157  S    
O1    Zn1   S    
O56   Zn32  S    
C110  H86   S    
C204  C220  S    
C318  H152  S    
C164  O36   A    
C149  C163  S    
C152  C184  A    
C254  C289  A    
O26   Zn18  S    
O67   Zn16  S    
C137  C169  A    
C51   O115  S    
O24   Zn11  S    
C156  O28   A    
O110  C310  S    
C306  H117  S    
C140  C172  A    
C211  C227  S    
C261  C294  A    
C141  C173  A    
C94   H70   S    
O72   Zn11  S    
C260  H12   S    
C198  H30   S    
C222  C223  T    
C156  O76   A    
C315  H144  S    
O13   Zn2   S    
C136  F32   S    
O2    Zn18  S    
C24   C72   S    
C34   C50   A    
C15   O103  A    
C54   O118  S    
C253  H5    S    
C132  C148  A    
C193  H25   S    
O112  C312  S    
C122  F18   S    
C118  C214  A    
O7    Zn11  S    
O115  C315  S    
C120  C136  A    
C246  O69   A    
C102  H78   S    
C109  H85   S    
C173  C189  A    
C186  H18   S    
C315  H145  S    
C183  C199  A    
C201  C217  S    
C310  H129  S    
C34   H58   S    
C8    C97   S    
C195  C211  A    
C255  C292  A    
C9    O97   A    
C106  C202  A    
C53   C62   A    
C258  C294  A    
C193  C209  A    
C306  H116  S    
O54   Zn30  S    
C133  F29   S    
C39   C72   A    
C263  H15   S    
C55   C64   A    
C244  O63   A    
C8    O16   A    
C56   C63   A    
C105  C121  A    
C110  C206  A    
O38   Zn30  S    
C127  F23   S    
C154  O26   A    
C1    C104  S    
C236  O44   A    
O17   Zn14  S    
C264  H16   S    
O22   Zn9   S    
C195  H27   S    
C3    C102  S    
C109  C125  A    
C17   C65   S    
C74   F2    S    
O19   Zn16  S    
C192  C208  A    
C73   F1    S    
C46   C57   A    
C11   O99   A    
C50   C62   A    
C241  O62   A    
C80   C96   D    
C182  H110  S    
C73   C75   S    
C249  C265  A    
C78   F6    S    
O83   Zn11  S    
C253  C269  A    
C77   F5    S    
C307  H119  S    
C77   C93   D    
O5    Zn25  S    
O2    Zn2   S    
C262  H14   S    
O8    Zn31  S    
C97   H73   S    
C22   C70   S    
O4    Zn23  S    
C55   O119  S    
C129  F25   S    
C124  F20   S    
C168  O40   A    
O3    Zn19  S    
O39   Zn31  S    
C118  C134  A    
C105  H81   S    
C75   C91   D    
C120  C216  A    
C277  C286  A    
C257  C273  A    
C171  C187  A    
C279  C288  A    
C114  C210  A    
C234  O45   A    
C314  H141  S    
C316  H147  S    
C169  C185  A    
O111  C311  S    
C13   C92   S    
C15   C90   S    
O74   Zn2   S    
C308  H122  S    
C81   C97   D    
C172  C188  A    
C135  F31   S    
C240  O52   A    
C205  C221  S    
C264  C280  A    
C19   C299  T    
C21   C301  T    
C129  C145  A    
C256  C291  A    
C270  C281  A    
O109  C309  S    
C237  C283  S    
C23   C303  T    
O8    Zn12  S    
O65   Zn14  S    
C29   C66   A    
C273  H41   S    
C236  C286  S    
C145  C177  A    
C216  C232  S    
O85   Zn13  S    
C259  H11   S    
