data_mof_unit_35171.cif
_audit_creation_date              2012-12-10T17:10:54-0500
_audit_creation_method            fapswitch 2.2
_symmetry_space_group_name_H-M    P1
_symmetry_Int_Tables_number       1
_space_group_crystal_system       triclinic
_cell_length_a                    18.270798
_cell_length_b                    18.213773
_cell_length_c                    18.357254
_cell_angle_alpha                 90.254609
_cell_angle_beta                  119.890207
_cell_angle_gamma                 119.896752
_cell_volume                      4323.93728171

loop_
_atom_site_label
_atom_site_type_symbol
_atom_type_description
_atom_site_fract_x
_atom_site_fract_y
_atom_site_fract_z
_atom_type_partial_charge
C1    C     C_R   0.001873 0.861575 0.641562 0.849418
C2    C     C_R   0.942504 0.368526 0.259223 -0.203495
C3    C     C_R   0.970564 0.309863 0.254506 0.021867
C4    C     C_R   0.999694 0.140203 0.360401 0.829971
C5    C     C_R   0.969739 0.254952 0.308647 -0.000753
C6    C     C_R   0.998760 0.196777 0.304679 -0.132542
C7    C     C_R   0.026106 0.191475 0.246301 0.060866
C8    C     C_R   0.017697 0.240188 0.187113 0.431223
C9    C     C_R   0.995987 0.302663 0.194871 -0.215172
C10   C     C_R   0.606691 0.694115 0.394785 -0.259831
C11   C     C_R   0.552139 0.618715 0.412370 -0.207404
C12   C     C_3   0.104429 0.246811 0.795592 0.041232
C13   C     C_R   0.444470 0.565532 0.359822 0.527861
C14   C     C_R   0.391191 0.586115 0.286488 -0.294023
C15   C     C_R   0.444734 0.663944 0.269074 0.041085
C16   C     C_R   0.280042 0.140013 0.637614 0.786556
C17   C     C_R   0.554332 0.719053 0.324234 0.098988
C18   C     C_R   0.607917 0.795018 0.304342 -0.051327
C19   C     C_R   0.553721 0.811586 0.228194 -0.209172
C20   C     C_R   0.447044 0.757387 0.174122 -0.222907
C21   C     C_R   0.391972 0.686137 0.195594 -0.042199
C22   C     C_R   0.018569 0.913657 0.802711 -0.194567
C23   C     C_3   0.000851 0.198598 0.700136 0.156387
C24   C     C_R   0.015871 0.933767 0.874115 -0.149622
C25   C     C_R   0.007306 0.877208 0.924572 0.241034
C26   C     C_R   0.005467 0.801634 0.905060 -0.173850
C27   C     C_R   0.006349 0.778812 0.831685 0.042593
C28   C     C_R   0.720134 0.857567 0.360248 0.779502
C29   C     C_R   0.010170 0.834566 0.778256 0.027250
C30   C     C_R   0.009374 0.811626 0.703771 -0.181620
C31   C     C_R   0.017124 0.740692 0.688707 0.476032
C32   C     C_R   0.011556 0.685530 0.740758 -0.324151
C33   C     C_R   0.006048 0.703362 0.811097 -0.113479
C34   C     C_3   0.002259 0.301294 0.802745 0.147664
C35   C     C_R   0.121764 0.946605 0.296312 -0.179671
C36   C     C_R   0.183812 0.991631 0.267815 -0.164041
C37   C     C_R   0.193392 0.944635 0.217795 -0.251341
C38   C     C_R   0.139536 0.849307 0.193661 0.447453
C39   C     C_R   0.071421 0.801921 0.219913 -0.001619
C40   C     C_R   0.997581 0.856699 0.359473 0.789111
C41   C     C_R   0.065372 0.852250 0.273355 0.033350
C42   C     C_R   0.003758 0.807311 0.304277 -0.029927
C43   C     C_R   0.947314 0.714564 0.283008 -0.218529
C44   C     C_R   0.949678 0.664259 0.229140 -0.235255
C45   C     C_3   0.907672 0.201985 0.765074 -0.457557
C46   C     C_R   0.009688 0.706104 0.196956 -0.043028
C47   C     C_R   0.392211 0.105166 0.586455 -0.401875
C48   C     C_R   0.446063 0.085338 0.565672 0.437164
C49   C     C_R   0.553945 0.141994 0.617429 0.485574
C50   C     C_R   0.607692 0.213499 0.693750 -0.387885
C51   C     C_R   0.554711 0.230931 0.718915 0.041962
C52   C     C_R   0.999116 0.141300 0.640399 0.770986
C53   C     C_R   0.445218 0.176215 0.664129 0.048519
C54   C     C_R   0.392128 0.196045 0.687456 -0.022031
C55   C     C_R   0.446673 0.270873 0.760538 -0.217631
C56   C     C_3   0.102758 0.303595 0.858073 0.009753
C57   C     C_R   0.553395 0.323971 0.814131 -0.214097
C58   C     C_R   0.607848 0.303496 0.795665 -0.021048
C59   C     C_R   0.279735 0.636238 0.139753 0.767818
C60   C     C_R   0.719945 0.359830 0.857663 0.781023
C61   C     C_R   0.999711 0.359678 0.139584 0.868393
C62   C     C_R   0.001419 0.641846 0.861736 0.809573
C63   C     C_R   0.004701 0.645589 0.140681 0.903316
C64   C     C_3   0.991858 0.271530 0.661313 -0.473782
C65   C     C_R   0.000361 0.358583 0.859076 0.768554
C66   C     C_3   0.993404 0.332145 0.721701 -0.394611
C67   C     C_R   0.938950 0.259073 0.364859 -0.156361
C68   C     C_3   0.907073 0.141845 0.705667 -0.375576
C69   C     C_3   0.068015 0.136640 0.249629 -0.872160
C70   C     C_3   0.879048 0.322192 0.428199 -0.974523
C71   C     C_3   0.949595 0.152469 0.051642 0.101472
C72   C     C_3   0.978224 0.131800 0.993002 -0.335016
C73   C     C_3   0.884414 0.048600 0.910511 -0.987564
C74   C     C_3   0.339555 0.499364 0.406282 0.067390
C75   C     C_3   0.289671 0.417903 0.431786 -0.309582
C76   C     C_3   0.235571 0.427902 0.469034 -0.934153
C77   C     C_3   0.103080 0.719400 0.640357 0.067698
C78   C     C_R   0.912065 0.318057 0.368978 0.277487
C79   C     C_3   0.188990 0.810904 0.651756 -0.286249
C80   C     C_3   0.283056 0.812575 0.676737 -1.003923
C81   C     C_3   0.001468 0.898921 0.999671 -0.926825
C82   C     C_3   0.220996 0.853419 0.124765 0.009327
C83   C     C_3   0.233461 0.794137 0.080351 -0.275739
C84   C     C_3   0.275877 0.837767 0.027183 -0.972721
C85   C     C_3   0.329915 0.932535 0.493863 0.097008
C86   C     C_3   0.308804 0.857243 0.432206 -0.302640
C87   C     C_3   0.233541 0.764739 0.428365 -0.944059
C88   C     C_3   0.650366 0.182864 0.560660 0.050798
C89   C     C_R   0.914882 0.373082 0.316480 -0.156776
C90   C     C_3   0.571190 0.152337 0.459738 -0.291420
C91   C     C_3   0.621683 0.208316 0.416363 -0.999554
C92   C     C_3   0.129725 0.182300 0.837614 -0.997649
C93   C     C_3   0.205068 0.398553 0.910899 -0.921797
H1    H     H_    0.918408 0.238572 0.593532 0.166493
H2    H     H_    0.689854 0.730635 0.435767 0.180328
H3    H     H_    0.593897 0.600952 0.466731 0.164889
H4    H     H_    0.308151 0.538799 0.242429 0.166646
H5    H     H_    0.407337 0.772855 0.116342 0.168648
H6    H     H_    0.029691 0.962224 0.768696 0.158839
H7    H     H_    0.021411 0.994243 0.890665 0.140965
H8    H     H_    0.005551 0.762948 0.949299 0.182622
H9    H     H_    0.058537 0.403227 0.743962 0.191687
H10   H     H_    0.008250 0.626204 0.724347 0.160231
H11   H     H_    0.900508 0.681009 0.307615 0.146430
H12   H     H_    0.099173 0.272603 0.909377 0.158853
H13   H     H_    0.118695 0.986893 0.336787 0.132274
H14   H     H_    0.226023 0.064071 0.285595 0.156868
H15   H     H_    0.244139 0.985255 0.198938 0.125437
H16   H     H_    0.904211 0.591750 0.212345 0.135006
H17   H     H_    0.406272 0.286801 0.777803 0.156786
H18   H     H_    0.309131 0.065524 0.539901 0.180303
H19   H     H_    0.921138 0.328903 0.682304 0.154387
H20   H     H_    0.691018 0.255200 0.731648 0.182280
H21   H     H_    0.593843 0.380197 0.871936 0.157560
H22   H     H_    0.833548 0.108559 0.637679 0.184279
H23   H     H_    0.908010 0.087364 0.732188 0.193505
H24   H     H_    0.834518 0.197245 0.725851 0.205517
H25   H     H_    0.167825 0.292360 0.788378 0.176800
H26   H     H_    0.099542 0.148256 0.209290 0.266577
H27   H     H_    0.132390 0.155457 0.319383 0.217389
H28   H     H_    0.005930 0.063821 0.224429 0.249742
H29   H     H_    0.873831 0.270773 0.461256 0.229766
H30   H     H_    0.935557 0.389736 0.480265 0.249011
H31   H     H_    0.801743 0.309803 0.387858 0.251176
H32   H     H_    0.887196 0.162170 0.011689 0.171797
H33   H     H_    0.919044 0.093059 0.072488 0.141375
H34   H     H_    0.909697 0.176600 0.820344 0.198253
H35   H     H_    0.009692 0.190464 0.972126 0.219768
H36   H     H_    0.039131 0.120224 0.031911 0.222923
H37   H     H_    0.854847 0.988514 0.930382 0.270826
H38   H     H_    0.906666 0.036902 0.867718 0.258879
H39   H     H_    0.821821 0.058074 0.871130 0.273431
H40   H     H_    0.277335 0.503829 0.352955 0.157693
H41   H     H_    0.394512 0.561085 0.466216 0.141060
H42   H     H_    0.232366 0.356281 0.371946 0.238257
H43   H     H_    0.349955 0.410322 0.482924 0.231282
H44   H     H_    0.292594 0.486820 0.531403 0.259370
H45   H     H_    0.934811 0.216348 0.405471 0.132280
H46   H     H_    0.197491 0.366629 0.484346 0.286183
H47   H     H_    0.175935 0.436961 0.419623 0.275056
H48   H     H_    0.078873 0.667211 0.585743 0.161832
H49   H     H_    0.134620 0.702205 0.701888 0.125265
H50   H     H_    0.159552 0.825515 0.588363 0.255467
H51   H     H_    0.213278 0.864241 0.705347 0.226469
H52   H     H_    0.316110 0.801282 0.741598 0.272188
H53   H     H_    0.343077 0.879153 0.683060 0.267926
H54   H     H_    0.261122 0.759655 0.624519 0.264338
H55   H     H_    0.072859 0.965264 0.049938 0.238759
H56   H     H_    0.893744 0.418642 0.318673 0.141312
H57   H     H_    0.933852 0.901739 0.973434 0.250555
H58   H     H_    0.992297 0.847157 0.032608 0.252630
H59   H     H_    0.299468 0.906218 0.185181 0.146082
H60   H     H_    0.188940 0.884333 0.077621 0.165330
H61   H     H_    0.287997 0.782887 0.133403 0.201525
H62   H     H_    0.158091 0.728362 0.036020 0.231801
H63   H     H_    0.223939 0.852168 0.974945 0.266603
H64   H     H_    0.281170 0.791354 0.993938 0.275047
H65   H     H_    0.354147 0.901447 0.072287 0.258555
H66   H     H_    0.255313 0.922011 0.470755 0.160621
H67   H     H_    0.939748 0.410471 0.217853 0.145566
H68   H     H_    0.366334 0.928926 0.562601 0.136735
H69   H     H_    0.276160 0.861437 0.364068 0.238496
H70   H     H_    0.382730 0.865879 0.456436 0.229936
H71   H     H_    0.268553 0.756795 0.494725 0.257377
H72   H     H_    0.215553 0.711771 0.379235 0.283121
H73   H     H_    0.160411 0.755797 0.407613 0.277029
H74   H     H_    0.716438 0.183377 0.572338 0.161731
H75   H     H_    0.682676 0.253444 0.593327 0.110936
H76   H     H_    0.535744 0.080449 0.428990 0.247737
H77   H     H_    0.508962 0.159168 0.446637 0.224375
H78   H     H_    0.594296 0.868260 0.211507 0.160637
H79   H     H_    0.658071 0.280616 0.446210 0.271973
H80   H     H_    0.562209 0.185792 0.343752 0.269080
H81   H     H_    0.681415 0.199606 0.425606 0.267571
H82   H     H_    0.070557 0.133976 0.847680 0.245662
H83   H     H_    0.135319 0.144413 0.795397 0.238678
H84   H     H_    0.205690 0.221524 0.903669 0.255480
H85   H     H_    0.212449 0.438845 0.866737 0.253648
H86   H     H_    0.211456 0.434587 0.964934 0.259262
H87   H     H_    0.271583 0.393359 0.943701 0.242118
H88   H     H_    0.056440 0.313812 0.654661 0.192177
O1    O     O_3   0.000000 0.000000 0.500000 -0.478031
O2    O     O_R   0.939290 0.616110 0.884440 -0.647575
O3    O     O_R   0.060700 0.616880 0.177520 -0.640544
O4    O     O_R   0.939250 0.884470 0.616070 -0.654193
O5    O     O_R   0.060740 0.443890 0.883140 -0.639298
O6    O     O_R   0.939270 0.616890 0.056080 -0.643303
O7    O     O_R   0.939290 0.322450 0.883140 -0.654467
O8    O     O_R   0.939260 0.323230 0.054780 -0.638957
O9    O     O_R   0.060750 0.615550 0.883900 -0.646221
O10   O     O_R   0.231610 0.616100 0.176760 -0.641675
O11   O     O_R   0.768390 0.445230 0.884440 -0.638579
O12   O     O_R   0.231620 0.176800 0.616070 -0.638985
O13   O     O_R   0.060740 0.176800 0.445190 -0.654800
O14   O     O_R   0.231610 0.054800 0.615530 -0.657626
O15   O     O_R   0.768390 0.883920 0.323210 -0.636960
O16   O     O_R   0.060730 0.883140 0.443890 -0.665987
O17   O     O_R   0.939260 0.056140 0.616830 -0.645889
O18   O     O_R   0.939300 0.883140 0.322450 -0.634009
O19   O     O_R   0.060710 0.177580 0.616830 -0.655366
O20   O     O_3   0.037993 0.231745 0.125384 -0.643138
O21   O     O_3   0.392180 0.488582 0.375867 -0.642064
O22   O     O_3   0.015257 0.718385 0.614958 -0.636765
O23   O     O_R   0.768380 0.884480 0.445190 -0.644310
O24   O     O_3   0.153127 0.800606 0.148385 -0.671501
O25   O     O_3   0.394822 0.015666 0.490030 -0.638966
O26   O     O_3   0.606940 0.121479 0.597732 -0.629805
O27   O     O_R   0.060710 0.883920 0.615530 -0.629651
O28   O     O_R   0.939300 0.054810 0.323210 -0.637277
O29   O     O_3   0.000000 0.500030 0.999970 -0.482813
O30   O     O_R   0.231620 0.615550 0.054780 -0.642688
O31   O     O_R   0.768380 0.323230 0.883900 -0.647422
O32   O     O_R   0.060700 0.445220 0.176760 -0.662787
Zn1   Zn    Zn3+2 0.086760 0.130530 0.543760 0.945441
Zn2   Zn    Zn3+2 0.086760 0.956230 0.542990 0.940222
Zn3   Zn    Zn3+2 0.913250 0.956230 0.369490 0.964170
Zn4   Zn    Zn3+2 0.913230 0.957020 0.543760 0.954728
Zn5   Zn    Zn3+2 0.913240 0.369500 0.956210 0.956008
Zn6   Zn    Zn3+2 0.086750 0.543800 0.130490 0.962132
Zn7   Zn    Zn3+2 0.913240 0.543800 0.956980 0.971395
Zn8   Zn    Zn3+2 0.086770 0.543010 0.956210 0.947268

loop_
_geom_bond_atom_site_label_1
_geom_bond_atom_site_label_2
_ccdc_geom_bond_type
C11   H3    S    
C25   C81   S    
C73   H38   S    
C34   C56   S    
O2    Zn7   S    
C22   C29   A    
C70   C78   S    
C85   H68   S    
C41   C42   A    
C66   H9    S    
C59   O10   A    
C35   C36   A    
C5    C67   A    
C34   C66   S    
O32   Zn6   S    
O12   Zn1   S    
C39   C41   A    
C83   H61   S    
C87   H72   S    
C76   H44   S    
C92   H83   S    
C4    O13   A    
C12   C23   S    
C8    O20   S    
C26   C27   A    
C29   C30   A    
O4    Zn4   S    
C91   H79   S    
C72   H35   S    
C11   C13   A    
C9    C61   S    
C36   C37   A    
C38   O24   S    
C19   H78   S    
C21   C59   S    
C26   H8    S    
C30   C31   A    
O15   Zn3   S    
C75   H42   S    
C87   H73   S    
C83   H62   S    
C40   O16   A    
C10   C17   A    
C58   C60   S    
C81   H57   S    
O30   Zn8   S    
C74   H40   S    
C22   H6    S    
O29   Zn7   S    
C13   O21   S    
C91   H80   S    
C71   O20   S    
C18   C19   A    
C67   H45   S    
C1    O27   A    
C43   H11   S    
C16   O12   A    
C62   O2    A    
C77   H49   S    
C82   H60   S    
C70   H30   S    
C80   H54   S    
C79   H50   S    
C83   C84   S    
C44   C46   A    
C8    C9    A    
C88   H75   S    
O19   Zn1   S    
C71   H33   S    
C52   O19   A    
C80   H53   S    
C65   O5    A    
O14   Zn2   S    
O16   Zn2   S    
C47   C53   A    
C44   H16   S    
C81   H55   S    
C89   H56   S    
C87   H71   S    
C73   H39   S    
C78   C89   A    
O29   Zn8   S    
C24   H7    S    
C13   C14   A    
C36   H14   S    
C61   O8    A    
C67   C78   A    
C61   O32   A    
C77   O22   S    
C34   C65   S    
C93   H87   S    
C59   O30   A    
C85   O25   S    
C50   C51   A    
C57   C58   A    
O6    Zn7   S    
C77   C79   S    
C92   H82   S    
C93   H86   S    
C56   C93   S    
O28   Zn3   S    
C74   C75   S    
O18   Zn3   S    
C28   O23   A    
C73   H37   S    
C49   O26   S    
C7    C8    A    
C38   C39   A    
C24   C25   A    
C37   H15   S    
C4    C6    S    
C92   H84   S    
O9    Zn8   S    
O10   Zn6   S    
C51   C58   A    
C84   H65   S    
C75   H43   S    
C33   C62   S    
C74   O21   S    
C25   C26   A    
C85   C86   S    
C69   H26   S    
C27   C33   A    
C4    O28   A    
C91   H81   S    
C51   C53   A    
C64   C66   S    
C23   C68   S    
C2    C89   A    
C23   C52   S    
C75   C76   S    
C47   H18   S    
C7    C69   S    
C37   C38   A    
C3    C9    A    
C70   H29   S    
C47   C48   A    
C69   H28   S    
C60   O11   A    
C88   H74   S    
C90   H77   S    
C45   C68   S    
C72   H36   S    
C17   C18   A    
C32   H10   S    
C18   C28   S    
C16   C54   S    
C34   C45   S    
C62   O9    A    
C84   H64   S    
C60   O31   A    
C12   C56   S    
C68   H23   S    
C39   C46   A    
C86   H69   S    
C64   H88   S    
C80   H52   S    
O5    Zn8   S    
C88   C90   S    
C82   C83   S    
O27   Zn2   S    
C63   O6    A    
C55   C57   A    
C43   C44   A    
O1    Zn2   S    
C22   C24   A    
O3    Zn6   S    
O17   Zn4   S    
C52   O17   A    
C42   C43   A    
O11   Zn7   S    
C76   H47   S    
O8    Zn5   S    
C14   H4    S    
O1    Zn1   S    
C12   H25   S    
C76   H46   S    
C45   H24   S    
C15   C17   A    
C54   C55   A    
C23   C64   S    
C63   O3    A    
C86   C87   S    
C31   O22   S    
C12   C92   S    
C31   C32   A    
C72   C73   S    
C3    C5    A    
O13   Zn1   S    
C93   H85   S    
O1    Zn3   S    
C53   C54   A    
C6    C7    A    
C40   O18   A    
C1    O4    A    
C85   H66   S    
C46   C63   S    
C69   H27   S    
O29   Zn5   S    
C79   H51   S    
O23   Zn4   S    
C50   H20   S    
C32   C33   A    
C19   C20   A    
C2    C3    A    
C64   H1    S    
C71   C72   S    
C55   H17   S    
C35   H13   S    
C81   H58   S    
O7    Zn5   S    
C84   H63   S    
C90   C91   S    
C5    C6    A    
C57   H21   S    
C27   C29   A    
C10   H2    S    
C45   H34   S    
C48   C49   A    
C74   H41   S    
C90   H76   S    
C40   C42   S    
C1    C30   S    
C28   O15   A    
C35   C41   A    
C77   H48   S    
C56   H12   S    
C65   O7    A    
C10   C11   A    
O29   Zn6   S    
C68   H22   S    
C79   C80   S    
C70   H31   S    
C15   C21   A    
C20   H5    S    
C20   C21   A    
O1    Zn4   S    
C2    H67   S    
C49   C50   A    
C48   O25   S    
C16   O14   A    
C14   C15   A    
C71   H32   S    
C86   H70   S    
C88   O26   S    
C66   H19   S    
C82   O24   S    
C82   H59   S    
O31   Zn5   S    
