data_mof_unit_38953.cif
_audit_creation_date              2013-03-05T15:44:03-0500
_audit_creation_method            fapswitch 2.2
_symmetry_space_group_name_H-M    P1
_symmetry_Int_Tables_number       1
_space_group_crystal_system       triclinic
_cell_length_a                    9.736906
_cell_length_b                    10.965445
_cell_length_c                    17.23634
_cell_angle_alpha                 90.524866
_cell_angle_beta                  85.273046
_cell_angle_gamma                 88.925985
_cell_volume                      1833.6280708

loop_
_atom_site_label
_atom_site_type_symbol
_atom_site_description
_atom_site_fract_x
_atom_site_fract_y
_atom_site_fract_z
_atom_type_partial_charge
O1    O     O_R   0.382960 0.678040 0.499990 -0.602564
O2    O     O_R   0.617100 0.678080 0.500010 -0.598910
C1    C     C_R   0.499233 0.733864 0.496041 0.781065
O3    O     O_R   0.369350 0.500000 0.613580 -0.575574
O4    O     O_R   0.603500 0.500040 0.613610 -0.613577
C2    C     C_R   0.481285 0.492770 0.649513 0.784344
Cu1   Cu    Cu3+1 0.361370 0.499980 0.499980 0.953363
Cu2   Cu    Cu3+1 0.638630 0.500020 0.500020 1.027063
O5    O     O_R   0.382900 0.321920 0.499990 -0.579072
O6    O     O_R   0.617040 0.321960 0.500010 -0.573121
O7    O     O_R   0.396500 0.499960 0.386390 -0.579432
O8    O     O_R   0.630650 0.500000 0.386420 -0.483316
C3    C     C_R   0.501446 0.265520 0.501189 0.849232
C4    C     C_R   0.518033 0.511926 0.350002 0.799195
C5    C     C_R   0.467362 0.476751 0.733764 -0.067796
C6    C     C_R   0.519922 0.371486 0.770208 0.099199
C7    C     C_R   0.495076 0.360592 0.852677 0.175923
C8    C     C_R   0.423147 0.456951 0.895059 0.118151
C9    C     C_R   0.368028 0.555726 0.857090 -0.199861
C10   C     C_R   0.389295 0.565210 0.777246 -0.245141
C11   C     C_R   0.404359 0.543389 0.146462 -0.126870
C12   C     C_R   0.405914 0.565308 0.226541 0.083614
C13   C     C_R   0.648828 0.502633 0.217360 0.309357
C14   C     C_R   0.645520 0.486352 0.137200 -0.236161
C15   C     C_R   0.522789 0.501557 0.101931 0.079326
C16   C     C_2   0.412602 0.463067 0.980140 -0.216262
C17   C     C_2   0.525377 0.485182 0.017034 -0.192252
C18   C     C_R   0.525474 0.529886 0.264179 -0.212650
H1    H     H_    0.624399 0.490266 0.983091 0.146933
H2    H     H_    0.311708 0.628119 0.889922 0.150726
H3    H     H_    0.311856 0.564746 0.118441 0.147718
H4    H     H_    0.346601 0.643682 0.749121 0.146758
H5    H     H_    0.311243 0.456947 0.010807 0.152930
H6    H     H_    0.740266 0.464276 0.101938 0.162560
C19   C     C_2   0.612793 0.059864 0.494317 0.143059
C20   C     C_2   0.502726 0.134456 0.511744 -0.391396
H7    H     H_    0.407264 0.096935 0.537740 0.137654
C21   C     C_2   0.594198 0.930639 0.510876 -0.167982
C22   C     C_2   0.499310 0.863009 0.478980 0.002113
H8    H     H_    0.663417 0.889250 0.549954 0.126261
C23   C     C_2   0.072972 0.587331 0.529886 -0.031022
N1    N     N_2   0.152990 0.501340 0.500850 -0.270745
H9    H     H_    0.119005 0.669828 0.550184 0.136754
H10   H     H_    0.110753 0.416946 0.494336 0.228795
C24   C     C_2   0.918992 0.573872 0.542779 0.263812
N2    N     N_2   0.846850 0.501370 0.500880 -0.083989
C25   C     C_3   0.597007 0.271083 0.721347 -0.424836
C26   C     C_3   0.504919 0.162829 0.708256 -0.841559
H11   H     H_    0.469816 0.118844 0.763671 0.260431
H12   H     H_    0.413291 0.193377 0.678746 0.249283
H13   H     H_    0.563617 0.093430 0.671019 0.240906
H14   H     H_    0.636449 0.302831 0.663325 0.223288
H15   H     H_    0.691914 0.241592 0.747883 0.184944
C27   C     C_3   0.752041 0.103424 0.459772 -0.296064
C28   C     C_3   0.856459 0.001013 0.435666 -0.827529
H16   H     H_    0.884354 0.949275 0.487381 0.235745
H17   H     H_    0.813936 0.937912 0.393318 0.274837
H18   H     H_    0.951806 0.041006 0.407603 0.255592
H19   H     H_    0.735572 0.156839 0.406764 0.242944
H20   H     H_    0.798355 0.162477 0.502958 0.225517
C29   C     C_3   0.408990 0.908144 0.416491 -0.400697
C30   C     C_3   0.492786 0.922101 0.338337 -0.781489
H21   H     H_    0.573691 0.991180 0.342352 0.264453
H22   H     H_    0.541820 0.833323 0.319169 0.254279
H23   H     H_    0.423680 0.952623 0.293943 0.237177
H24   H     H_    0.326524 0.841976 0.407956 0.205090
H25   H     H_    0.353652 0.994592 0.433064 0.210543
C31   C     C_3   0.853949 0.646911 0.611629 -0.409679
C32   C     C_3   0.874024 0.581454 0.687830 -0.842927
H26   H     H_    0.830258 0.488691 0.687124 0.262271
H27   H     H_    0.985451 0.573458 0.696968 0.246167
H28   H     H_    0.821099 0.634139 0.737278 0.242566
H29   H     H_    0.902933 0.737568 0.613407 0.159781
H30   H     H_    0.744287 0.668112 0.608006 0.251455
N3    N     N_R   0.909981 0.460664 0.429500 0.230956
O9    O     O_R   0.878465 0.354895 0.402310 -0.341718
O10   O     O_R   0.979674 0.535008 0.383565 -0.320217
C33   C     C_3   0.281320 0.631014 0.268513 -0.309924
C34   C     C_3   0.235544 0.744889 0.225901 -0.828230
H31   H     H_    0.325803 0.801034 0.207122 0.248514
H32   H     H_    0.180395 0.719788 0.174418 0.255599
H33   H     H_    0.163309 0.800839 0.265523 0.259861
H34   H     H_    0.194216 0.567089 0.275739 0.271831
H35   H     H_    0.304486 0.664760 0.326550 0.221935
N4    N     N_R   0.780115 0.506435 0.248481 0.163854
O11   O     O_R   0.818764 0.609895 0.276151 -0.321816
O12   O     O_R   0.872802 0.422159 0.229119 -0.329689
C35   C     C_3   0.541385 0.248315 0.896505 -0.403913
C36   C     C_3   0.418565 0.175233 0.930438 -0.809994
H36   H     H_    0.360895 0.225264 0.979335 0.258820
H37   H     H_    0.347004 0.155704 0.885182 0.245714
H38   H     H_    0.456044 0.087291 0.953131 0.238501
H39   H     H_    0.608913 0.184953 0.860058 0.205973
H40   H     H_    0.604662 0.275887 0.944069 0.203238

loop_
_geom_bond_atom_site_label_1
_geom_bond_atom_site_label_2
_geom_bond_distance
_ccdc_geom_bond_type
C28   H16   1.110665 S    
C17   H1    1.088423 S    
C7    C35   1.530401 S    
C23   N1    1.283031 D    
C19   C20   1.348106 D    
C8    C16   1.462439 S    
Cu1   Cu2   2.699720 S    
C27   H20   1.110947 S    
N4    O11   1.300697 A    
Cu1   O7    1.959564 S    
C11   H3    1.079461 S    
C16   C17   1.338363 D    
C20   H7    1.087702 S    
O4    C2    1.299420 A    
O7    C4    1.302270 A    
C31   H30   1.095446 S    
C5    C6    1.425821 A    
C8    C9    1.392323 A    
Cu1   N1    2.027571 S    
C32   H27   1.111064 S    
O5    C3    1.301022 A    
C30   H22   1.111509 S    
C2    C5    1.459856 S    
C27   C28   1.531811 S    
C33   H34   1.110249 S    
C26   H13   1.109959 S    
C9    C10   1.379901 A    
C31   C32   1.527357 S    
C13   C14   1.394607 A    
C36   H37   1.109931 S    
C25   H15   1.108557 S    
C26   H12   1.110673 S    
C1    C22   1.448985 S    
C12   C18   1.427970 A    
C11   C12   1.400223 A    
C19   C27   1.522313 S    
C23   H9    1.084839 S    
C29   C30   1.526787 S    
N1    H10   1.028645 S    
O3    Cu1   1.965975 S    
C29   H24   1.110036 S    
C6    C25   1.527277 S    
N2    N3    1.394919 S    
C27   H19   1.110849 S    
N4    O12   1.301264 A    
C5    C10   1.394826 A    
C22   C29   1.525787 S    
C35   H40   1.108522 S    
C19   C21   1.459683 S    
C14   C15   1.392681 A    
C12   C33   1.525542 S    
C3    C20   1.450245 S    
O3    C2    1.298727 A    
C34   H32   1.109557 S    
C33   C34   1.532065 S    
C6    C7    1.428596 A    
C31   H29   1.111887 S    
C24   N2    1.319494 D    
C14   H6    1.084249 S    
O1    C1    1.294261 A    
C32   H28   1.110483 S    
N3    O9    1.298481 A    
C30   H21   1.108851 S    
O4    Cu2   1.959563 S    
C29   H25   1.105019 S    
C16   H5    1.084011 S    
C25   C26   1.527200 S    
Cu2   O8    1.965975 S    
C24   C31   1.513442 S    
C7    C8    1.419298 A    
C13   C18   1.416168 A    
C36   H38   1.110559 S    
N3    O10   1.302294 A    
C26   H11   1.105702 S    
O8    C4    1.312668 A    
C28   H17   1.110980 S    
C10   H4    1.084291 S    
Cu1   O5    1.959820 S    
C11   C15   1.398974 A    
C35   H39   1.102952 S    
C30   H23   1.109683 S    
O1    Cu1   1.967705 S    
O2    Cu2   1.959821 S    
O6    C3    1.293378 A    
C34   H33   1.111077 S    
C25   H14   1.103156 S    
C15   C17   1.470748 S    
O2    C1    1.297449 A    
C21   H8    1.087599 S    
C21   C22   1.344526 D    
C32   H26   1.110542 S    
Cu2   N2    2.029023 S    
C34   H31   1.110502 S    
C33   H35   1.105465 S    
C35   C36   1.530906 S    
Cu2   O6    1.967704 S    
C13   N4    1.427657 S    
C28   H18   1.110551 S    
C23   C24   1.507657 S    
C4    C18   1.490142 S    
C36   H36   1.108416 S    
C9    H2    1.084164 S    
