data_mof_unit_65022.cif
_audit_creation_date              2012-12-10T17:58:21-0500
_audit_creation_method            fapswitch 2.2
_symmetry_space_group_name_H-M    P1
_symmetry_Int_Tables_number       1
_space_group_crystal_system       monoclinic
_cell_length_a                    38.499038
_cell_length_b                    21.597368
_cell_length_c                    21.624165
_cell_angle_alpha                 90.0
_cell_angle_beta                  124.109495
_cell_angle_gamma                 90.0
_cell_volume                      14886.8666321

loop_
_atom_site_label
_atom_site_type_symbol
_atom_type_description
_atom_site_fract_x
_atom_site_fract_y
_atom_site_fract_z
_atom_type_partial_charge
C1    C     C_R   0.999493 0.999997 0.119596 0.872425
C2    C     C_3   0.774803 0.061623 0.801589 -0.575335
C3    C     C_3   0.275005 0.495252 0.705547 0.349791
C4    C     C_3   0.273844 0.990958 0.343164 0.209648
C5    C     C_3   0.726156 0.990958 0.656836 0.209648
C6    C     C_3   0.773843 0.490958 0.343164 0.209648
C7    C     C_3   0.226156 0.490955 0.656836 0.209648
C8    C     C_1   0.374406 0.000209 0.374916 -0.170894
C9    C     C_1   0.625594 0.000209 0.625084 -0.170895
C10   C     C_1   0.874406 0.500209 0.374916 -0.170894
C11   C     C_1   0.125594 0.500209 0.625084 -0.170895
C12   C     C_3   0.208713 0.000362 0.210270 0.149524
C13   C     C_3   0.725196 0.561623 0.198411 -0.575334
C14   C     C_3   0.791287 0.000362 0.789730 0.149524
C15   C     C_3   0.708713 0.500362 0.210270 0.149524
C16   C     C_3   0.291287 0.500362 0.789730 0.149525
C17   C     C_3   0.274536 0.946547 0.236759 -0.589725
C18   C     C_3   0.725464 0.946547 0.763242 -0.589726
C19   C     C_3   0.774536 0.446547 0.236758 -0.589725
C20   C     C_3   0.225464 0.446548 0.763243 -0.589726
C21   C     C_3   0.291072 0.000853 0.293426 0.145823
C22   C     C_3   0.708928 0.000853 0.706574 0.145822
C23   C     C_3   0.791072 0.500853 0.293426 0.145823
C24   C     C_3   0.274803 0.561624 0.801586 -0.575335
C25   C     C_3   0.208928 0.500853 0.706574 0.145824
C26   C     C_3   0.176575 0.955328 0.318386 0.078543
C27   C     C_3   0.195541 0.967030 0.401315 -0.345836
C28   C     C_3   0.161337 0.978739 0.415189 -0.944771
C29   C     C_3   0.823424 0.955328 0.681614 0.078543
C30   C     C_3   0.804459 0.967030 0.598685 -0.345836
C31   C     C_3   0.838663 0.978738 0.584811 -0.944769
C32   C     C_3   0.676575 0.455327 0.318385 0.078543
C33   C     C_3   0.695541 0.467029 0.401315 -0.345836
C34   C     C_3   0.661337 0.478738 0.415189 -0.944771
C35   C     C_1   0.336875 0.000402 0.338235 -0.006917
C36   C     C_3   0.323424 0.455323 0.681616 0.078545
C37   C     C_3   0.304459 0.467023 0.598686 -0.345836
C38   C     C_3   0.338663 0.478729 0.584812 -0.944773
C39   C     C_1   0.663125 0.000402 0.661765 -0.006917
C40   C     C_1   0.836875 0.500402 0.338235 -0.006917
C41   C     C_1   0.163125 0.500402 0.661765 -0.006916
C42   C     C_1   0.163006 0.000205 0.162987 -0.032863
C43   C     C_1   0.836994 0.000205 0.837013 -0.032862
C44   C     C_1   0.663006 0.500205 0.162987 -0.032863
C45   C     C_R   0.000507 0.999997 0.880404 0.872425
C46   C     C_1   0.336994 0.500205 0.837013 -0.032862
C47   C     C_1   0.125503 0.000074 0.124995 -0.188559
C48   C     C_1   0.874497 0.000074 0.875005 -0.188559
C49   C     C_1   0.625503 0.500074 0.124995 -0.188559
C50   C     C_1   0.374497 0.500074 0.875005 -0.188559
C51   C     C_R   0.966618 0.034621 0.184252 0.334404
C52   C     C_R   0.033382 0.034621 0.815748 0.334404
C53   C     C_R   0.466618 0.534621 0.184252 0.334404
C54   C     C_R   0.533382 0.534621 0.815748 0.334404
C55   C     C_R   0.968314 0.037162 0.250605 0.433746
C56   C     C_R   0.499493 0.499997 0.119596 0.872425
C57   C     C_R   0.031686 0.037162 0.749395 0.433745
C58   C     C_R   0.468314 0.537162 0.250605 0.433745
C59   C     C_R   0.531686 0.537162 0.749395 0.433744
C60   C     C_R   0.999569 0.003185 0.312792 -0.149959
C61   C     C_R   0.000431 0.003185 0.687208 -0.149958
C62   C     C_R   0.499569 0.503185 0.312792 -0.149958
C63   C     C_R   0.500431 0.503185 0.687208 -0.149958
C64   C     C_R   0.029781 0.969240 0.310906 -0.275308
C65   C     C_R   0.970219 0.969240 0.689094 -0.275308
C66   C     C_R   0.529780 0.469240 0.310906 -0.275308
C67   C     C_R   0.500507 0.499997 0.880404 0.872425
C68   C     C_R   0.470219 0.469240 0.689094 -0.275309
C69   C     C_R   0.028746 0.967626 0.246305 -0.234920
C70   C     C_R   0.971254 0.967626 0.753695 -0.234920
C71   C     C_R   0.528746 0.467626 0.246305 -0.234920
C72   C     C_R   0.471254 0.467626 0.753695 -0.234920
C73   C     C_R   0.081072 0.000009 0.080740 0.883411
C74   C     C_R   0.918928 0.000009 0.919260 0.883411
C75   C     C_R   0.581072 0.500009 0.080740 0.883411
C76   C     C_R   0.418928 0.500009 0.919260 0.883411
C77   C     C_R   0.997653 0.000167 0.183684 -0.158663
C78   C     C_3   0.273993 0.062221 0.247739 0.321833
C79   C     C_R   0.002347 0.000167 0.816316 -0.158664
C80   C     C_R   0.497653 0.500167 0.183684 -0.158663
C81   C     C_R   0.502347 0.500167 0.816316 -0.158664
C82   C     C_R   0.500000 0.186388 0.500000 -0.011429
C83   C     C_R   0.000000 0.686388 0.500000 -0.011428
C84   C     C_R   0.500000 0.879917 0.500000 0.853891
C85   C     C_R   1.000000 0.379917 0.500000 0.853891
C86   C     C_R   0.418902 0.000130 0.419007 0.903206
C87   C     C_R   0.581097 0.000130 0.580993 0.903208
C88   C     C_R   0.918902 0.500130 0.419007 0.903206
C89   C     C_3   0.726007 0.062221 0.752261 0.321832
C90   C     C_R   0.081097 0.500130 0.580993 0.903208
C91   C     C_R   0.500000 0.120399 0.500000 0.869156
C92   C     C_R   0.000000 0.620399 0.500000 0.869156
C93   C     C_R   0.000000 0.879451 0.500000 0.851856
C94   C     C_R   0.500000 0.379451 0.500000 0.851856
C95   C     C_R   0.999974 0.001256 0.379513 0.945491
C96   C     C_R   0.000025 0.001256 0.620487 0.945490
C97   C     C_R   0.499974 0.501256 0.379513 0.945491
C98   C     C_R   0.500025 0.501256 0.620487 0.945490
C99   C     C_R   1.000000 0.120385 0.500000 0.882716
C100  C     C_3   0.773993 0.562222 0.247739 0.321832
C101  C     C_R   0.500000 0.620385 0.500000 0.882716
C102  C     C_R   0.526871 0.782125 0.486765 -0.178293
C103  C     C_R   0.473129 0.782125 0.513235 -0.178294
C104  C     C_R   0.026871 0.282125 0.486765 -0.178293
C105  C     C_R   0.973129 0.282125 0.513235 -0.178294
C106  C     C_R   0.027339 0.218155 0.487925 -0.167641
C107  C     C_R   0.972661 0.218155 0.512075 -0.167641
C108  C     C_R   0.527339 0.718155 0.487925 -0.167641
C109  C     C_R   0.472661 0.718155 0.512075 -0.167641
C110  C     C_3   0.225999 0.945524 0.188840 -0.376580
C111  C     C_3   0.226007 0.562222 0.752259 0.321832
C112  C     C_3   0.774001 0.945524 0.811160 -0.376580
C113  C     C_3   0.725999 0.445524 0.188840 -0.376580
C114  C     C_3   0.274001 0.445525 0.811162 -0.376580
C115  C     C_R   1.000000 0.186511 0.500000 -0.003055
C116  C     C_R   0.500000 0.686511 0.500000 -0.003055
C117  C     C_R   0.500000 0.813776 0.500000 -0.008198
C118  C     C_R   1.000000 0.313776 0.500000 -0.008198
C119  C     C_R   0.472833 0.217953 0.433221 -0.170055
C120  C     C_R   0.527167 0.217953 0.566779 -0.170055
C121  C     C_R   0.972833 0.717954 0.433221 -0.170055
C122  C     C_3   0.225196 0.061623 0.198411 -0.575334
C123  C     C_R   0.027167 0.717954 0.566779 -0.170056
C124  C     C_R   0.972378 0.781868 0.433453 -0.176385
C125  C     C_R   0.027622 0.781868 0.566547 -0.176386
C126  C     C_R   0.472378 0.281868 0.433453 -0.176385
C127  C     C_R   0.527622 0.281868 0.566547 -0.176386
C128  C     C_R   0.000000 0.813447 0.500000 -0.010212
C129  C     C_R   0.500000 0.313447 0.500000 -0.010212
C130  C     C_3   0.224995 0.995255 0.294453 0.349792
C131  C     C_3   0.775005 0.995254 0.705547 0.349792
C132  C     C_3   0.724995 0.495254 0.294453 0.349792
H1    H     H_    0.286694 0.901610 0.266663 0.204195
H2    H     H_    0.714114 0.951371 0.800367 0.202294
H3    H     H_    0.359746 0.437924 0.602252 0.261721
H4    H     H_    0.318455 0.018727 0.442708 0.346290
H5    H     H_    0.681544 0.018727 0.557292 0.346290
H6    H     H_    0.818455 0.518726 0.442708 0.346290
H7    H     H_    0.181544 0.518722 0.557291 0.346290
H8    H     H_    0.785886 0.451371 0.199633 0.202293
H9    H     H_    0.214114 0.451374 0.800369 0.202293
H10   H     H_    0.053789 0.943287 0.359133 0.182185
H11   H     H_    0.946211 0.943287 0.640867 0.182185
H12   H     H_    0.553789 0.443287 0.359133 0.182185
H13   H     H_    0.446211 0.443287 0.640867 0.182186
H14   H     H_    0.052559 0.941675 0.245357 0.165455
H15   H     H_    0.947441 0.941675 0.754643 0.165455
H16   H     H_    0.552559 0.441675 0.245357 0.165455
H17   H     H_    0.713306 0.901610 0.733337 0.204195
H18   H     H_    0.447441 0.441675 0.754643 0.165455
H19   H     H_    0.547786 0.806891 0.476832 0.144363
H20   H     H_    0.452214 0.806891 0.523168 0.144364
H21   H     H_    0.047786 0.306891 0.476832 0.144363
H22   H     H_    0.952214 0.306891 0.523168 0.144364
H23   H     H_    0.048364 0.193383 0.478271 0.146048
H24   H     H_    0.951636 0.193383 0.521729 0.146048
H25   H     H_    0.548364 0.693383 0.478271 0.146048
H26   H     H_    0.451636 0.693383 0.521729 0.146048
H27   H     H_    0.451703 0.193165 0.381646 0.150802
H28   H     H_    0.786694 0.401610 0.266663 0.204195
H29   H     H_    0.548297 0.193165 0.618354 0.150802
H30   H     H_    0.951703 0.693165 0.381646 0.150802
H31   H     H_    0.048297 0.693165 0.618354 0.150802
H32   H     H_    0.214834 0.900795 0.197232 0.221027
H33   H     H_    0.785166 0.900795 0.802769 0.221027
H34   H     H_    0.714834 0.400795 0.197231 0.221027
H35   H     H_    0.285166 0.400796 0.802772 0.221026
H36   H     H_    0.951142 0.806642 0.381922 0.149483
H37   H     H_    0.048858 0.806642 0.618077 0.149482
H38   H     H_    0.451142 0.306642 0.381922 0.149483
H39   H     H_    0.213306 0.401611 0.733341 0.204195
H40   H     H_    0.548858 0.306642 0.618077 0.149483
H41   H     H_    0.216134 0.038820 0.310386 0.097894
H42   H     H_    0.783865 0.038820 0.689614 0.097894
H43   H     H_    0.716134 0.538820 0.310386 0.097894
H44   H     H_    0.283865 0.538817 0.689612 0.097894
H45   H     H_    0.283050 0.943480 0.367908 0.133716
H46   H     H_    0.716950 0.943480 0.632093 0.133716
H47   H     H_    0.783050 0.443480 0.367907 0.133716
H48   H     H_    0.216950 0.443476 0.632095 0.133716
H49   H     H_    0.213929 0.066146 0.138622 0.194494
H50   H     H_    0.214139 0.948401 0.128660 0.187779
H51   H     H_    0.786071 0.066146 0.861378 0.194494
H52   H     H_    0.713929 0.566146 0.138622 0.194493
H53   H     H_    0.286071 0.566149 0.861376 0.194494
H54   H     H_    0.212185 0.101872 0.211216 0.191420
H55   H     H_    0.787815 0.101872 0.788783 0.191420
H56   H     H_    0.712185 0.601872 0.211217 0.191420
H57   H     H_    0.287815 0.601872 0.788780 0.191420
H58   H     H_    0.284778 0.064604 0.209576 0.144125
H59   H     H_    0.715222 0.064605 0.790424 0.144125
H60   H     H_    0.784778 0.564605 0.209576 0.144125
H61   H     H_    0.785861 0.948402 0.871340 0.187779
H62   H     H_    0.215222 0.564608 0.790421 0.144124
H63   H     H_    0.274806 0.121308 0.317639 0.379189
H64   H     H_    0.725194 0.121308 0.682361 0.379189
H65   H     H_    0.774806 0.621308 0.317639 0.379189
H66   H     H_    0.225194 0.621306 0.682356 0.379188
H67   H     H_    0.930340 0.047028 0.076134 0.337340
H68   H     H_    0.069660 0.047028 0.923866 0.337340
H69   H     H_    0.430340 0.547028 0.076134 0.337340
H70   H     H_    0.569660 0.547028 0.923866 0.337340
H71   H     H_    0.920929 0.094783 0.209831 0.383016
H72   H     H_    0.714139 0.448402 0.128660 0.187779
H73   H     H_    0.079071 0.094783 0.790169 0.383016
H74   H     H_    0.420929 0.594783 0.209831 0.383016
H75   H     H_    0.579071 0.594783 0.790169 0.383016
H76   H     H_    0.155454 0.914516 0.300223 0.174400
H77   H     H_    0.156520 0.995057 0.283973 0.120675
H78   H     H_    0.214342 0.926102 0.434333 0.237825
H79   H     H_    0.216676 0.007898 0.420611 0.237434
H80   H     H_    0.142525 0.020072 0.383502 0.268568
H81   H     H_    0.175938 0.987095 0.475629 0.272479
H82   H     H_    0.140254 0.937934 0.397750 0.261721
H83   H     H_    0.285861 0.448405 0.871342 0.187780
H84   H     H_    0.844545 0.914516 0.699777 0.174400
H85   H     H_    0.843480 0.995056 0.716027 0.120676
H86   H     H_    0.785658 0.926101 0.565667 0.237825
H87   H     H_    0.783324 0.007897 0.579389 0.237433
H88   H     H_    0.857475 0.020071 0.616498 0.268567
H89   H     H_    0.824062 0.987094 0.524371 0.272478
H90   H     H_    0.859746 0.937933 0.602250 0.261720
H91   H     H_    0.655454 0.414516 0.300223 0.174400
H92   H     H_    0.656520 0.495056 0.283973 0.120675
H93   H     H_    0.714342 0.426101 0.434333 0.237825
H94   H     H_    0.285886 0.951370 0.199633 0.202293
H95   H     H_    0.716676 0.507897 0.420611 0.237434
H96   H     H_    0.642525 0.520071 0.383502 0.268568
H97   H     H_    0.675938 0.487094 0.475629 0.272479
H98   H     H_    0.640254 0.437933 0.397750 0.261720
H99   H     H_    0.344545 0.414511 0.699780 0.174400
H100  H     H_    0.343480 0.495052 0.716027 0.120675
H101  H     H_    0.285658 0.426093 0.565670 0.237825
H102  H     H_    0.283324 0.507890 0.579388 0.237434
H103  H     H_    0.357475 0.520063 0.616497 0.268568
H104  H     H_    0.324062 0.487084 0.524371 0.272479
O1    O     O_R   0.999990 0.948250 0.091620 -0.620611
O2    O     O_R   0.965310 0.999930 0.556910 -0.642745
O3    O     O_R   0.534690 0.499930 0.443090 -0.642745
O4    O     O_R   0.465310 0.499930 0.556910 -0.642745
O5    O     O_R   0.965300 0.091560 0.465360 -0.615002
O6    O     O_R   0.034700 0.091560 0.534640 -0.615002
O7    O     O_R   0.465300 0.591560 0.465360 -0.615002
O8    O     O_R   0.534700 0.591560 0.534640 -0.615002
O9    O     O_R   0.999990 0.051750 0.091660 -0.603582
O10   O     O_R   0.000010 0.051750 0.908340 -0.603582
O11   O     O_R   0.499990 0.551750 0.091660 -0.603583
O12   O     O_R   0.000010 0.948250 0.908380 -0.620610
O13   O     O_R   0.500010 0.551750 0.908340 -0.603582
O14   O     O_R   0.061430 0.948250 0.061430 -0.615646
O15   O     O_R   0.938570 0.948250 0.938570 -0.615645
O16   O     O_R   0.561430 0.448250 0.061430 -0.615645
O17   O     O_R   0.438570 0.448250 0.938570 -0.615645
O18   O     O_R   0.061430 0.051750 0.061470 -0.612962
O19   O     O_R   0.938570 0.051750 0.938530 -0.612961
O20   O     O_R   0.561430 0.551750 0.061470 -0.612962
O21   O     O_R   0.438570 0.551750 0.938530 -0.612961
O22   O     O_R   0.500000 0.908530 0.551740 -0.621456
O23   O     O_R   0.499990 0.448250 0.091620 -0.620611
O24   O     O_R   0.500000 0.908530 0.448260 -0.621455
O25   O     O_R   0.000000 0.408530 0.551740 -0.621456
O26   O     O_R   0.000000 0.408530 0.448260 -0.621455
O27   O     O_R   0.438570 0.000200 0.490320 -0.615526
O28   O     O_R   0.561430 0.000200 0.509680 -0.615524
O29   O     O_R   0.938570 0.500200 0.490320 -0.615525
O30   O     O_R   0.061430 0.500200 0.509680 -0.615524
O31   O     O_R   0.438570 0.000170 0.386880 -0.614919
O32   O     O_R   0.561430 0.000170 0.613120 -0.614920
O33   O     O_R   0.938570 0.500170 0.386880 -0.614919
O34   O     O_R   0.500010 0.448250 0.908380 -0.620610
O35   O     O_R   0.061430 0.500170 0.613120 -0.614920
O36   O     O_R   0.500000 0.091870 0.551750 -0.619502
O37   O     O_R   0.500000 0.091870 0.448250 -0.619501
O38   O     O_R   0.000000 0.591870 0.551750 -0.619502
O39   O     O_R   1.000000 0.591870 0.448250 -0.619501
O40   O     O_R   0.965340 0.908230 0.465340 -0.627544
O41   O     O_R   0.034660 0.908230 0.534660 -0.627544
O42   O     O_R   0.465340 0.408230 0.465340 -0.627544
O43   O     O_R   0.534660 0.408230 0.534660 -0.627544
O44   O     O_3   0.290252 0.115054 0.293782 -0.728166
O45   O     O_R   0.965330 0.999890 0.373740 -0.569176
O46   O     O_3   0.709747 0.115054 0.706217 -0.728166
O47   O     O_3   0.790252 0.615054 0.293783 -0.728166
O48   O     O_3   0.209747 0.615054 0.706213 -0.728165
O49   O     O_3   0.934414 0.065104 0.121807 -0.778713
O50   O     O_3   0.065586 0.065104 0.878193 -0.778713
O51   O     O_3   0.434414 0.565104 0.121807 -0.778713
O52   O     O_3   0.565586 0.565104 0.878193 -0.778713
O53   O     O_3   0.940209 0.072030 0.256822 -0.753200
O54   O     O_3   0.059791 0.072030 0.743178 -0.753199
O55   O     O_3   0.440209 0.572030 0.256822 -0.753199
O56   O     O_R   0.034670 0.999890 0.626260 -0.569176
O57   O     O_3   0.559791 0.572030 0.743178 -0.753199
O58   O     O_3   0.208438 0.941229 0.306745 -0.658570
O59   O     O_3   0.791562 0.941228 0.693255 -0.658570
O60   O     O_3   0.708438 0.441228 0.306744 -0.658570
O61   O     O_3   0.291562 0.441225 0.693257 -0.658571
O62   O     O_3   0.290587 0.034392 0.401644 -0.791244
O63   O     O_3   0.709413 0.034392 0.598355 -0.791244
O64   O     O_3   0.790587 0.534392 0.401645 -0.791243
O65   O     O_3   0.209413 0.534388 0.598354 -0.791244
O66   O     O_R   0.465330 0.499890 0.373740 -0.569176
O67   O     O_R   0.534670 0.499890 0.626260 -0.569176
O68   O     O_R   0.034690 0.999930 0.443090 -0.642745
Zn1   Zn    Zn3+2 0.000000 0.930890 0.000000 0.966495
Zn2   Zn    Zn3+2 0.046310 0.999890 0.546280 0.998599
Zn3   Zn    Zn3+2 0.453690 0.499890 0.453720 0.998600
Zn4   Zn    Zn3+2 0.546310 0.499890 0.546280 0.998599
Zn5   Zn    Zn3+2 0.500000 0.430890 0.000000 0.966495
Zn6   Zn    Zn3+2 1.000000 0.069110 0.000000 0.998887
Zn7   Zn    Zn3+2 0.500000 0.569110 0.000000 0.998886
Zn8   Zn    Zn3+2 0.499990 0.000210 0.569090 0.975553
Zn9   Zn    Zn3+2 0.500010 0.000210 0.430910 0.975554
Zn10  Zn    Zn3+2 0.999990 0.500210 0.569090 0.975553
Zn11  Zn    Zn3+2 0.000010 0.500210 0.430910 0.975555
Zn12  Zn    Zn3+2 0.953690 0.999890 0.453720 0.998599

loop_
_geom_bond_atom_site_label_1
_geom_bond_atom_site_label_2
_ccdc_geom_bond_type
C6    H47   S    
C1    C77   S    
C111  O48   S    
C82   C120  A    
C4    H45   S    
O42   Zn3   S    
O11   Zn7   S    
C12   C130  S    
C15   C44   S    
C63   C98   S    
H64   O46   S    
O8    Zn4   S    
C19   C113  S    
C9    C39   T    
C10   C40   T    
O29   Zn10  S    
C12   C42   S    
C124  H36   S    
C15   C132  S    
C84   C117  S    
O24   Zn9   S    
C125  H37   S    
C93   O41   A    
C102  H19   S    
C103  C117  A    
C4    O62   S    
C114  H83   S    
O41   Zn2   S    
C32   H92   S    
H67   O49   S    
C48   C74   S    
C93   O40   A    
C6    C132  S    
C25   C41   S    
C38   H103  S    
O19   Zn6   S    
C110  H32   S    
C4    C130  S    
C126  C129  A    
O5    Zn12  S    
C17   C21   S    
C82   C91   S    
C132  O60   S    
C24   H53   S    
C132  H43   S    
C19   C23   S    
C37   C38   S    
C50   C76   S    
C123  H31   S    
C36   H100  S    
C13   H52   S    
C37   H101  S    
O32   Zn8   S    
C103  H20   S    
C58   O55   S    
C67   O13   A    
C17   H1    S    
C105  C118  A    
O18   Zn6   S    
H6    O64   S    
C75   O16   A    
C55   O53   S    
C31   H88   S    
C70   C79   A    
C59   C63   A    
C96   O56   A    
C33   H95   S    
C45   O10   A    
C53   C58   A    
C57   C61   A    
C21   C35   S    
C130  O58   S    
C33   H93   S    
H71   O53   S    
C106  C115  A    
C60   C64   A    
O30   Zn11  S    
C1    O9    A    
C38   H104  S    
C112  H33   S    
C22   C89   S    
C8    C86   S    
C2    H51   S    
C2    C14   S    
C111  H62   S    
C73   O18   A    
C60   C95   S    
C61   C65   A    
C3    H44   S    
C98   O4    A    
C119  H27   S    
O31   Zn9   S    
C54   C81   A    
C57   O54   S    
O37   Zn9   S    
C14   C43   S    
O14   Zn1   S    
C69   C77   A    
C12   C110  S    
C74   O15   A    
C120  C127  A    
C114  H35   S    
C14   C112  S    
C105  C107  A    
C10   C88   S    
C89   O46   S    
C19   H28   S    
C36   C37   S    
C52   O50   S    
O3    Zn4   S    
C53   O51   S    
C65   C70   A    
C2    H55   S    
C3    O61   S    
C67   O34   A    
C95   O45   A    
C49   C75   S    
C104  H21   S    
C52   C79   A    
H69   O51   S    
C51   C55   A    
H70   O52   S    
C30   H86   S    
O68   Zn2   S    
C23   C100  S    
C31   H89   S    
C100  H60   S    
C45   O12   A    
C54   C59   A    
O10   Zn6   S    
C97   O3    A    
C62   C66   A    
C53   C80   A    
C91   O36   A    
C108  H25   S    
C1    O1    A    
C34   H96   S    
C127  C129  A    
C29   C30   S    
C126  H38   S    
C94   O42   A    
C62   C97   S    
C88   O33   A    
O15   Zn1   S    
O34   Zn5   S    
C64   C69   A    
H75   O57   S    
H65   O47   S    
C102  C117  A    
H66   O48   S    
C7    O65   S    
C67   C81   S    
C72   H18   S    
H5    O63   S    
C34   H97   S    
C28   H81   S    
C63   C68   A    
C18   C22   S    
C96   O2    A    
C20   H9    S    
C72   C81   A    
C16   C114  S    
O67   Zn4   S    
C76   O21   A    
C87   O32   A    
C131  H42   S    
C56   C80   S    
C99   O6    A    
C93   C128  S    
C9    C87   S    
C22   C39   S    
C7    H48   S    
C18   H2    S    
C5    H46   S    
H7    O65   S    
C25   C111  S    
C26   O58   S    
C97   O66   A    
C3    C16   S    
C58   C62   A    
C90   O35   A    
C85   O26   A    
C29   O59   S    
C104  C106  A    
O2    Zn12  S    
C26   C27   S    
O25   Zn10  S    
C86   O31   A    
C18   C112  S    
C3    C7    S    
C99   C115  S    
C30   C31   S    
C65   H11   S    
C88   O29   A    
C123  C125  A    
C66   H12   S    
C20   C25   S    
C54   O52   S    
C23   C40   S    
C101  O8    A    
C109  C116  A    
O38   Zn10  S    
C122  H49   S    
C21   C78   S    
O45   Zn12  S    
C74   O19   A    
C124  C128  A    
O16   Zn5   S    
C55   C60   A    
C69   H14   S    
C82   C119  A    
C104  C118  A    
C14   C131  S    
C32   O60   S    
C130  H41   S    
C56   O11   A    
C61   C96   S    
C47   C73   S    
C16   C46   S    
O9    Zn6   S    
O66   Zn3   S    
C27   H78   S    
C2    C89   S    
C51   C77   A    
O28   Zn9   S    
C31   H90   S    
C66   C71   A    
C45   C79   S    
C38   H3    S    
C92   O39   A    
C98   O67   A    
O35   Zn10  S    
C56   O23   A    
C86   O27   A    
C113  H34   S    
C32   H91   S    
O56   Zn2   S    
H63   O44   S    
O26   Zn11  S    
C51   O49   S    
O33   Zn11  S    
C28   H80   S    
C7    C25   S    
C103  C109  A    
C32   C33   S    
C108  C116  A    
C5    O63   S    
C6    O64   S    
C20   C114  S    
O43   Zn4   S    
C64   H10   S    
C36   H99   S    
C121  H30   S    
C100  O47   S    
C85   C118  S    
C122  H54   S    
C52   C57   A    
C5    C131  S    
C20   H39   S    
C12   C122  S    
C110  H50   S    
C101  C116  S    
C70   H15   S    
C83   C123  A    
C8    C35   T    
C68   H13   S    
C30   H87   S    
C44   C49   T    
O12   Zn1   S    
C78   H58   S    
C17   C110  S    
C37   H102  S    
C83   C92   S    
C84   O22   A    
C90   O30   A    
H68   O50   S    
C113  H72   S    
H73   O54   S    
C121  C124  A    
C94   O43   A    
C5    C22   S    
C19   H8    S    
C125  C128  A    
C95   O68   A    
C102  C108  A    
C24   H57   S    
O40   Zn12  S    
C18   H17   S    
C43   C48   T    
C107  H24   S    
C68   C72   A    
O13   Zn7   S    
C29   H85   S    
C71   H16   S    
C16   C24   S    
C13   H56   S    
C34   H98   S    
C24   C111  S    
O27   Zn8   S    
C78   C122  S    
C109  H26   S    
C71   C80   A    
H4    O62   S    
C28   H82   S    
C94   C129  S    
O17   Zn5   S    
C91   O37   A    
C75   O20   A    
C29   H84   S    
O39   Zn11  S    
C127  H40   S    
O7    Zn3   S    
C99   O5    A    
O36   Zn8   S    
C17   H94   S    
C59   O57   S    
C27   H79   S    
C33   C34   S    
C89   H59   S    
C131  O59   S    
C83   C121  A    
C76   O17   A    
C107  C115  A    
C120  H29   S    
O4    Zn3   S    
O6    Zn2   S    
C13   C15   S    
C92   O38   A    
C73   O14   A    
C15   C113  S    
C84   O24   A    
C26   H76   S    
C85   O25   A    
C46   C50   T    
C13   C100  S    
O21   Zn7   S    
C78   O44   S    
H74   O55   S    
O22   Zn8   S    
C4    C21   S    
O23   Zn5   S    
C11   C90   S    
C36   O61   S    
O20   Zn7   S    
C6    C23   S    
C105  H22   S    
C26   H77   S    
C42   C47   T    
C101  O7    A    
C112  H61   S    
O1    Zn1   S    
C106  H23   S    
C11   C41   T    
C27   C28   S    
C119  C126  A    
C87   O28   A    
