data_mof_unit_55130.cif
_audit_creation_date              2012-12-10T17:09:33-0500
_audit_creation_method            fapswitch 2.2
_symmetry_space_group_name_H-M    P1
_symmetry_Int_Tables_number       1
_space_group_crystal_system       triclinic
_cell_length_a                    10.491086
_cell_length_b                    10.690903
_cell_length_c                    10.148629
_cell_angle_alpha                 91.26375
_cell_angle_beta                  89.240758
_cell_angle_gamma                 91.165782
_cell_volume                      1137.656195

loop_
_atom_site_label
_atom_site_type_symbol
_atom_type_description
_atom_site_fract_x
_atom_site_fract_y
_atom_site_fract_z
_atom_type_partial_charge
C1    C     C_R   0.503608 0.263091 0.498111 0.966530
C2    C     C_2   0.594194 0.533894 0.066493 0.428927
C3    C     C_R   0.257872 0.500378 0.500832 0.883146
C4    C     C_R   0.505208 0.737185 0.501510 0.974058
C5    C     C_R   0.742164 0.499358 0.499331 0.969687
C6    C     C_3   0.039298 0.525453 0.624830 -0.187724
C7    C     C_3   0.955010 0.411493 0.582501 -0.194223
C8    C     C_3   0.877372 0.498828 0.498561 -0.116086
C9    C     C_3   0.959998 0.610887 0.539936 0.454000
C10   C     C_3   0.045729 0.588146 0.418429 -0.216883
C11   C     C_3   0.961630 0.473854 0.376922 -0.100114
C12   C     C_3   0.041651 0.386671 0.460781 -0.106879
C13   C     C_3   0.122833 0.500703 0.502483 -0.089497
C14   C     C_2   0.553974 0.931230 0.396912 -0.136614
C15   C     C_2   0.528218 0.868775 0.506567 -0.326295
C16   C     C_2   0.573172 0.065231 0.403840 0.477122
C17   C     C_2   0.502665 0.130515 0.492040 -0.452495
C18   C     C_2   0.599574 0.494189 0.924809 -0.029799
H1    H     H_    0.913650 0.339345 0.648463 0.191970
H2    H     H_    0.249753 0.260958 0.181973 0.367480
H3    H     H_    0.992095 0.932845 0.663782 0.393303
H4    H     H_    0.080068 0.294822 0.428403 0.175244
H5    H     H_    0.531346 0.913954 0.603510 0.182312
H6    H     H_    0.849742 0.060536 0.182180 0.388501
H7    H     H_    0.074361 0.547628 0.725593 0.209152
H8    H     H_    0.086416 0.660778 0.352627 0.188763
H9    H     H_    0.926697 0.448516 0.277240 0.239437
H10   H     H_    0.561762 0.884463 0.301190 0.239797
H11   H     H_    0.434102 0.085561 0.557650 0.140386
H12   H     H_    0.690609 0.471240 0.879486 0.184599
H13   H     H_    0.427539 0.552103 0.891725 0.218793
H14   H     H_    0.923299 0.639167 0.102943 0.395038
N1    N     N_2   0.501360 0.501330 0.852150 -0.174426
N2    N     N_2   0.501400 0.501360 0.147810 -0.006824
O1    O     O_R   0.499980 0.319060 0.613040 -0.602439
O2    O     O_2   0.707955 0.694816 0.246162 -0.257662
O3    O     O_3   0.858261 0.572387 0.086385 -0.580203
O4    O     O_2   0.276693 0.459793 0.033084 -0.337826
O5    O     O_2   0.437759 0.298021 0.998317 -0.266118
O6    O     O_3   0.320518 0.311564 0.220836 -0.494086
O7    O     O_2   0.837503 0.819804 0.479932 -0.254925
O8    O     O_2   0.813109 0.745842 0.706537 -0.258720
O9    O     O_3   0.029183 0.851200 0.638165 -0.548245
O10   O     O_2   0.628200 0.192003 0.184228 -0.233192
O11   O     O_2   0.770183 0.226383 0.372428 -0.360261
O12   O     O_R   0.500020 0.319100 0.386900 -0.512943
O13   O     O_3   0.785935 0.017162 0.238708 -0.472274
O14   O     O_R   0.313930 0.499950 0.613050 -0.620291
O15   O     O_R   0.313970 0.499990 0.386910 -0.567355
O16   O     O_R   0.499980 0.680900 0.613100 -0.601822
O17   O     O_R   0.500020 0.680940 0.386960 -0.604715
O18   O     O_R   0.686030 0.500010 0.613090 -0.625322
O19   O     O_R   0.686070 0.500050 0.386950 -0.564072
O20   O     O_2   0.712296 0.748939 0.014588 -0.249669
S1    S     S_3+6 0.717508 0.642493 0.108579 0.047856
S2    S     S_3+6 0.384089 0.392235 0.095218 0.117226
S3    S     S_3+6 0.904110 0.760526 0.592075 0.042265
S4    S     S_3+6 0.691032 0.130919 0.297654 0.072449
Zn1   Zn    Zn3+2 0.499970 0.499970 0.650990 1.047716
Zn2   Zn    Zn3+2 0.500030 0.500030 0.349010 1.154240

loop_
_geom_bond_atom_site_label_1
_geom_bond_atom_site_label_2
_ccdc_geom_bond_type
C5    C8    S    
C11   C12   S    
H13   N1    S    
C5    O18   A    
N2    S2    S    
C6    C7    S    
C18   H12   S    
O18   Zn1   S    
C2    C18   S    
C17   H11   S    
C9    C10   S    
C9    S3    S    
O5    S2    D    
C3    C13   S    
C11   H9    S    
O12   Zn2   S    
C10   H8    S    
C4    C15   S    
C15   H5    S    
C3    O15   A    
O7    S3    D    
C7    C8    S    
N1    Zn1   S    
O2    S1    D    
C16   S4    S    
H14   O3    S    
C6    C13   S    
N2    Zn2   S    
C2    N2    D    
O15   Zn2   S    
C6    C9    S    
C8    C11   S    
O16   Zn1   S    
O8    S3    D    
C5    O19   A    
O19   Zn2   S    
C7    H1    S    
C2    S1    S    
C7    C12   S    
H2    O6    S    
C18   N1    D    
C14   C16   S    
C1    O12   A    
C6    H7    S    
C10   C11   S    
O9    S3    S    
C4    O17   A    
O11   S4    D    
O3    S1    S    
C12   H4    S    
C3    O14   A    
O4    S2    D    
C12   C13   S    
C1    O1    A    
O14   Zn1   S    
O1    Zn1   S    
O10   S4    D    
O6    S2    S    
O20   S1    D    
C8    C9    S    
O17   Zn2   S    
C14   H10   S    
C14   C15   D    
H6    O13   S    
C1    C17   S    
H3    O9    S    
C4    O16   A    
C16   C17   D    
O13   S4    S    
C10   C13   S    
