data_mof_unit_43526.cif
_audit_creation_date              2012-12-11T16:16:49-0500
_audit_creation_method            fapswitch 2.2
_symmetry_space_group_name_H-M    P1
_symmetry_Int_Tables_number       1
_space_group_crystal_system       triclinic
_cell_length_a                    13.26644
_cell_length_b                    13.275326
_cell_length_c                    28.534583
_cell_angle_alpha                 89.904606
_cell_angle_beta                  90.206377
_cell_angle_gamma                 119.999015
_cell_volume                      4352.14385219

loop_
_atom_site_label
_atom_site_type_symbol
_atom_type_description
_atom_site_fract_x
_atom_site_fract_y
_atom_site_fract_z
_atom_type_partial_charge
C1    C     C_R   0.439344 0.550031 0.316431 0.539696
C2    C     C_R   0.549641 0.439308 0.683660 0.538753
C3    C     C_3   0.303000 0.033844 0.552346 -0.259469
C4    C     C_3   0.355115 0.161336 0.567235 -0.290768
C5    C     C_3   0.269795 0.176827 0.597964 -0.444236
C6    C     C_3   0.051584 0.324691 0.944974 -0.255623
C7    C     C_3   0.170212 0.398996 0.921195 -0.300361
C8    C     C_3   0.204396 0.323537 0.892753 -0.445283
C9    C     C_3   0.729354 0.696862 0.553467 -0.259310
C10   C     C_3   0.804638 0.644700 0.568662 -0.291158
C11   C     C_3   0.905404 0.729965 0.599668 -0.444044
C12   C     C_R   0.561547 0.111722 0.816507 0.540859
C13   C     C_R   0.889492 0.450242 0.683742 0.539045
C14   C     C_1   0.063740 0.525045 0.362436 -0.029345
C15   C     C_1   0.462668 0.938581 0.138443 -0.030024
C16   C     C_1   0.476024 0.537713 0.362083 -0.031980
C17   C     C_1   0.058805 0.523807 0.138677 -0.027789
C18   C     C_1   0.462936 0.938055 0.362124 -0.036682
C19   C     C_1   0.474186 0.537431 0.138108 -0.027692
C20   C     C_1   0.528185 0.066350 0.862448 -0.029589
C21   C     C_R   0.110672 0.560951 0.183690 0.540841
C22   C     C_1   0.943906 0.465539 0.639232 -0.034931
C23   C     C_1   0.537060 0.473494 0.861925 -0.028774
C24   C     C_1   0.520540 0.055731 0.639092 -0.034962
C25   C     C_1   0.937734 0.462807 0.862124 -0.031852
C26   C     C_1   0.533965 0.478993 0.639125 -0.036272
C27   C     C_R   0.993437 0.382280 0.475878 0.029738
C28   C     C_R   0.368113 0.939620 0.021443 0.022792
C29   C     C_R   0.619135 0.612291 0.475650 0.046013
C30   C     C_R   0.021415 0.398414 0.024663 0.025724
C31   C     C_R   0.388126 0.007466 0.475075 0.047037
C32   C     C_R   0.450098 0.889098 0.316478 0.540036
C33   C     C_R   0.557291 0.632075 0.020518 0.022756
C34   C     C_R   0.378288 0.957440 0.972073 0.023369
C35   C     C_R   0.987815 0.378449 0.525875 0.029981
C36   C     C_R   0.565535 0.622371 0.971171 0.024785
C37   C     C_R   0.389584 0.013174 0.525141 0.027340
C38   C     C_R   0.019615 0.399968 0.974634 0.027143
C39   C     C_R   0.622505 0.610550 0.525726 0.027598
C40   C     C_R   0.030354 0.579889 0.526715 -0.135988
C41   C     C_R   0.590213 0.066304 0.980361 -0.134572
C42   C     C_R   0.419700 0.454089 0.526371 -0.137177
C43   C     C_R   0.438878 0.550030 0.183643 0.541396
C44   C     C_R   0.967379 0.552443 0.977639 -0.135376
C45   C     C_R   0.546535 0.967600 0.526827 -0.135690
C46   C     C_R   0.480818 0.412110 0.979820 -0.131657
C47   C     C_R   0.580293 0.053029 0.028493 -0.136367
C48   C     C_R   0.037257 0.584081 0.478362 -0.134406
C49   C     C_R   0.477487 0.422005 0.027950 -0.133906
C50   C     C_R   0.544695 0.961316 0.478475 -0.136771
C51   C     C_R   0.976683 0.556126 0.025959 -0.136768
C52   C     C_R   0.416078 0.456353 0.477965 -0.134617
C53   C     C_R   0.018310 0.486837 0.452708 0.032470
C54   C     C_R   0.111437 0.561076 0.316605 0.541073
C55   C     C_R   0.471024 0.989558 0.049095 0.027276
C56   C     C_R   0.514388 0.532694 0.452429 0.034360
C57   C     C_R   0.003520 0.480542 0.049522 0.028619
C58   C     C_R   0.468099 0.982359 0.452374 0.034588
C59   C     C_R   0.514045 0.530165 0.048405 0.027854
C60   C     C_R   0.490834 0.018736 0.952207 0.027197
C61   C     C_R   0.003530 0.477940 0.550558 0.032886
C62   C     C_R   0.523744 0.510633 0.951482 0.027753
C63   C     C_R   0.472108 0.995731 0.550297 0.031739
C64   C     C_R   0.989030 0.476068 0.951903 0.030231
C65   C     C_R   0.449920 0.889118 0.183707 0.541014
C66   C     C_R   0.522096 0.527976 0.550376 0.031699
C67   C     C_1   0.977368 0.473195 0.599624 -0.075206
C68   C     C_1   0.507999 0.040432 0.902925 -0.073525
C69   C     C_1   0.526402 0.505643 0.599512 -0.074492
C70   C     C_1   0.966486 0.469817 0.902450 -0.073325
C71   C     C_1   0.493883 0.022047 0.599449 -0.074062
C72   C     C_1   0.529807 0.493926 0.902233 -0.073172
C73   C     C_1   0.467808 0.967175 0.098305 -0.076099
C74   C     C_1   0.037175 0.502676 0.402949 -0.073734
C75   C     C_1   0.496262 0.532646 0.097776 -0.076801
C76   C     C_R   0.550082 0.438822 0.816365 0.541161
C77   C     C_1   0.466951 0.964894 0.402594 -0.072429
C78   C     C_1   0.027731 0.500120 0.098720 -0.073337
C79   C     C_1   0.498870 0.533956 0.402600 -0.069493
C80   C     C_3   0.971995 0.276897 0.447206 -0.252657
C81   C     C_3   0.086319 0.278043 0.437905 -0.296024
C82   C     C_3   0.065004 0.168890 0.411797 -0.455357
C83   C     C_3   0.249954 0.868334 0.044775 -0.251838
C84   C     C_3   0.204486 0.947732 0.061941 -0.298342
C85   C     C_3   0.081223 0.877357 0.081252 -0.455798
C86   C     C_3   0.727425 0.691117 0.447127 -0.243792
C87   C     C_R   0.560497 0.110441 0.683667 0.538882
C88   C     C_3   0.745463 0.813971 0.439675 -0.312892
C89   C     C_3   0.672209 0.819466 0.399408 -0.403022
C90   C     C_3   0.037338 0.308758 0.052081 -0.256357
C91   C     C_3   0.166242 0.347031 0.059096 -0.288549
C92   C     C_3   0.179677 0.258922 0.088983 -0.443682
C93   C     C_3   0.308945 0.035959 0.446020 -0.244366
C94   C     C_3   0.186239 0.930605 0.438698 -0.313960
C95   C     C_3   0.181045 0.851830 0.398695 -0.402645
C96   C     C_3   0.593532 0.748736 0.043569 -0.251054
C97   C     C_3   0.719893 0.805666 0.060904 -0.295277
C98   C     C_R   0.888809 0.449848 0.816514 0.540548
C99   C     C_3   0.762766 0.928731 0.078852 -0.453616
C100  C     C_3   0.272370 0.914626 0.940212 -0.255936
C101  C     C_3   0.244984 0.800788 0.915811 -0.304967
C102  C     C_3   0.151596 0.767733 0.878240 -0.439139
C103  C     C_3   0.970205 0.272660 0.553521 -0.259416
C104  C     C_3   0.842362 0.193410 0.567090 -0.291252
C105  C     C_3   0.828658 0.093865 0.598355 -0.444782
C106  C     C_3   0.620110 0.728158 0.939141 -0.254533
C107  C     C_3   0.526276 0.744460 0.914494 -0.304466
C108  C     C_3   0.578555 0.832946 0.874884 -0.439481
Cr1   Cr    Cr6+3 0.505050 0.756260 0.250000 1.010457
Cr2   Cr    Cr6+3 0.251210 0.494950 0.250000 1.016077
Cr3   Cr    Cr6+3 0.243740 0.748790 0.250000 1.010655
Cr4   Cr    Cr6+3 0.756260 0.505050 0.750000 1.012237
Cr5   Cr    Cr6+3 0.494950 0.251210 0.750000 1.012119
Cr6   Cr    Cr6+3 0.748790 0.243740 0.750000 1.012531
H1    H     H_    0.044159 0.656496 0.545528 0.109233
H2    H     H_    0.604414 0.940492 0.461273 0.110811
H3    H     H_    0.963325 0.618801 0.045149 0.111731
H4    H     H_    0.335817 0.397262 0.460121 0.107397
H5    H     H_    0.009379 0.090204 0.433055 0.135771
H6    H     H_    0.021869 0.162266 0.377591 0.160877
H7    H     H_    0.149450 0.172958 0.405280 0.142364
H8    H     H_    0.145005 0.355696 0.416631 0.178862
H9    H     H_    0.130720 0.282923 0.471583 0.146775
H10   H     H_    0.908801 0.194990 0.464954 0.133966
H11   H     H_    0.930015 0.275547 0.413251 0.146667
H12   H     H_    0.676162 0.114819 0.964971 0.115848
H13   H     H_    0.019901 0.824728 0.052903 0.139001
H14   H     H_    0.078032 0.818925 0.109846 0.171599
H15   H     H_    0.053246 0.937323 0.095450 0.137981
H16   H     H_    0.262768 0.006000 0.089983 0.170936
H17   H     H_    0.204192 0.002968 0.032675 0.152063
H18   H     H_    0.186285 0.800649 0.020760 0.140859
H19   H     H_    0.255887 0.818164 0.074812 0.153636
H20   H     H_    0.686482 0.782484 0.366901 0.168486
H21   H     H_    0.578501 0.771605 0.408702 0.171604
H22   H     H_    0.697955 0.911551 0.392421 0.138100
H23   H     H_    0.342451 0.392205 0.545089 0.109589
H24   H     H_    0.725598 0.846712 0.472110 0.148441
H25   H     H_    0.838611 0.873702 0.431230 0.137390
H26   H     H_    0.805383 0.698318 0.464836 0.115318
H27   H     H_    0.725638 0.651123 0.412729 0.144357
H28   H     H_    0.137143 0.248044 0.123547 0.164241
H29   H     H_    0.140095 0.173459 0.070866 0.138956
H30   H     H_    0.273242 0.289967 0.095136 0.150184
H31   H     H_    0.208859 0.355679 0.024765 0.165124
H32   H     H_    0.211346 0.433013 0.076924 0.178604
H33   H     H_    0.995540 0.294351 0.087018 0.147965
H34   H     H_    0.943240 0.609919 0.960165 0.112803
H35   H     H_    0.989434 0.221888 0.035285 0.119535
H36   H     H_    0.217951 0.902950 0.366123 0.169309
H37   H     H_    0.229170 0.806338 0.408318 0.172059
H38   H     H_    0.088991 0.785245 0.391626 0.137653
H39   H     H_    0.154010 0.878271 0.471263 0.148673
H40   H     H_    0.125846 0.963217 0.430039 0.139257
H41   H     H_    0.301377 0.106761 0.463261 0.116440
H42   H     H_    0.348878 0.073690 0.411568 0.144659
H43   H     H_    0.765809 0.985446 0.049615 0.140587
H44   H     H_    0.704489 0.928227 0.106833 0.175799
H45   H     H_    0.608498 0.952723 0.545941 0.109680
H46   H     H_    0.851987 0.965005 0.093438 0.136323
H47   H     H_    0.726229 0.752596 0.089708 0.172357
H48   H     H_    0.777771 0.809710 0.031997 0.152616
H49   H     H_    0.581922 0.807632 0.019347 0.145128
H50   H     H_    0.535434 0.737470 0.073494 0.152140
H51   H     H_    0.068242 0.750041 0.894360 0.154491
H52   H     H_    0.179306 0.838851 0.852134 0.153934
H53   H     H_    0.138112 0.688631 0.859633 0.150944
H54   H     H_    0.324390 0.810094 0.898835 0.165186
H55   H     H_    0.214776 0.729612 0.942056 0.163547
H56   H     H_    0.450704 0.326930 0.964576 0.119042
H57   H     H_    0.194465 0.902761 0.959203 0.131755
H58   H     H_    0.289191 0.982523 0.913613 0.147903
H59   H     H_    0.852614 0.036625 0.578782 0.132518
H60   H     H_    0.884767 0.128572 0.629976 0.162983
H61   H     H_    0.737071 0.041449 0.610120 0.156513
H62   H     H_    0.809133 0.243524 0.586284 0.183218
H63   H     H_    0.788730 0.157020 0.534964 0.156726
H64   H     H_    0.001556 0.221585 0.534027 0.130641
H65   H     H_    0.025097 0.302318 0.585678 0.145101
H66   H     H_    0.644021 0.919279 0.889007 0.162749
H67   H     H_    0.658580 0.090626 0.049766 0.112119
H68   H     H_    0.620769 0.804184 0.848734 0.154305
H69   H     H_    0.508529 0.840764 0.856873 0.143576
H70   H     H_    0.457738 0.660692 0.899437 0.165338
H71   H     H_    0.484378 0.774611 0.940251 0.160408
H72   H     H_    0.681382 0.808956 0.958007 0.132358
H73   H     H_    0.675265 0.717058 0.912753 0.147959
H74   H     H_    0.190098 0.156288 0.577694 0.132615
H75   H     H_    0.245384 0.119062 0.629106 0.162433
H76   H     H_    0.310806 0.267941 0.610508 0.158380
H77   H     H_    0.437063 0.190912 0.587253 0.182927
H78   H     H_    0.057354 0.664144 0.460832 0.109939
H79   H     H_    0.375806 0.217139 0.535651 0.158162
H80   H     H_    0.222322 0.007444 0.532040 0.129718
H81   H     H_    0.274262 0.976907 0.583855 0.144598
H82   H     H_    0.217381 0.264145 0.916257 0.148670
H83   H     H_    0.135909 0.271506 0.866480 0.154648
H84   H     H_    0.286826 0.379894 0.873904 0.158121
H85   H     H_    0.167490 0.463735 0.897323 0.164885
H86   H     H_    0.238401 0.447325 0.948110 0.162615
H87   H     H_    0.055822 0.256286 0.965495 0.134966
H88   H     H_    0.982981 0.277945 0.918040 0.144934
H89   H     H_    0.444204 0.344296 0.049272 0.112351
H90   H     H_    0.964422 0.809732 0.579596 0.131421
H91   H     H_    0.871923 0.754133 0.630769 0.162791
H92   H     H_    0.955750 0.689099 0.612250 0.159134
H93   H     H_    0.752198 0.562855 0.588551 0.183482
H94   H     H_    0.839758 0.623883 0.537204 0.157269
H95   H     H_    0.783845 0.777640 0.533433 0.129046
H96   H     H_    0.700696 0.725313 0.584866 0.144861
O1    O     O_R   0.530190 0.870330 0.301660 -0.512273
O2    O     O_R   0.870330 0.530190 0.698340 -0.514219
O3    O     O_R   0.469810 0.340140 0.801660 -0.512409
O4    O     O_R   0.659860 0.129670 0.698340 -0.513017
O5    O     O_R   0.494300 0.651190 0.297490 -0.498698
O6    O     O_R   0.156890 0.505700 0.202510 -0.493574
O7    O     O_R   0.348810 0.843110 0.297490 -0.497558
O8    O     O_R   0.494300 0.651190 0.202510 -0.492848
O9    O     O_R   0.156890 0.505700 0.297490 -0.491369
O10   O     O_R   0.348810 0.843110 0.202510 -0.492225
O11   O     O_R   0.651190 0.494300 0.797490 -0.491458
O12   O     O_R   0.340140 0.469810 0.198340 -0.511490
O13   O     O_R   0.505700 0.156890 0.702510 -0.493316
O14   O     O_R   0.843110 0.348810 0.797490 -0.491435
O15   O     O_R   0.651190 0.494300 0.702510 -0.493085
O16   O     O_R   0.505700 0.156890 0.797490 -0.491962
O17   O     O_R   0.843110 0.348810 0.702510 -0.493115
O18   O     O_3   0.333333 0.666667 0.250000 -0.235901
O19   O     O_3   0.666667 0.333333 0.750000 -0.235507
O20   O     O_R   0.129670 0.659860 0.301660 -0.514394
O21   O     O_R   0.530190 0.870330 0.198340 -0.512615
O22   O     O_R   0.340140 0.469810 0.301660 -0.507157
O23   O     O_R   0.129670 0.659860 0.198340 -0.511457
O24   O     O_R   0.870330 0.530190 0.801660 -0.510769
O25   O     O_R   0.469810 0.340140 0.698340 -0.513374
O26   O     O_R   0.659860 0.129670 0.801660 -0.511826

loop_
_geom_bond_atom_site_label_1
_geom_bond_atom_site_label_2
_ccdc_geom_bond_type
C49   H89   S    
C101  C102  S    
C89   H21   S    
C40   H1    S    
C100  H58   S    
Cr4   O11   S    
Cr6   O4    S    
C8    H84   S    
C53   C74   S    
C45   H45   S    
Cr5   O3    S    
C23   C76   S    
C30   C90   S    
Cr6   O19   S    
C81   C82   S    
C90   C91   S    
C54   O9    A    
C104  H62   S    
C44   C64   A    
C46   C49   A    
C108  H66   S    
C102  H53   S    
C56   C79   S    
C12   C20   S    
C81   H9    S    
C86   H27   S    
Cr3   O18   S    
C14   C74   T    
C31   C58   A    
C106  H73   S    
C6    H88   S    
C35   C103  S    
C47   H67   S    
C18   C77   T    
C86   C88   S    
C66   C69   S    
C106  C107  S    
C15   C65   S    
C30   C57   A    
C9    C39   S    
C33   C36   A    
C30   C38   A    
Cr5   O25   S    
C7    H86   S    
Cr4   O2    S    
C92   H29   S    
C10   H94   S    
Cr5   O13   S    
Cr1   O8    S    
C58   C77   S    
C85   H15   S    
Cr6   O17   S    
C76   O3    A    
C28   C55   A    
C80   H11   S    
C21   O23   A    
C83   C84   S    
C28   C83   S    
C9    H95   S    
C3    C37   S    
C98   O14   A    
C1    O5    A    
C34   C100  S    
C107  C108  S    
C6    C38   S    
C101  H55   S    
C51   C57   A    
C11   H92   S    
C82   H6    S    
C92   H28   S    
C9    C10   S    
C82   H7    S    
C103  H65   S    
C32   O7    A    
C86   H26   S    
C33   C59   A    
C28   C34   A    
C102  H52   S    
C89   H22   S    
C105  H59   S    
C99   H46   S    
C42   H23   S    
C34   C60   A    
C13   O2    A    
C4    H77   S    
C8    H83   S    
C4    H79   S    
C82   H5    S    
C90   H35   S    
C36   C62   A    
C57   C78   S    
C104  C105  S    
C37   C63   A    
Cr1   O18   S    
C19   C43   S    
C38   C64   A    
C48   C53   A    
C41   H12   S    
C3    H80   S    
C83   H19   S    
C65   O21   A    
C36   C106  S    
C50   C58   A    
C7    C8    S    
C43   O12   A    
C84   C85   S    
C106  H72   S    
C6    H87   S    
C35   C61   A    
C27   C80   S    
C97   C99   S    
C91   C92   S    
C1    C16   S    
C32   O1    A    
C80   C81   S    
Cr6   O26   S    
C27   C35   A    
C31   C93   S    
C45   C63   A    
C3    H81   S    
Cr4   O19   S    
C96   H50   S    
C31   C37   A    
C87   O13   A    
C101  H54   S    
Cr2   O6    S    
C10   H93   S    
C88   H25   S    
C90   H33   S    
Cr4   O15   S    
C61   C67   S    
C12   O16   A    
C104  H63   S    
C98   O24   A    
C93   H41   S    
C9    H96   S    
C94   H40   S    
C96   C97   S    
C29   C39   A    
C41   C47   A    
C21   O6    A    
C62   C72   S    
C2    C26   S    
C95   H36   S    
Cr2   O9    S    
C88   H24   S    
C29   C86   S    
Cr2   O22   S    
C44   C51   A    
C15   C73   T    
C46   C62   A    
C102  H51   S    
C64   C70   S    
C105  H60   S    
C99   H43   S    
C39   C66   A    
C85   H13   S    
C43   O8    A    
C18   C32   S    
Cr3   O10   S    
C3    C4    S    
Cr2   O12   S    
C33   C96   S    
C59   C75   S    
C91   H31   S    
Cr3   O20   S    
C47   C55   A    
C80   H10   S    
C40   C48   A    
C12   O26   A    
C44   H34   S    
C89   H20   S    
C108  H69   S    
C14   C54   S    
C23   C72   T    
C20   C68   T    
C93   H42   S    
C41   C60   A    
C63   C71   S    
C4    C5    S    
Cr1   O5    S    
C13   O17   A    
C65   O10   A    
C27   C53   A    
Cr5   O19   S    
C6    C7    S    
C25   C70   T    
C29   C56   A    
C76   O11   A    
C11   H91   S    
C93   C94   S    
C107  H71   S    
C84   H17   S    
C97   H47   S    
C49   C59   A    
C96   H49   S    
C108  H68   S    
C81   H8    S    
C103  H64   S    
C10   C11   S    
C16   C79   T    
C19   C75   T    
C5    H75   S    
C83   H18   S    
Cr2   O18   S    
Cr1   O21   S    
C1    O22   A    
Cr5   O16   S    
C45   C50   A    
C94   H39   S    
Cr4   O24   S    
C84   H16   S    
C17   C78   T    
C51   H3    S    
C87   O4    A    
C13   C22   S    
C8    H82   S    
C50   H2    S    
C11   H90   S    
C7    H85   S    
C94   C95   S    
C92   H30   S    
C24   C87   S    
C17   C21   S    
C22   C67   T    
C48   H78   S    
C60   C68   S    
C40   C61   A    
C2    O25   A    
C55   C73   S    
C46   H56   S    
C25   C98   S    
C95   H37   S    
C88   C89   S    
C24   C71   T    
Cr3   O23   S    
C97   H48   S    
C105  H61   S    
C99   H44   S    
C103  C104  S    
C42   C66   A    
C26   C69   T    
C85   H14   S    
C100  C101  S    
C95   H38   S    
Cr3   O7    S    
C5    H74   S    
Cr6   O14   S    
Cr1   O1    S    
C107  H70   S    
C54   O20   A    
C91   H32   S    
C5    H76   S    
C52   C56   A    
C2    O15   A    
C42   C52   A    
C100  H57   S    
C52   H4    S    
