data_mof_unit_67150.cif
_audit_creation_date              2013-03-05T15:58:57-0500
_audit_creation_method            fapswitch 2.2
_symmetry_space_group_name_H-M    P1
_symmetry_Int_Tables_number       1
_space_group_crystal_system       triclinic
_cell_length_a                    8.36598
_cell_length_b                    12.886263
_cell_length_c                    14.876757
_cell_angle_alpha                 97.243197
_cell_angle_beta                  97.297864
_cell_angle_gamma                 98.711094
_cell_volume                      1555.09611674

loop_
_atom_site_label
_atom_site_type_symbol
_atom_site_description
_atom_site_fract_x
_atom_site_fract_y
_atom_site_fract_z
_atom_type_partial_charge
P1    P     P_3+3 0.998730 0.403530 0.291970 0.484914
O1    O     O_2   0.827880 0.435260 0.277750 -0.363058
O2    O     O_3   0.100280 0.438960 0.391170 -0.363080
O3    O     O_3   0.625580 0.634130 0.333250 -0.405474
O4    O     O_2   0.673698 0.534401 0.174642 -0.330810
O5    O     O_3   0.938502 0.266300 0.284407 -0.605139
O6    O     O_3   0.649833 0.733070 0.173697 -0.477347
C1    C     C_3   0.700340 0.922547 0.204460 -0.818794
H1    H     H_    0.823730 0.927291 0.183646 0.304085
H2    H     H_    0.610827 0.926535 0.143736 0.267867
P2    P     P_3+3 0.687380 0.751030 0.571310 0.495551
P3    P     P_3+3 0.111801 0.827890 0.385269 0.550624
O7    O     O_2   0.857130 0.766340 0.543890 -0.363434
O8    O     O_3   0.056550 0.691050 0.379010 -0.347313
O9    O     O_2   0.990097 0.882366 0.436338 -0.349786
O10   O     O_3   0.720220 0.794472 0.689032 -0.668806
O11   O     O_3   0.076034 0.857901 0.273807 -0.531243
C2    C     C_3   0.157383 0.796280 0.215184 0.855454
H3    H     H_    0.251773 0.758197 0.252118 -0.165200
C3    C     C_3   0.247301 0.866895 0.155869 -0.789947
H4    H     H_    0.161863 0.909286 0.117480 0.305324
C4    C     C_3   0.360014 0.788732 0.715974 0.630397
H5    H     H_    0.411380 0.740317 0.663491 0.038295
C5    C     C_3   0.484665 0.817472 0.805127 -0.130509
H6    H     H_    0.538145 0.746644 0.814893 0.153891
H7    H     H_    0.584420 0.880690 0.798686 0.126325
Ba1   Ba    Ba6+2 0.843750 0.550210 0.455600 1.660632
C6    C     C_3   0.046822 0.210558 0.241417 0.840615
H8    H     H_    0.169006 0.259776 0.244965 -0.031595
C7    C     C_3   0.974354 0.169840 0.140965 -1.049606
H9    H     H_    0.841297 0.139247 0.134617 0.264937
H10   H     H_    0.035275 0.105200 0.111981 0.289548
H11   H     H_    0.994554 0.233701 0.098781 0.244867
C8    C     C_3   0.846102 0.755988 0.738843 0.549385
H12   H     H_    0.931517 0.727758 0.694658 0.101324
C9    C     C_3   0.941353 0.851532 0.809719 -0.143447
H13   H     H_    0.048751 0.888421 0.781757 0.158959
H14   H     H_    0.865270 0.914120 0.818516 0.119370
P4    P     P_3+3 0.190990 0.596560 0.708040 0.483250
O12   O     O_2   0.361830 0.564780 0.722310 -0.366674
O13   O     O_3   0.089430 0.561130 0.608830 -0.378360
O14   O     O_3   0.564130 0.365960 0.666760 -0.356413
O15   O     O_3   0.213463 0.734743 0.734671 -0.620004
P5    P     P_3+3 0.074457 0.173243 0.621868 0.470784
O16   O     O_3   0.601940 0.368240 0.453770 -0.391700
O17   O     O_3   0.133170 0.309040 0.621000 -0.389043
O18   O     O_2   0.219720 0.116542 0.601479 -0.353942
O19   O     O_3   0.051614 0.163062 0.736342 -0.632757
Ba2   Ba    Ba6+2 0.346090 0.449880 0.544410 1.665671
P6    P     P_3+3 0.574437 0.615889 0.214053 0.488631
C10   C     C_3   0.654799 0.819530 0.242381 0.478599
H15   H     H_    0.534449 0.819244 0.266441 -0.022944
H16   H     H_    0.700386 0.991290 0.257628 0.217499
O20   O     O_3   0.587780 0.631850 0.546230 -0.344773
C11   C     C_3   0.522857 0.274804 0.256538 0.363848
H17   H     H_    0.495651 0.355266 0.278418 0.101196
H18   H     H_    0.654143 0.272675 0.270198 0.158996
C12   C     C_3   0.468769 0.244774 0.153526 -0.924550
H19   H     H_    0.334181 0.235516 0.136229 0.266607
H20   H     H_    0.523893 0.307995 0.117223 0.235713
H21   H     H_    0.507946 0.168942 0.128850 0.266071
P7    P     P_3+3 0.502929 0.233288 0.420646 0.468321
O21   O     O_2   0.332590 0.233690 0.456160 -0.326790
O22   O     O_3   0.441562 0.199666 0.302121 -0.544176
H22   H     H_    0.305330 0.818033 0.106763 0.246767
C13   C     C_3   0.197761 0.204320 0.796421 0.801433
H23   H     H_    0.289958 0.251154 0.763605 0.106152
C14   C     C_3   0.264612 0.111867 0.830628 -0.746948
H24   H     H_    0.372135 0.139668 0.884760 0.256001
H25   H     H_    0.168250 0.064335 0.860525 0.257976
H26   H     H_    0.299514 0.062235 0.772772 0.268307
P8    P     P_3+3 0.615732 0.378476 0.784864 0.509895
C15   C     C_3   0.662139 0.187150 0.756954 0.355968
H27   H     H_    0.782257 0.229092 0.745097 0.091543
O23   O     O_2   0.490755 0.437288 0.829001 -0.345602
O24   O     O_3   0.580520 0.250892 0.812751 -0.574950
H28   H     H_    0.583634 0.158538 0.689683 0.136490
H29   H     H_    0.780964 0.118059 0.867724 0.285027
C16   C     C_3   0.694498 0.092950 0.803292 -0.779439
H30   H     H_    0.745589 0.037854 0.755812 0.224586
H31   H     H_    0.579372 0.052801 0.821366 0.265270
C17   C     C_R   0.829469 0.438733 0.829416 0.254642
C18   C     C_R   0.894771 0.447486 0.922919 0.042181
C19   C     C_R   0.036637 0.452535 0.108493 0.014554
C20   C     C_R   0.874658 0.403532 0.076157 -0.094289
C21   C     C_R   0.803580 0.403762 0.986415 -0.073967
C22   C     C_R   0.107831 0.458448 0.201746 0.185905
H32   H     H_    0.801203 0.362395 0.119242 0.150189
H33   H     H_    0.677567 0.365723 0.967310 0.180893
C23   C     C_R   0.267042 0.512753 0.230445 -0.438728
C24   C     C_R   0.086359 0.529333 0.794843 0.224045
C25   C     C_R   0.154213 0.539456 0.889221 -0.014506
C26   C     C_R   0.059205 0.496003 0.952715 0.122052
C27   C     C_R   0.315202 0.589433 0.922198 0.058628
C28   C     C_R   0.383758 0.593730 0.012876 -0.086048
C29   C     C_R   0.292572 0.551327 0.076549 -0.054089
C30   C     C_R   0.129288 0.500259 0.046097 0.124911
C31   C     C_R   0.359643 0.558588 0.169686 0.143671
C32   C     C_R   0.929019 0.472502 0.766290 -0.408105
H34   H     H_    0.393010 0.624498 0.878620 0.165577
H35   H     H_    0.321490 0.517812 0.301205 0.164039
H36   H     H_    0.878741 0.460884 0.694350 0.179047
C33   C     C_R   0.778512 0.174677 0.512409 -0.397579
C34   C     C_R   0.422405 0.810191 0.469158 -0.449642
C35   C     C_R   0.388326 0.985376 0.436500 -0.149380
C36   C     C_R   0.324393 0.879013 0.435661 0.253501
C37   C     C_R   0.584118 0.847246 0.510021 0.282804
C38   C     C_R   0.651299 0.957855 0.512687 -0.008908
C39   C     C_R   0.551751 0.026604 0.472583 -0.056968
C40   C     C_R   0.616666 0.135764 0.472954 0.183509
C41   C     C_R   0.875304 0.110337 0.554229 0.305744
C42   C     C_R   0.811032 0.003475 0.556614 -0.183100
H37   H     H_    0.307941 0.035484 0.409901 0.222863
H38   H     H_    0.886198 0.957901 0.594508 0.197663
H39   H     H_    0.828643 0.257418 0.513275 0.165793
H40   H     H_    0.369216 0.727865 0.467489 0.154333
H41   H     H_    0.748703 0.817203 0.301494 0.155983
N1    N     N_R   0.416826 0.849286 0.887690 0.282998
O25   O     O_R   0.336958 0.927780 0.891213 -0.397534
O26   O     O_R   0.477450 0.822278 0.964496 -0.377803
N2    N     N_R   0.069973 0.119984 0.288001 0.247544
O27   O     O_R   0.168170 0.058235 0.260331 -0.419925
O28   O     O_R   0.996534 0.101035 0.357718 -0.396401
N3    N     N_R   0.770797 0.664897 0.777021 0.178278
O29   O     O_R   0.677634 0.589163 0.719611 -0.373191
O30   O     O_R   0.768508 0.664488 0.864305 -0.388805
N4    N     N_R   0.995617 0.826536 0.900026 0.315093
O31   O     O_R   0.949203 0.875339 0.971668 -0.323386
O32   O     O_R   0.096155 0.760026 0.910229 -0.324954
N5    N     N_R   0.164702 0.272129 0.875710 0.199608
O33   O     O_R   0.027108 0.249416 0.906615 -0.464053
O34   O     O_R   0.287672 0.329847 0.931285 -0.442921
N6    N     N_R   0.035962 0.712507 0.159405 0.214215
O35   O     O_R   0.956083 0.643620 0.200488 -0.340590
O36   O     O_R   0.992283 0.711757 0.072301 -0.319116
H42   H     H_    0.510299 0.630132 0.031241 0.217706
H43   H     H_    0.344478 0.926545 0.199964 0.220258
N7    N     N_R   0.327401 0.883685 0.677539 0.198181
O37   O     O_R   0.180613 0.888083 0.638871 -0.400370
O38   O     O_R   0.448050 0.952111 0.662553 -0.501363

loop_
_geom_bond_atom_site_label_1
_geom_bond_atom_site_label_2
_geom_bond_distance
_ccdc_geom_bond_type
P1    C22   1.868330 S    
C13   C14   1.507823 S    
C11   H17   1.112663 S    
Ba2   O21   2.905558 S    
C17   C32   1.398887 A    
N5    O34   1.300842 A    
C28   C29   1.402009 A    
C19   C22   1.426466 A    
P8    O24   1.737310 S    
C34   C36   1.391078 A    
O2    Ba2   2.843636 S    
Ba1   O20   2.927227 S    
P4    O13   1.581989 S    
C20   C21   1.391351 A    
O17   Ba2   2.796951 S    
C33   C40   1.395531 A    
C19   C30   1.422331 A    
C35   H37   1.074309 S    
C9    H13   1.105320 S    
C5    H7    1.096982 S    
C8    H12   1.101276 S    
C7    H9    1.111046 S    
C12   H20   1.108357 S    
Ba2   O20   2.849849 S    
C18   C26   1.412251 A    
O16   P7    1.788023 S    
C38   C39   1.436988 A    
C2    N6    1.453829 S    
C33   C41   1.391264 A    
C2    H3    1.114198 S    
C15   H27   1.112482 S    
O13   Ba2   2.948377 S    
N1    O25   1.293287 A    
C28   H42   1.076654 S    
P7    O22   1.752259 S    
O10   C8    1.398835 S    
C34   H40   1.082424 S    
O5    C6    1.405270 S    
C41   C42   1.406958 A    
C14   H24   1.109790 S    
C29   C31   1.413274 A    
P3    O11   1.749108 S    
C37   C38   1.444459 A    
O1    Ba1   2.841677 S    
O16   Ba2   2.926456 S    
O8    Ba1   2.796360 S    
C2    C3    1.528506 S    
P5    O18   1.552255 D    
P1    Ba1   3.400503 S    
Ba1   O16   2.850407 S    
C12   H21   1.110954 S    
C13   H23   1.107456 S    
C29   C30   1.414084 A    
P8    O23   1.545195 D    
P4    C24   1.877200 S    
P5    O17   1.746591 S    
P6    C31   1.839513 S    
Ba1   Ba2   4.576996 S    
C10   H15   1.110245 S    
C3    H22   1.110193 S    
C5    H6    1.093137 S    
P4    O12   1.541964 D    
C16   H31   1.103418 S    
H29   C16   1.105221 S    
C1    H1    1.109986 S    
P4    O15   1.750667 S    
C12   H19   1.107332 S    
C38   C42   1.414816 A    
O3    P6    1.747697 S    
P1    O2    1.581834 S    
C3    H43   1.109142 S    
C33   H39   1.082870 S    
N4    O32   1.297600 A    
C23   H35   1.082470 S    
P7    O21   1.582014 D    
C27   H34   1.067788 S    
Ba1   O13   2.842864 S    
C4    O15   1.393421 S    
P7    C40   1.873762 S    
P3    O9    1.544420 D    
P2    Ba1   3.441745 S    
C11   O22   1.393975 S    
C32   H36   1.082076 S    
O14   P8    1.736139 S    
O11   C2    1.412156 S    
C15   C16   1.511674 S    
C19   C20   1.401806 A    
C1    C10   1.521825 S    
N2    O27   1.295689 A    
P2    O20   1.606565 S    
N7    O38   1.297356 A    
C42   H38   1.078616 S    
C1    H2    1.109504 S    
P4    Ba2   3.401062 S    
P3    O8    1.741416 S    
C11   H18   1.096455 S    
P2    C37   1.877317 S    
N6    O35   1.291909 A    
C15   O24   1.404249 S    
C4    C5    1.546448 S    
O4    P6    1.539023 D    
C11   C12   1.524559 S    
C9    N4    1.453705 S    
N4    O31   1.300884 A    
C26   C30   1.428587 A    
C24   C25   1.428093 A    
O3    Ba1   2.839729 S    
N3    O30   1.301727 A    
C20   H32   1.075435 S    
C35   C39   1.400457 A    
C6    H8    1.109680 S    
C8    N3    1.460259 S    
C7    H11   1.102109 S    
C6    N2    1.455480 S    
O6    P6    1.753514 S    
C21   H33   1.079195 S    
C1    H16   1.110628 S    
P3    C36   1.827847 S    
C35   C36   1.391676 A    
C4    N7    1.461670 S    
C5    N1    1.455823 S    
O19   C13   1.407861 S    
O2    Ba1   2.947513 S    
N5    O33   1.299404 A    
O6    C10   1.405434 S    
C39   C40   1.428129 A    
C9    H14   1.105809 S    
C7    H10   1.110571 S    
P2    O7    1.518117 D    
C25   C27   1.399689 A    
C14   H26   1.103049 S    
P1    O1    1.541730 D    
C6    C7    1.533569 S    
C25   C26   1.423670 A    
C10   H41   1.108911 S    
C8    C9    1.557121 S    
C27   C28   1.388086 A    
N1    O26   1.300174 A    
N2    O28   1.301185 A    
P2    O10   1.743542 S    
N7    O37   1.300767 A    
O14   Ba2   2.839057 S    
C16   H30   1.108088 S    
P5    C41   1.845227 S    
P5    O19   1.756515 S    
C18   C21   1.406727 A    
C3    H4    1.108467 S    
C14   H25   1.110465 S    
C17   C18   1.412379 A    
C22   C23   1.394256 A    
P1    O5    1.749062 S    
N6    O36   1.299334 A    
C15   H28   1.111510 S    
C4    H5    1.107756 S    
O7    Ba1   2.905224 S    
C24   C32   1.391734 A    
C23   C31   1.392825 A    
C34   C37   1.396440 A    
P8    C17   1.840700 S    
O12   Ba2   2.842226 S    
N3    O29   1.296009 A    
C13   N5    1.458616 S    
