data_mof_unit_61152.cif
_audit_creation_date              2012-12-10T19:58:00-0500
_audit_creation_method            fapswitch 2.2
_symmetry_space_group_name_H-M    P1
_symmetry_Int_Tables_number       1
_space_group_crystal_system       triclinic
_cell_length_a                    21.261797
_cell_length_b                    21.025355
_cell_length_c                    14.294419
_cell_angle_alpha                 90.000072
_cell_angle_beta                  90.000059
_cell_angle_gamma                 90.023267
_cell_volume                      6390.1312276

loop_
_atom_site_label
_atom_site_type_symbol
_atom_type_description
_atom_site_fract_x
_atom_site_fract_y
_atom_site_fract_z
_atom_type_partial_charge
C1    C     C_R   0.086043 0.414027 0.499956 1.002915
C2    C     C_R   0.165232 0.741809 0.478419 -0.151996
C3    C     C_R   0.239471 0.664004 0.538796 -0.192345
C4    C     C_R   0.834768 0.258191 0.478418 -0.151996
C5    C     C_R   0.231564 0.325562 0.437261 -0.159695
C6    C     C_R   0.824448 0.732714 0.558214 -0.142269
C7    C     C_R   0.768436 0.674437 0.437261 -0.159695
C8    C     C_R   0.175552 0.267286 0.558214 -0.142269
C9    C     C_R   0.260529 0.835996 0.538796 -0.192345
C10   C     C_R   0.665232 0.241809 0.478418 -0.151996
C11   C     C_R   0.739471 0.164004 0.538797 -0.192345
C12   C     C_R   0.913957 0.585972 0.499956 1.002915
C13   C     C_R   0.334768 0.758191 0.478417 -0.151997
C14   C     C_R   0.731564 0.825563 0.437262 -0.159695
C15   C     C_R   0.324447 0.232714 0.558214 -0.142269
C16   C     C_R   0.268435 0.174436 0.437262 -0.159695
C17   C     C_R   0.675552 0.767286 0.558213 -0.142269
C18   C     C_R   0.806274 0.382630 0.534264 0.358028
C19   C     C_R   0.118738 0.695984 0.476141 0.317975
C20   C     C_R   0.193726 0.617370 0.534264 0.358028
C21   C     C_R   0.881262 0.304016 0.476141 0.317976
C22   C     C_R   0.185817 0.372240 0.438047 0.390151
C23   C     C_R   0.914349 0.414044 0.500200 0.995046
C24   C     C_R   0.870704 0.686607 0.560019 0.377665
C25   C     C_R   0.814182 0.627760 0.438047 0.390151
C26   C     C_R   0.129296 0.313393 0.560019 0.377665
C27   C     C_R   0.306274 0.882630 0.534265 0.358030
C28   C     C_R   0.618738 0.195984 0.476141 0.317976
C29   C     C_R   0.693726 0.117370 0.534265 0.358029
C30   C     C_R   0.381261 0.804016 0.476140 0.317977
C31   C     C_R   0.685818 0.872240 0.438048 0.390150
C32   C     C_R   0.370704 0.186607 0.560019 0.377663
C33   C     C_R   0.314182 0.127759 0.438047 0.390150
C34   C     C_R   0.085651 0.585956 0.500200 0.995045
C35   C     C_R   0.629296 0.813393 0.560018 0.377664
C36   C     C_R   0.866412 0.366557 0.501688 -0.229722
C37   C     C_R   0.133588 0.633444 0.501688 -0.229722
C38   C     C_R   0.134279 0.366141 0.499561 -0.229239
C39   C     C_R   0.865721 0.633859 0.499561 -0.229239
C40   C     C_R   0.366412 0.866556 0.501688 -0.229722
C41   C     C_R   0.633588 0.133443 0.501688 -0.229722
C42   C     C_R   0.634279 0.866141 0.499561 -0.229240
C43   C     C_R   0.365721 0.133859 0.499561 -0.229240
C44   C     C_R   0.031577 0.452659 0.103839 0.252865
C45   C     C_R   0.586043 0.914027 0.499956 1.002914
C46   C     C_R   0.051777 0.522796 0.896248 0.244434
C47   C     C_R   0.968423 0.547341 0.103839 0.252866
C48   C     C_R   0.948223 0.477203 0.896247 0.244433
C49   C     C_R   0.531578 0.952659 0.103839 0.252866
C50   C     C_R   0.551776 0.022797 0.896248 0.244434
C51   C     C_R   0.468422 0.047340 0.103839 0.252867
C52   C     C_R   0.448224 0.977203 0.896247 0.244434
C53   C     C_R   0.774412 0.274030 0.509540 0.004431
C54   C     C_R   0.225587 0.725970 0.509540 0.004432
C55   C     C_R   0.226014 0.273715 0.497070 -0.024714
C56   C     C_R   0.413957 0.085972 0.499956 1.002914
C57   C     C_R   0.773986 0.726284 0.497071 -0.024715
C58   C     C_R   0.274412 0.774030 0.509540 0.004431
C59   C     C_R   0.725587 0.225970 0.509540 0.004432
C60   C     C_R   0.726015 0.773716 0.497071 -0.024714
C61   C     C_R   0.273985 0.226284 0.497071 -0.024715
C62   C     C_R   0.028628 0.451684 0.203131 0.451435
C63   C     C_R   0.049336 0.526316 0.796949 0.453585
C64   C     C_R   0.971372 0.548315 0.203132 0.451433
C65   C     C_R   0.950664 0.473684 0.796949 0.453586
C66   C     C_R   0.528629 0.951685 0.203131 0.451435
C67   C     C_R   0.414349 0.914044 0.500200 0.995046
C68   C     C_R   0.549335 0.026317 0.796949 0.453585
C69   C     C_R   0.471371 0.048315 0.203131 0.451433
C70   C     C_R   0.450665 0.973683 0.796949 0.453585
C71   C     C_R   0.000000 0.500000 0.052951 -0.058394
C72   C     C_R   0.000000 0.500000 0.947113 -0.047691
C73   C     C_R   0.500000 1.000000 0.052951 -0.058395
C74   C     C_R   0.500000 1.000000 0.947113 -0.047692
C75   C     C_3   0.017092 0.350112 0.252292 -0.075243
C76   C     C_3   0.091826 0.621138 0.755493 -0.071955
C77   C     C_3   0.982908 0.649888 0.252293 -0.075242
C78   C     C_R   0.585651 0.085956 0.500200 0.995045
C79   C     C_3   0.908174 0.378862 0.755493 -0.071953
C80   C     C_3   0.517094 0.850113 0.252292 -0.075242
C81   C     C_3   0.591824 0.121139 0.755493 -0.071953
C82   C     C_3   0.482905 0.149887 0.252293 -0.075240
C83   C     C_3   0.408176 0.878861 0.755492 -0.071954
C84   C     C_R   0.760529 0.335996 0.538796 -0.192345
Cl1   Cl    Cl    0.075143 0.393801 0.043948 -0.447651
Cl2   Cl    Cl    0.041852 0.719573 0.446945 -0.611773
Cl3   Cl    Cl    0.213039 0.539613 0.570482 -0.486324
Cl4   Cl    Cl    0.958147 0.280427 0.446944 -0.611773
Cl5   Cl    Cl    0.196673 0.438563 0.364084 -0.445624
Cl6   Cl    Cl    0.934729 0.698302 0.636563 -0.528320
Cl7   Cl    Cl    0.803327 0.561437 0.364083 -0.445624
Cl8   Cl    Cl    0.065271 0.301698 0.636562 -0.528321
Cl9   Cl    Cl    0.286962 0.960387 0.570483 -0.486323
Cl10  Cl    Cl    0.541853 0.219573 0.446944 -0.611774
Cl11  Cl    Cl    0.713039 0.039613 0.570484 -0.486322
Cl12  Cl    Cl    0.120334 0.547265 0.956299 -0.459133
Cl13  Cl    Cl    0.458147 0.780427 0.446943 -0.611773
Cl14  Cl    Cl    0.696673 0.938564 0.364085 -0.445624
Cl15  Cl    Cl    0.434729 0.198302 0.636561 -0.528322
Cl16  Cl    Cl    0.303326 0.061436 0.364084 -0.445624
Cl17  Cl    Cl    0.565271 0.801698 0.636561 -0.528323
Cl18  Cl    Cl    0.924857 0.606199 0.043948 -0.447651
Cl19  Cl    Cl    0.879666 0.452735 0.956299 -0.459133
Cl20  Cl    Cl    0.575145 0.893802 0.043948 -0.447651
Cl21  Cl    Cl    0.620333 0.047267 0.956299 -0.459132
Cl22  Cl    Cl    0.424855 0.106198 0.043948 -0.447651
Cl23  Cl    Cl    0.379667 0.952733 0.956299 -0.459133
Cl24  Cl    Cl    0.786961 0.460387 0.570481 -0.486324
H1    H     H_    0.714292 0.348091 0.565198 0.196660
H2    H     H_    0.654191 0.289695 0.455774 0.197415
H3    H     H_    0.785707 0.151910 0.565199 0.196661
H4    H     H_    0.345808 0.710305 0.455773 0.197415
H5    H     H_    0.771699 0.829797 0.390886 0.205225
H6    H     H_    0.327712 0.273636 0.604121 0.208961
H7    H     H_    0.228301 0.170203 0.390886 0.205225
H8    H     H_    0.672288 0.726364 0.604120 0.208961
H9    H     H_    0.971306 0.362250 0.285281 0.172747
H10   H     H_    0.039637 0.312084 0.294235 0.220921
H11   H     H_    0.008712 0.330412 0.181277 0.178038
H12   H     H_    0.154191 0.789695 0.455775 0.197415
H13   H     H_    0.045889 0.636929 0.726327 0.183375
H14   H     H_    0.096814 0.639051 0.828139 0.180684
H15   H     H_    0.129513 0.643755 0.713440 0.180822
H16   H     H_    0.028693 0.637749 0.285282 0.172747
H17   H     H_    0.991288 0.669588 0.181278 0.178038
H18   H     H_    0.960363 0.687916 0.294235 0.220921
H19   H     H_    0.954110 0.363070 0.726326 0.183375
H20   H     H_    0.870486 0.356245 0.713440 0.180822
H21   H     H_    0.903186 0.360949 0.828139 0.180684
H22   H     H_    0.471309 0.862250 0.285281 0.172748
H23   H     H_    0.285708 0.651909 0.565198 0.196661
H24   H     H_    0.539640 0.812085 0.294236 0.220920
H25   H     H_    0.508715 0.830412 0.181278 0.178039
H26   H     H_    0.545888 0.136930 0.726326 0.183375
H27   H     H_    0.596812 0.139052 0.828139 0.180684
H28   H     H_    0.629512 0.143756 0.713441 0.180822
H29   H     H_    0.528691 0.137749 0.285282 0.172747
H30   H     H_    0.491285 0.169588 0.181279 0.178038
H31   H     H_    0.460360 0.187915 0.294237 0.220919
H32   H     H_    0.454112 0.863070 0.726325 0.183376
H33   H     H_    0.370488 0.856243 0.713440 0.180822
H34   H     H_    0.845808 0.210305 0.455775 0.197415
H35   H     H_    0.403188 0.860948 0.828138 0.180684
H36   H     H_    0.271698 0.329796 0.390885 0.205225
H37   H     H_    0.827712 0.773636 0.604121 0.208961
H38   H     H_    0.728302 0.670204 0.390885 0.205225
H39   H     H_    0.172288 0.226364 0.604121 0.208961
H40   H     H_    0.214293 0.848091 0.565199 0.196661
N1    N     N_R   1.000000 0.500000 0.252470 -0.215851
N2    N     N_R   0.000000 0.500000 0.747530 -0.209530
N3    N     N_R   0.500000 0.000000 0.252470 -0.215852
N4    N     N_R   0.500000 0.000000 0.747530 -0.209530
O1    O     O_R   0.065470 0.434530 0.579480 -0.568345
O2    O     O_R   0.434530 0.065470 0.420520 -0.547813
O3    O     O_R   0.434530 0.065470 0.579480 -0.568345
O4    O     O_R   0.565470 0.934530 0.420520 -0.547813
O5    O     O_R   0.434530 0.934530 0.420520 -0.610422
O6    O     O_R   0.565470 0.065470 0.579480 -0.574428
O7    O     O_R   0.565470 0.065470 0.420520 -0.610422
O8    O     O_R   0.434530 0.934530 0.579480 -0.574429
O9    O     O_3   0.057950 0.402902 0.250234 -0.527945
O10   O     O_3   0.098743 0.554288 0.749904 -0.518493
O11   O     O_3   0.942049 0.597098 0.250235 -0.527945
O12   O     O_R   0.934530 0.565470 0.420520 -0.547812
O13   O     O_3   0.901257 0.445712 0.749904 -0.518493
O14   O     O_3   0.557952 0.902903 0.250234 -0.527945
O15   O     O_3   0.598742 0.054289 0.749905 -0.518493
O16   O     O_3   0.442048 0.097097 0.250234 -0.527944
O17   O     O_3   0.401258 0.945711 0.749904 -0.518493
O18   O     O_R   0.934530 0.565470 0.579480 -0.568345
O19   O     O_R   0.065470 0.434530 0.420520 -0.547811
O20   O     O_R   0.934530 0.434530 0.420520 -0.610423
O21   O     O_R   0.065470 0.565470 0.579480 -0.574429
O22   O     O_R   0.065470 0.565470 0.420520 -0.610423
O23   O     O_R   0.934530 0.434530 0.579480 -0.574429
O24   O     O_R   0.565470 0.934530 0.579480 -0.568345
Zn1   Zn    Zn3+2 0.000000 0.500000 0.606140 1.106278
Zn2   Zn    Zn3+2 1.000000 0.500000 0.393860 1.085329
Zn3   Zn    Zn3+2 0.500000 0.000000 0.606140 1.106277
Zn4   Zn    Zn3+2 0.500000 0.000000 0.393860 1.085328

loop_
_geom_bond_atom_site_label_1
_geom_bond_atom_site_label_2
_ccdc_geom_bond_type
C77   O11   S    
C63   O10   S    
C79   H20   S    
C80   H24   S    
C31   C42   A    
O2    Zn4   S    
C4    C53   A    
C34   C37   S    
C8    C26   A    
C73   C74   S    
C76   O10   S    
C75   H9    S    
O7    Zn4   S    
C19   Cl2   S    
C34   O22   A    
C49   Cl20  S    
C53   C59   S    
O12   Zn2   S    
C81   H26   S    
O23   Zn1   S    
C21   C36   A    
C82   O16   S    
C30   Cl13  S    
O8    Zn3   S    
C53   C84   A    
C3    H23   S    
C76   H13   S    
C17   C35   A    
C62   N1    A    
C70   O17   S    
C82   H29   S    
C52   C74   A    
C50   C74   A    
C4    H34   S    
C3    C54   A    
C62   O9    S    
C23   O23   A    
C26   Cl8   S    
C22   C38   A    
C20   Cl3   S    
C65   O13   S    
C28   C41   A    
C24   C39   A    
C44   C71   A    
C28   Cl10  S    
C9    C58   A    
C31   Cl14  S    
C65   N2    A    
C35   C42   A    
C79   H19   S    
C19   C37   A    
C78   O6    A    
O24   Zn3   S    
C23   O20   A    
C52   Cl23  S    
C40   C67   S    
C50   Cl21  S    
C18   C84   A    
O19   Zn2   S    
C67   O8    A    
C20   C37   A    
C48   C65   A    
O22   Zn2   S    
C46   C72   A    
C7    H38   S    
C21   Cl4   S    
C47   Cl18  S    
C6    C57   A    
C75   H10   S    
C48   C72   A    
C56   O3    A    
C11   C59   A    
C8    C55   A    
C80   O14   S    
C83   H32   S    
O3    Zn3   S    
C81   H27   S    
C81   O15   S    
O1    Zn1   S    
C25   Cl7   S    
C80   H22   S    
C49   C66   A    
C66   O14   S    
O18   Zn1   S    
C11   H3    S    
C69   N3    A    
C13   C30   A    
C15   C32   A    
C70   N4    A    
C56   O2    A    
C10   C28   A    
C2    C54   A    
C45   O24   A    
C41   C78   S    
C83   H33   S    
C6    H37   S    
C2    H12   S    
C26   C38   A    
C5    H36   S    
C12   O18   A    
C13   C58   A    
C44   C62   A    
C48   Cl19  S    
C1    O19   A    
C80   H25   S    
C66   N3    A    
O5    Zn4   S    
C33   C43   A    
O6    Zn3   S    
C63   N2    A    
C82   H31   S    
C68   N4    A    
C16   C33   A    
C12   O12   A    
C43   C56   S    
O21   Zn1   S    
C27   C40   A    
C6    C24   A    
C15   C61   A    
C15   H6    S    
C75   H11   S    
C3    C20   A    
C67   O5    A    
C45   O4    A    
C79   O13   S    
C22   Cl5   S    
C1    O1    A    
C47   C71   A    
C1    C38   S    
N2    Zn1   S    
C49   C73   A    
C27   Cl9   S    
C8    H39   S    
C16   C61   A    
C55   C61   S    
C44   Cl1   S    
C16   H7    S    
C47   C64   A    
C77   H17   S    
C9    C27   A    
C81   H28   S    
C29   Cl11  S    
C54   C58   S    
O20   Zn2   S    
C30   C40   A    
C29   C41   A    
C2    C19   A    
C76   H15   S    
C5    C55   A    
C51   C73   A    
C35   Cl17  S    
C24   Cl6   S    
C5    C22   A    
C13   H4    S    
C14   H5    S    
C14   C60   A    
C46   C63   A    
C9    H40   S    
C84   H1    S    
C7    C25   A    
C32   Cl15  S    
C64   N1    A    
C75   O9    S    
C33   Cl16  S    
C76   H14   S    
C12   C39   S    
C10   C59   A    
C69   O16   S    
C71   C72   S    
C82   H30   S    
C77   H16   S    
C25   C39   A    
C83   H35   S    
C4    C21   A    
O4    Zn4   S    
N3    Zn4   S    
C50   C68   A    
N4    Zn3   S    
C51   Cl22  S    
C83   O17   S    
N1    Zn2   S    
C32   C43   A    
C10   H2    S    
C18   Cl24  S    
C52   C70   A    
C42   C45   S    
C17   C60   A    
C68   O15   S    
C78   O7    A    
C57   C60   S    
C46   Cl12  S    
C11   C29   A    
C23   C36   S    
C14   C31   A    
C34   O21   A    
C51   C69   A    
C18   C36   A    
C79   H21   S    
C7    C57   A    
C77   H18   S    
C17   H8    S    
C64   O11   S    
