data_mof_unit_67210.cif
_audit_creation_date              2013-03-05T16:01:23-0500
_audit_creation_method            fapswitch 2.2
_symmetry_space_group_name_H-M    P1
_symmetry_Int_Tables_number       1
_space_group_crystal_system       triclinic
_cell_length_a                    20.456486
_cell_length_b                    21.332767
_cell_length_c                    8.710185
_cell_angle_alpha                 89.583266
_cell_angle_beta                  92.968905
_cell_angle_gamma                 90.229724
_cell_volume                      3795.84032841

loop_
_atom_site_label
_atom_site_type_symbol
_atom_site_description
_atom_site_fract_x
_atom_site_fract_y
_atom_site_fract_z
_atom_type_partial_charge
P1    P     P_3+3 0.136530 0.426510 0.931350 0.527566
P2    P     P_3+3 0.136530 0.573490 0.431350 0.439991
P3    P     P_3+3 0.636530 0.926510 0.931350 0.555865
P4    P     P_3+3 0.636530 0.073490 0.431350 0.483899
O1    O     O_2   0.130070 0.404060 0.104920 -0.317552
O2    O     O_2   0.130070 0.595940 0.604920 -0.300575
O3    O     O_2   0.630070 0.904060 0.104920 -0.352623
O4    O     O_2   0.630070 0.095940 0.604920 -0.402948
O5    O     O_3   0.075780 0.466370 0.861070 -0.403678
O6    O     O_3   0.075780 0.533630 0.361070 -0.426863
O7    O     O_3   0.575780 0.966370 0.861070 -0.318500
O8    O     O_3   0.575780 0.033630 0.361070 -0.371729
O9    O     O_3   0.022320 0.344950 0.359800 -0.364405
O10   O     O_3   0.022320 0.655050 0.859800 -0.393350
O11   O     O_3   0.522320 0.844950 0.359800 -0.399809
O12   O     O_3   0.522320 0.155050 0.859800 -0.357837
O13   O     O_2   0.127497 0.292812 0.256432 -0.354430
O14   O     O_2   0.126148 0.712602 0.761837 -0.301045
O15   O     O_2   0.626545 0.796080 0.242285 -0.360430
O16   O     O_2   0.639689 0.190064 0.767533 -0.311636
O17   O     O_3   0.205134 0.476112 0.948789 -0.544476
O18   O     O_3   0.212374 0.536065 0.440509 -0.615625
O19   O     O_3   0.708787 0.970435 0.933211 -0.583335
O20   O     O_3   0.704480 0.024638 0.429002 -0.595919
O21   O     O_3   0.044493 0.214004 0.365651 -0.515733
O22   O     O_3   0.033685 0.785871 0.855018 -0.453284
O23   O     O_3   0.546101 0.716928 0.362975 -0.486096
O24   O     O_3   0.563291 0.280558 0.819093 -0.446613
H1    H     H_    0.973106 0.256716 0.223541 0.187752
H2    H     H_    0.959523 0.740851 0.728024 0.184390
H3    H     H_    0.467307 0.758307 0.241956 0.180124
H4    H     H_    0.464198 0.259786 0.810877 0.119291
C1    C     C_3   0.948322 0.161785 0.266168 -0.679666
C2    C     C_3   0.922860 0.826816 0.816074 -0.641304
C3    C     C_3   0.443174 0.665566 0.302297 -0.621703
C4    C     C_3   0.482971 0.358697 0.834543 -0.614569
H5    H     H_    0.899821 0.170757 0.207434 0.211953
H6    H     H_    0.870985 0.811042 0.809790 0.196182
H7    H     H_    0.392946 0.675459 0.253424 0.179979
H8    H     H_    0.465147 0.362111 0.712807 0.212156
H9    H     H_    0.980687 0.140585 0.183886 0.196530
H10   H     H_    0.930806 0.852105 0.707757 0.215782
H11   H     H_    0.469909 0.640956 0.214495 0.262085
H12   H     H_    0.526938 0.389153 0.851302 0.229330
P5    P     P_3+3 0.863410 0.426100 0.379280 0.538870
P6    P     P_3+3 0.863410 0.573900 0.879280 0.506593
P7    P     P_3+3 0.363410 0.926100 0.379280 0.553830
P8    P     P_3+3 0.363410 0.073900 0.879280 0.511208
P9    P     P_3+3 0.914092 0.290855 0.918044 0.568684
P10   P     P_3+3 0.912211 0.707214 0.418655 0.544175
P11   P     P_3+3 0.414224 0.790282 0.920336 0.548941
P12   P     P_3+3 0.414363 0.209777 0.420272 0.581287
O25   O     O_2   0.869860 0.403670 0.205810 -0.320042
O26   O     O_2   0.869860 0.596330 0.705810 -0.305603
O27   O     O_2   0.369860 0.903670 0.205810 -0.351930
O28   O     O_2   0.369860 0.096330 0.705810 -0.298981
O29   O     O_3   0.977590 0.344880 0.951200 -0.318875
O30   O     O_3   0.977590 0.655120 0.451200 -0.326080
O31   O     O_3   0.477590 0.844880 0.951200 -0.348647
O32   O     O_3   0.477590 0.155120 0.451200 -0.387294
O33   O     O_2   0.867078 0.297574 0.050679 -0.318214
O34   O     O_2   0.865305 0.696701 0.549299 -0.365947
O35   O     O_2   0.366980 0.798238 0.051981 -0.325196
O36   O     O_2   0.367236 0.199156 0.551082 -0.295696
O37   O     O_3   0.791524 0.471274 0.369120 -0.579388
O38   O     O_3   0.793594 0.525292 0.867263 -0.599564
O39   O     O_3   0.293729 0.974091 0.370220 -0.532304
O40   O     O_3   0.292919 0.026810 0.866518 -0.621810
O41   O     O_3   0.951708 0.218661 0.955721 -0.544785
O42   O     O_3   0.945193 0.780921 0.465750 -0.573162
O43   O     O_3   0.451489 0.717894 0.961244 -0.532519
O44   O     O_3   0.447721 0.283982 0.465161 -0.514452
C5    C     C_3   0.980683 0.197222 0.822349 0.845444
C6    C     C_3   0.975763 0.809908 0.341494 0.794544
C7    C     C_3   0.488946 0.701118 0.836263 0.852528
C8    C     C_3   0.494283 0.299540 0.356964 0.880121
H13   H     H_    0.941929 0.188639 0.731764 -0.020995
H14   H     H_    0.940236 0.843712 0.290293 0.057826
H15   H     H_    0.456425 0.697936 0.730150 -0.051197
H16   H     H_    0.472327 0.291361 0.239740 -0.019560
C9    C     C_3   0.014992 0.133368 0.857978 -0.655851
C10   C     C_3   0.037573 0.845664 0.403912 -0.816596
C11   C     C_3   0.519551 0.634971 0.862853 -0.731250
C12   C     C_3   0.514232 0.371145 0.367064 -0.927610
C13   C     C_3   0.801895 0.464575 0.809300 1.020254
C14   C     C_3   0.799424 0.533160 0.318258 1.099316
C15   C     C_3   0.300234 0.966974 0.804157 1.107017
C16   C     C_3   0.304896 0.035268 0.317910 1.181543
C17   C     C_3   0.731705 0.435994 0.773018 1.103270
C18   C     C_3   0.729897 0.562016 0.291434 1.108019
C19   C     C_3   0.229885 0.941952 0.762233 1.086775
C20   C     C_3   0.237395 0.066558 0.282829 1.060929
Ba1   Ba    Ba6+2 0.999980 0.452130 0.155200 1.642530
Ba2   Ba    Ba6+2 0.999980 0.547870 0.655200 1.678261
Ba3   Ba    Ba6+2 0.499980 0.952130 0.155200 1.662978
Ba4   Ba    Ba6+2 0.499980 0.047870 0.655200 1.708447
C21   C     C_3   0.195632 0.522374 0.059083 0.357622
C22   C     C_3   0.215350 0.482929 0.534111 0.178402
C23   C     C_3   0.718119 0.010809 0.057969 0.303617
C24   C     C_3   0.718717 0.990282 0.564065 0.317740
H17   H     H_    0.183578 0.501089 0.170238 0.096101
H18   H     H_    0.174122 0.479295 0.612211 0.044116
H19   H     H_    0.694130 0.994147 0.161192 0.153149
H20   H     H_    0.676172 0.986746 0.637775 0.074886
C25   C     C_3   0.257570 0.561509 0.084135 -0.980521
C26   C     C_3   0.279769 0.485977 0.633807 -0.607337
C27   C     C_3   0.792235 0.014884 0.092782 -0.820852
C28   C     C_3   0.776279 0.024354 0.652046 -0.679784
H21   H     H_    0.247090 0.604380 0.149783 0.146357
H22   H     H_    0.318010 0.509908 0.570498 0.218784
H23   H     H_    0.816172 0.042275 0.003674 0.238886
H24   H     H_    0.797433 0.059979 0.576089 0.236783
H25   H     H_    0.274668 0.577191 0.971315 0.238637
H26   H     H_    0.272511 0.515700 0.735255 0.209278
H27   H     H_    0.810221 0.966528 0.087996 0.285511
H28   H     H_    0.756605 0.051657 0.745988 0.185631
O45   O     O_3   0.924190 0.533610 0.949240 -0.411623
O46   O     O_3   0.924190 0.466390 0.449240 -0.383317
O47   O     O_3   0.424190 0.033610 0.949240 -0.378226
O48   O     O_3   0.424190 0.966390 0.449240 -0.378971
P13   P     P_3+3 0.078013 0.716741 0.892837 0.616105
P14   P     P_3+3 0.081675 0.287260 0.391704 0.531869
P15   P     P_3+3 0.588726 0.207329 0.884466 0.592492
P16   P     P_3+3 0.584295 0.790362 0.383974 0.505205
C29   C     C_3   0.978252 0.223317 0.321391 0.355546
C30   C     C_3   0.966804 0.769340 0.832774 0.327949
C31   C     C_3   0.478062 0.726614 0.341564 0.334112
C32   C     C_3   0.500907 0.290960 0.870961 0.363630
H29   H     H_    0.951157 0.241783 0.418898 0.040118
H30   H     H_    0.949549 0.741090 0.930369 0.042886
H31   H     H_    0.457941 0.746984 0.446528 0.031489
H32   H     H_    0.500846 0.282276 0.996734 0.050789
C33   C     C_R   0.233841 0.296758 0.012999 -0.104710
C34   C     C_R   0.243103 0.695721 0.498683 -0.003078
C35   C     C_R   0.741449 0.803241 0.997419 0.044880
C36   C     C_R   0.740389 0.197652 0.503476 0.063956
C37   C     C_R   0.150561 0.349359 0.824625 0.165049
C38   C     C_R   0.148337 0.653466 0.326201 0.069192
C39   C     C_R   0.652329 0.851726 0.818666 0.244602
C40   C     C_R   0.649806 0.151736 0.325250 0.106057
C41   C     C_R   0.113292 0.341962 0.683987 0.177104
C42   C     C_R   0.104709 0.670615 0.197892 0.297927
C43   C     C_R   0.619735 0.848770 0.671353 0.154219
C44   C     C_R   0.609522 0.163550 0.189932 0.242343
C45   C     C_R   0.127733 0.294659 0.580502 0.279211
C46   C     C_R   0.124434 0.712385 0.084802 0.253994
C47   C     C_R   0.632101 0.799753 0.569600 0.139283
C48   C     C_R   0.628502 0.207345 0.080730 0.194520
C49   C     C_R   0.174953 0.250555 0.620764 -0.284028
C50   C     C_R   0.178855 0.750088 0.115360 -0.320984
C51   C     C_R   0.677207 0.753953 0.612420 -0.198646
C52   C     C_R   0.678546 0.249559 0.117397 -0.254071
C53   C     C_R   0.207724 0.249284 0.767587 0.037322
C54   C     C_R   0.213289 0.748739 0.260301 -0.016426
C55   C     C_R   0.711501 0.753364 0.757593 0.057389
C56   C     C_R   0.711383 0.249326 0.263891 -0.034517
C57   C     C_R   0.197331 0.299498 0.870378 -0.000223
C58   C     C_R   0.202698 0.697307 0.361600 -0.045737
C59   C     C_R   0.701676 0.803738 0.859882 -0.021659
C60   C     C_R   0.701073 0.198098 0.365269 -0.025248
C61   C     C_R   0.795914 0.701561 0.936596 -0.235161
C62   C     C_R   0.796087 0.299138 0.441754 -0.192782
C63   C     C_R   0.291686 0.197597 0.946656 -0.130909
C64   C     C_R   0.297442 0.798297 0.440822 -0.177213
C65   C     C_R   0.787646 0.753952 0.036754 0.011073
C66   C     C_R   0.788159 0.245837 0.541767 -0.034578
C67   C     C_R   0.280576 0.247867 0.051685 -0.084715
C68   C     C_R   0.288463 0.745509 0.541581 -0.017059
C69   C     C_R   0.844674 0.652339 0.981486 0.188078
C70   C     C_R   0.846032 0.347497 0.483147 0.209655
C71   C     C_R   0.343996 0.151314 0.985278 0.241199
C72   C     C_R   0.346466 0.847265 0.484032 0.240640
C73   C     C_R   0.879781 0.659433 0.123195 -0.378251
C74   C     C_R   0.883196 0.339268 0.621388 -0.521399
C75   C     C_R   0.382501 0.160933 0.121952 -0.439622
C76   C     C_R   0.383560 0.838793 0.622672 -0.551796
C77   C     C_R   0.867023 0.707243 0.226136 0.148352
C78   C     C_R   0.869730 0.291811 0.725908 0.124890
C79   C     C_R   0.368023 0.206911 0.228925 0.176008
C80   C     C_R   0.369842 0.791226 0.727353 0.157830
C81   C     C_R   0.822364 0.755386 0.181703 0.400076
C82   C     C_R   0.824243 0.244303 0.686134 0.404630
C83   C     C_R   0.316269 0.248672 0.196701 0.489367
C84   C     C_R   0.322471 0.745102 0.689024 0.452433
C85   C     C_R   0.753682 0.701635 0.800743 -0.082700
C86   C     C_R   0.751777 0.301489 0.309980 -0.034842
C87   C     C_R   0.249482 0.197309 0.810667 -0.109424
C88   C     C_R   0.254828 0.800317 0.306286 -0.024265
H33   H     H_    0.183876 0.215737 0.535157 0.193831
H34   H     H_    0.191563 0.783127 0.027149 0.245428
H35   H     H_    0.684109 0.718099 0.528309 0.204513
H36   H     H_    0.690331 0.283968 0.031262 0.243024
H37   H     H_    0.915599 0.624471 0.158804 0.205912
H38   H     H_    0.920862 0.373031 0.653903 0.207999
H39   H     H_    0.421676 0.128626 0.151785 0.194020
H40   H     H_    0.421403 0.872411 0.655163 0.193389
H41   H     H_    0.228789 0.335319 0.090821 0.215481
H42   H     H_    0.238126 0.655820 0.573959 0.166724
H43   H     H_    0.736460 0.841848 0.075241 0.198727
H44   H     H_    0.732636 0.159669 0.582269 0.151128
O49   O     O_3   0.713175 0.446441 0.618279 -0.661230
H45   H     H_    0.733597 0.413159 0.559470 0.333896
O50   O     O_3   0.696268 0.535087 0.162546 -0.751484
H46   H     H_    0.713329 0.553585 0.068148 0.344244
O51   O     O_3   0.211242 0.960875 0.611412 -0.712515
H47   H     H_    0.162806 0.963391 0.601476 0.331528
O52   O     O_3   0.209144 0.042986 0.144513 -0.751941
H48   H     H_    0.223730 0.070353 0.060602 0.368921
O53   O     O_3   0.729185 0.371296 0.807144 -0.715129
H49   H     H_    0.760761 0.350006 0.744157 0.278382
O54   O     O_3   0.733988 0.627642 0.275920 -0.779744
H50   H     H_    0.749785 0.637222 0.173462 0.269402
O55   O     O_3   0.228557 0.876202 0.773287 -0.721472
H51   H     H_    0.254150 0.860324 0.689075 0.311290
O56   O     O_3   0.245710 0.131946 0.273028 -0.821929
H52   H     H_    0.201603 0.151074 0.266771 0.315740
O57   O     O_3   0.685435 0.465653 0.861091 -0.720164
H53   H     H_    0.642357 0.445614 0.835567 0.386616
O58   O     O_3   0.693586 0.548738 0.419405 -0.652330
H54   H     H_    0.650584 0.569533 0.399905 0.358090
O59   O     O_3   0.185403 0.966740 0.864223 -0.737449
H55   H     H_    0.144919 0.940950 0.856312 0.378440
O60   O     O_3   0.195768 0.052313 0.401675 -0.679587
H56   H     H_    0.150959 0.066130 0.367927 0.353073
C89   C     C_2   0.141511 0.562754 0.002921 0.900529
O61   O     O_2   0.148497 0.597581 0.894169 -0.594059
O62   O     O_R   0.080521 0.551513 0.059757 -0.756646
H57   H     H_    0.043055 0.564096 0.987193 0.396554
C90   C     C_2   0.213100 0.429148 0.425430 0.894599
O63   O     O_2   0.261198 0.413691 0.358199 -0.498062
O64   O     O_R   0.153931 0.401883 0.384864 -0.761625
H58   H     H_    0.115428 0.428709 0.408250 0.313309
C91   C     C_2   0.688224 0.070408 0.004538 0.824109
O65   O     O_2   0.720731 0.115537 0.966410 -0.639615
O66   O     O_R   0.621390 0.068755 0.973427 -0.705477
H59   H     H_    0.610205 0.081770 0.864590 0.383539
C92   C     C_2   0.733662 0.924634 0.511808 0.924484
O67   O     O_2   0.755328 0.884752 0.601486 -0.673241
O68   O     O_R   0.718137 0.908353 0.359721 -0.754737
H60   H     H_    0.719426 0.861641 0.344360 0.360050
C93   C     C_2   0.309349 0.523609 0.169258 1.337672
O69   O     O_2   0.326685 0.474171 0.116142 -0.491076
O70   O     O_R   0.338319 0.543953 0.307724 -0.777161
H61   H     H_    0.318242 0.584199 0.343422 0.299382
C94   C     C_2   0.304859 0.422869 0.685268 1.047451
O71   O     O_2   0.337746 0.391516 0.601597 -0.577980
O72   O     O_R   0.290945 0.399858 0.828630 -0.759244
H62   H     H_    0.308793 0.356026 0.841744 0.314294
C95   C     C_2   0.812863 0.039508 0.247903 1.139281
O73   O     O_2   0.841256 0.004659 0.340674 -0.540895
O74   O     O_R   0.802082 0.101583 0.287831 -0.802090
H63   H     H_    0.787164 0.128813 0.197717 0.319644
C96   C     C_2   0.831418 0.984235 0.716716 1.167326
O75   O     O_2   0.821383 0.943935 0.812436 -0.603029
O76   O     O_R   0.894622 0.994348 0.670222 -0.723263
H64   H     H_    0.928008 0.968869 0.732944 0.340372
C97   C     C_2   0.940382 0.117481 0.396111 1.230954
O77   O     O_2   0.968414 0.067013 0.398851 -0.529645
O78   O     O_R   0.899089 0.133629 0.511292 -0.843863
H65   H     H_    0.900906 0.102447 0.598754 0.339011
C98   C     C_2   0.933956 0.870207 0.948792 1.073081
O79   O     O_2   0.986443 0.897009 0.969373 -0.587058
O80   O     O_R   0.884338 0.879739 0.049181 -0.779551
H66   H     H_    0.897689 0.911521 0.130844 0.325194
C99   C     C_2   0.438355 0.624685 0.440105 1.151440
O81   O     O_2   0.473894 0.579103 0.457110 -0.559370
O82   O     O_R   0.389862 0.636700 0.542635 -0.863967
H67   H     H_    0.384556 0.601899 0.620179 0.328417
C100  C     C_2   0.431235 0.382050 0.933551 1.096890
O83   O     O_2   0.416917 0.437415 0.927994 -0.516274
O84   O     O_R   0.399390 0.341226 0.031117 -0.871388
H68   H     H_    0.362814 0.362158 0.084835 0.399985
C101  C     C_2   0.042988 0.107180 0.713979 1.024739
O85   O     O_2   0.071891 0.141526 0.627152 -0.616162
O86   O     O_R   0.039312 0.043079 0.683940 -0.749447
H69   H     H_    0.063130 0.031134 0.589302 0.357212
C102  C     C_2   0.068450 0.881016 0.272994 1.039685
O87   O     O_2   0.090468 0.852255 0.166685 -0.608961
O88   O     O_R   0.072014 0.946658 0.272491 -0.697764
H70   H     H_    0.093410 0.964090 0.178725 0.408800
C103  C     C_2   0.559680 0.616573 0.729293 1.092952
O89   O     O_2   0.574687 0.654721 0.631943 -0.628795
O90   O     O_R   0.578125 0.554163 0.715558 -0.698827
H71   H     H_    0.597952 0.546774 0.614132 0.371784
C104  C     C_2   0.538180 0.394633 0.213772 0.962625
O91   O     O_2   0.575330 0.362905 0.141415 -0.666299
O92   O     O_R   0.521299 0.454729 0.159740 -0.711539
H72   H     H_    0.543056 0.466107 0.061309 0.375676
O93   O     O_3   0.058097 0.377065 0.652157 -0.721981
H73   H     H_    0.073205 0.419370 0.624215 0.311493
O94   O     O_3   0.041194 0.650044 0.177714 -0.723557
H74   H     H_    0.031876 0.619014 0.255626 0.379331
O95   O     O_3   0.576754 0.895587 0.626357 -0.728753
H75   H     H_    0.589507 0.910758 0.524342 0.332278
O96   O     O_3   0.552961 0.130625 0.154531 -0.706040
H76   H     H_    0.531923 0.121160 0.249980 0.351731
O97   O     O_3   0.812501 0.805651 0.276306 -0.752343
H77   H     H_    0.820776 0.793173 0.384881 0.355994
O98   O     O_3   0.814217 0.198472 0.794828 -0.664704
H78   H     H_    0.813504 0.157528 0.742578 0.337692
O99   O     O_3   0.301373 0.289666 0.311054 -0.664316
H79   H     H_    0.253134 0.291135 0.314256 0.340397
O100  O     O_3   0.310501 0.700352 0.799406 -0.723967
H80   H     H_    0.262713 0.692831 0.798361 0.333225
C105  C     C_2   0.740187 0.643291 0.720620 1.112784
O101  O     O_2   0.757187 0.636367 0.590265 -0.533030
O102  O     O_R   0.701200 0.598942 0.787874 -0.781601
H81   H     H_    0.695970 0.561445 0.718774 0.391007
C106  C     C_2   0.729778 0.362006 0.248650 1.075359
O103  O     O_2   0.688478 0.391173 0.313941 -0.598298
O104  O     O_R   0.750318 0.382985 0.109271 -0.695036
H82   H     H_    0.733873 0.426730 0.088493 0.366984
C107  C     C_2   0.235272 0.138951 0.728778 1.109823
O105  O     O_2   0.256097 0.130897 0.602228 -0.528431
O106  O     O_R   0.189162 0.098101 0.785566 -0.765585
H83   H     H_    0.174644 0.065661 0.707163 0.370824
C108  C     C_2   0.234893 0.861571 0.245861 1.089852
O107  O     O_2   0.204462 0.896431 0.325760 -0.619280
O108  O     O_R   0.247489 0.879124 0.097578 -0.704588
H84   H     H_    0.236422 0.924735 0.082148 0.370541
O109  O     O_3   0.026006 0.241299 0.771403 -0.708418
H85   H     H_    0.005458 0.261881 0.678636 0.289115
O110  O     O_3   0.994179 0.766690 0.230747 -0.737742
H86   H     H_    0.992507 0.789126 0.131861 0.300150
O111  O     O_3   0.538658 0.745662 0.816605 -0.709617
H87   H     H_    0.523294 0.772792 0.729224 0.281704
O112  O     O_3   0.548553 0.260026 0.381288 -0.719907
H88   H     H_    0.582390 0.274852 0.313162 0.293534
C109  C     C_2   0.071398 0.141416 0.976527 1.106379
O113  O     O_2   0.098355 0.095227 0.033538 -0.556714
O114  O     O_R   0.094015 0.201007 0.018654 -0.716189
H89   H     H_    0.135220 0.199146 0.087629 0.324815
C110  C     C_2   0.086142 0.798737 0.478901 1.189056
O115  O     O_2   0.072577 0.743173 0.484534 -0.515734
O116  O     O_R   0.145663 0.817596 0.547164 -0.747303
H90   H     H_    0.150387 0.864260 0.544425 0.337424
C111  C     C_2   0.565306 0.633941 0.005800 1.141603
O117  O     O_2   0.563611 0.590684 0.098541 -0.588240
O118  O     O_R   0.611746 0.681662 0.028400 -0.727713
H91   H     H_    0.637692 0.677402 0.129890 0.363678
C112  C     C_2   0.569244 0.384426 0.487160 1.223469
O119  O     O_2   0.592997 0.343189 0.569677 -0.508705
O120  O     O_R   0.594181 0.444972 0.503860 -0.682021
H92   H     H_    0.574403 0.476101 0.426747 0.346026
C113  C     C_2   0.965435 0.086873 0.918569 0.982170
O121  O     O_2   0.906921 0.098281 0.906871 -0.676236
O122  O     O_R   0.986531 0.031193 0.990158 -0.693334
H93   H     H_    0.949169 0.007424 0.035958 0.336258
C114  C     C_2   0.018108 0.893144 0.521141 1.002905
O123  O     O_2   0.976013 0.931850 0.485398 -0.520681
O124  O     O_R   0.049125 0.894175 0.667772 -0.776209
H94   H     H_    0.034500 0.930227 0.731649 0.380725
C115  C     C_2   0.464177 0.587585 0.876230 1.056811
O125  O     O_2   0.460399 0.541059 0.794890 -0.564122
O126  O     O_R   0.415836 0.597816 0.979141 -0.760177
H95   H     H_    0.380797 0.564901 0.965842 0.331633
C116  C     C_2   0.455395 0.410062 0.405668 1.189893
O127  O     O_2   0.404371 0.405554 0.327689 -0.504050
O128  O     O_R   0.459571 0.452069 0.528238 -0.745267
H96   H     H_    0.418588 0.477713 0.535917 0.375730
O129  O     O_3   0.835057 0.467857 0.673771 -0.785236
H97   H     H_    0.882065 0.475442 0.699093 0.327413
O130  O     O_3   0.832145 0.534645 0.182536 -0.866503
H98   H     H_    0.814618 0.499232 0.121810 0.346693
O131  O     O_3   0.334818 0.970539 0.670875 -0.750252
H99   H     H_    0.382061 0.974406 0.699523 0.312764
O132  O     O_3   0.340325 0.034481 0.185941 -0.854364
H100  H     H_    0.320995 0.000636 0.122100 0.338862
O133  O     O_3   0.835065 0.425926 0.918830 -0.758034
H101  H     H_    0.882926 0.429652 0.910899 0.339232
O134  O     O_3   0.834324 0.567627 0.431194 -0.646918
H102  H     H_    0.880570 0.571215 0.403468 0.341844
O135  O     O_3   0.330825 0.925779 0.912191 -0.773830
H103  H     H_    0.378806 0.931554 0.915251 0.334456
O136  O     O_3   0.338964 0.069342 0.432681 -0.648540
H104  H     H_    0.385415 0.073145 0.406836 0.339874

loop_
_geom_bond_atom_site_label_1
_geom_bond_atom_site_label_2
_geom_bond_distance
_ccdc_geom_bond_type
P5    O46   1.605158 S    
C23   H19   1.102349 S    
C116  O127  1.219313 D    
C15   C19   1.559325 S    
C28   C96   1.502319 S    
C42   C46   1.397359 A    
O94   H74   0.969996 S    
C2    H10   1.102437 S    
P5    C70   1.939867 S    
O38   C13   1.407699 S    
C111  O117  1.223545 D    
O24   P15   1.731548 S    
O99   H79   0.989266 S    
C54   C58   1.425870 A    
C35   H43   1.078952 S    
C23   C91   1.474871 S    
Ba2   O45   3.074401 S    
O84   H68   1.010021 S    
C24   H20   1.109962 S    
O22   C30   1.415414 S    
O122  H93   1.012888 S    
C49   C53   1.412965 A    
C83   O99   1.376945 S    
O16   P15   1.542208 D    
C46   C50   1.386498 A    
O60   H56   0.993218 S    
O2    Ba2   2.901309 S    
P2    O18   1.745602 S    
C51   C55   1.413923 A    
P4    O8    1.600766 S    
C41   C45   1.400435 A    
C21   C25   1.521686 S    
C106  O104  1.376267 S    
C39   C59   1.470123 A    
O10   P13   1.752780 S    
P9    O41   1.745764 S    
C94   O71   1.221710 D    
P11   O43   1.751014 S    
C75   H39   1.079347 S    
C115  O126  1.387600 S    
P16   C47   1.857421 S    
C35   C59   1.412845 A    
O110  H86   0.981418 S    
P2    C38   1.950595 S    
O74   H63   1.008278 S    
C14   C18   1.557857 S    
C53   C87   1.438117 A    
Ba3   O47   2.886421 S    
C22   H18   1.112750 S    
C54   C88   1.434158 A    
P6    O45   1.605751 S    
O56   H52   0.990514 S    
C90   O63   1.218536 D    
P12   O44   1.759867 S    
C50   H34   1.079816 S    
O17   C21   1.403327 S    
O100  H80   0.989595 S    
C56   C60   1.421929 A    
C1    C29   1.517066 S    
C106  O103  1.217992 D    
C3    C31   1.515287 S    
C78   C82   1.406119 A    
C15   O135  1.407385 S    
C100  O84   1.395366 S    
C11   C115  1.523604 S    
C4    H12   1.111503 S    
C98   O80   1.390102 S    
C70   C74   1.400650 A    
C33   H41   1.078389 S    
P8    Ba4   3.537772 S    
O20   C24   1.399855 S    
P9    C78   1.861997 S    
C64   C88   1.424333 A    
O136  H104  0.990687 S    
C49   H33   1.079022 S    
C22   C26   1.541579 S    
C81   O97   1.378880 S    
C9    C113  1.526357 S    
P10   O42   1.751602 S    
C104  O92   1.400803 S    
C10   C114  1.512442 S    
O131  H99   0.988820 S    
C52   H36   1.081254 S    
C12   C116  1.518212 S    
C13   O129  1.392846 S    
C31   H31   1.113708 S    
C36   H44   1.074659 S    
P3    O7    1.601332 S    
O116  H90   1.000005 S    
C29   H29   1.113154 S    
O13   P14   1.546737 D    
P1    Ba1   3.534824 S    
O109  H85   0.991719 S    
C1    C97   1.484235 S    
O128  H96   1.008276 S    
C5    H13   1.104859 S    
P3    Ba3   3.534824 S    
C97   O78   1.390642 S    
C7    H15   1.112800 S    
C61   C65   1.438677 A    
C80   C84   1.407932 A    
C114  O123  1.222467 D    
O18   C22   1.391145 S    
H1    C29   1.107975 S    
O124  H94   1.007907 S    
C66   C82   1.424980 A    
H3    C31   1.109578 S    
P5    Ba1   3.529791 S    
C95   O73   1.220286 D    
O59   H55   0.992106 S    
C25   H25   1.108959 S    
C96   O75   1.217478 D    
C107  O106  1.388966 S    
P9    O29   1.747244 S    
C20   O56   1.407084 S    
C93   O69   1.216215 D    
P12   O32   1.753972 S    
C39   C43   1.416744 A    
C105  O102  1.381520 S    
O8    Ba3   2.894534 S    
C15   O131  1.391896 S    
O22   P13   1.754527 S    
C3    H11   1.100485 S    
C91   O65   1.221647 D    
C61   C69   1.487412 A    
P5    O25   1.600321 D    
P4    Ba4   3.526963 S    
C102  O87   1.220823 D    
C85   C105  1.449930 S    
C109  O114  1.396153 S    
C4    C32   1.519502 S    
Ba1   O45   2.886421 S    
O93   H73   0.985698 S    
C112  O120  1.392638 S    
C24   C28   1.552383 S    
O11   P16   1.728683 S    
C55   C59   1.422398 A    
C52   C56   1.410871 A    
P2    Ba2   3.526963 S    
C55   C85   1.439293 A    
C43   O95   1.374688 S    
C17   O53   1.411021 S    
O14   P13   1.548514 D    
O57   H53   0.993384 S    
C47   C51   1.382526 A    
O42   C6    1.414947 S    
O95   H75   0.990712 S    
P8    C71   1.950090 S    
C38   C58   1.471980 A    
P6    Ba2   3.537772 S    
O88   H70   1.013996 S    
O53   H49   0.983454 S    
C3    C99   1.485743 S    
C99   O82   1.394437 S    
P7    O48   1.605158 S    
C34   C58   1.416829 A    
P5    O37   1.759427 S    
C34   C68   1.445900 A    
C64   C72   1.482179 A    
P3    C39   1.916438 S    
P1    C37   1.925871 S    
O126  H95   1.004355 S    
C25   H21   1.109610 S    
C9    C109  1.518118 S    
C2    C98   1.493777 S    
C27   H23   1.101860 S    
C10   C110  1.532058 S    
C8    H16   1.108666 S    
C88   C108  1.456985 S    
O82   H67   1.009350 S    
C56   C86   1.430734 A    
C103  O90   1.392928 S    
O49   H45   0.985310 S    
C37   C57   1.472434 A    
H4    C32   1.113733 S    
C92   O68   1.392328 S    
P12   C79   1.875497 S    
C14   O130  1.388451 S    
C40   C60   1.469131 A    
Ba2   O46   2.894639 S    
O44   C8    1.411189 S    
C77   C81   1.415729 A    
C101  O86   1.395133 S    
C33   C57   1.416900 A    
C26   C94   1.499917 S    
C36   C60   1.412699 A    
C76   C80   1.396621 A    
P15   C48   1.854824 S    
O90   H71   1.004729 S    
O40   C15   1.402448 S    
C69   C73   1.404349 A    
P13   C46   1.881524 S    
O5    Ba2   2.886321 S    
O78   H65   1.007036 S    
O7    Ba4   2.886321 S    
C21   C89   1.467133 S    
C12   C104  1.526401 S    
C98   O79   1.220036 D    
Ba4   O47   3.074401 S    
O19   C23   1.396386 S    
O68   H60   1.007028 S    
O120  H92   1.011599 S    
C8    C12   1.581398 S    
C115  O125  1.223515 D    
O66   H59   1.001167 S    
O37   C14   1.400902 S    
O55   H51   0.985739 S    
O39   C16   1.400969 S    
C86   C106  1.457498 S    
P1    O1    1.594397 D    
P6    O38   1.760728 S    
P3    O3    1.594397 D    
O11   Ba3   2.911584 S    
P4    O20   1.741713 S    
C30   H30   1.110104 S    
O70   H61   1.011145 S    
P8    O28   1.593418 D    
C109  O113  1.220830 D    
C25   C93   1.497383 S    
C108  O108  1.378923 S    
O21   C29   1.403996 S    
C61   C85   1.428525 A    
C19   O51   1.405625 S    
C62   C66   1.441109 A    
O23   C31   1.410495 S    
O132  H100  0.983698 S    
O130  H98   0.981337 S    
O41   C5    1.411124 S    
C113  O122  1.396931 S    
C63   C71   1.483040 A    
C74   C78   1.392825 A    
C44   C48   1.396695 A    
O106  H83   1.008804 S    
C116  O128  1.397848 S    
C100  O83   1.218014 D    
C11   C111  1.518502 S    
C6    C10   1.550236 S    
C111  O118  1.397643 S    
P8    O47   1.605751 S    
C110  O116  1.386531 S    
P9    O33   1.548799 D    
O52   H48   0.989459 S    
P10   O30   1.752744 S    
C48   C52   1.387040 A    
P10   C77   1.872381 S    
P1    O5    1.601332 S    
C19   O55   1.405473 S    
C38   C42   1.439698 A    
O58   H54   0.992991 S    
C13   C17   1.575434 S    
O6    Ba1   2.894534 S    
O51   H47   0.991778 S    
C1    H5    1.109171 S    
O102  H81   1.006572 S    
O9    Ba1   2.911584 S    
C3    H7    1.112043 S    
O98   H78   0.987534 S    
C104  O91   1.221805 D    
C110  O115  1.217512 D    
O118  H91   1.010951 S    
C62   C70   1.482201 A    
C64   C68   1.439714 A    
C2    C30   1.524904 S    
P6    O26   1.593418 D    
C35   C65   1.444040 A    
O12   Ba4   2.929012 S    
P11   O35   1.548089 D    
P8    O40   1.753360 S    
C41   O93   1.372515 S    
C5    C9    1.556712 S    
O32   Ba4   2.909762 S    
C94   O72   1.381310 S    
C73   H37   1.080191 S    
O96   H76   0.975233 S    
C18   O50   1.410593 S    
O28   Ba4   2.915212 S    
C37   C41   1.418401 A    
C20   O60   1.404879 S    
C40   C44   1.424276 A    
O134  H102  0.990945 S    
Ba3   O48   3.079313 S    
C23   C27   1.532948 S    
C1    H9    1.101263 S    
C28   H28   1.101664 S    
O112  H88   0.984554 S    
C90   O64   1.371574 S    
O114  H89   1.010197 S    
C7    C11   1.556963 S    
C107  O105  1.215731 D    
C18   O54   1.408100 S    
C36   C66   1.444289 A    
C87   C107  1.460031 S    
C9    C101  1.516723 S    
C53   C57   1.424710 A    
O111  H87   0.991609 S    
C84   O100  1.380156 S    
O108  H84   1.006382 S    
C28   H24   1.105554 S    
C105  O101  1.214777 D    
C6    H14   1.101389 S    
C20   O52   1.404507 S    
O10   Ba2   2.929012 S    
C45   C49   1.381531 A    
O24   C32   1.394753 S    
C14   O134  1.396978 S    
C17   O49   1.397614 S    
O50   H46   0.988670 S    
H2    C30   1.103304 S    
P1    O17   1.755166 S    
Ba1   Ba2   4.823651 S    
P12   O36   1.545048 D    
O97   H77   0.986913 S    
P3    O19   1.746374 S    
Ba3   Ba4   4.823651 S    
O4    Ba4   2.901309 S    
P4    O4    1.601305 D    
P7    C72   1.945949 S    
C112  O119  1.218445 D    
C16   O136  1.395629 S    
C43   C47   1.407753 A    
C26   H26   1.107869 S    
O12   P15   1.759652 S    
C97   O77   1.221335 D    
C33   C67   1.443902 A    
C44   O96   1.373624 S    
O76   H64   1.010109 S    
C63   C87   1.429186 A    
P14   C45   1.859838 S    
C89   O62   1.385294 S    
C67   C83   1.426018 A    
O62   H57   1.003971 S    
C68   C84   1.428535 A    
C4    C100  1.488954 S    
C19   O59   1.411092 S    
O21   P14   1.746412 S    
C13   O133  1.405838 S    
C114  O124  1.396645 S    
O29   Ba1   2.927146 S    
P2    O2    1.601305 D    
O31   Ba3   2.927146 S    
C32   H32   1.109794 S    
P7    O39   1.756447 S    
C79   C83   1.402295 A    
O15   P16   1.546747 D    
C95   O74   1.392895 S    
C27   C95   1.493001 S    
O25   Ba1   2.905348 S    
C16   C20   1.551245 S    
C4    H8    1.105271 S    
O27   Ba3   2.905348 S    
C96   O76   1.390304 S    
C6    O110  1.405628 S    
C75   C79   1.400767 A    
O104  H82   1.005252 S    
C103  O89   1.220848 D    
C71   C75   1.408851 A    
C93   O70   1.387682 S    
C63   C67   1.440967 A    
O54   H50   0.984541 S    
C11   C103  1.513071 S    
P4    C40   1.927174 S    
C22   C90   1.491768 S    
C62   C86   1.425915 A    
C73   C77   1.397147 A    
C89   O61   1.213511 D    
C24   C92   1.512956 S    
C76   H40   1.081444 S    
C91   O66   1.380310 S    
C27   H27   1.098407 S    
C18   O58   1.397823 S    
O86   H69   1.013642 S    
C102  O88   1.401919 S    
O92   H72   1.013750 S    
P10   O34   1.540630 D    
C10   C102  1.525222 S    
P11   O31   1.750837 S    
Ba1   O46   3.079313 S    
P11   C80   1.868621 S    
P2    O6    1.600766 S    
O23   P16   1.754301 S    
P7    O27   1.600321 D    
O133  H101  0.987899 S    
C99   O81   1.220012 D    
C42   O94   1.372783 S    
C34   H42   1.078378 S    
C2    H6    1.110726 S    
C16   O132  1.390509 S    
C82   O98   1.378172 S    
Ba4   O48   2.894639 S    
O1    Ba1   2.911087 S    
O72   H62   1.008737 S    
C74   H38   1.081009 S    
C5    O109  1.403627 S    
O3    Ba3   2.911087 S    
O129  H97   0.988354 S    
P6    C69   1.949765 S    
C65   C81   1.416633 A    
C7    O111  1.405119 S    
O30   Ba2   2.909762 S    
O135  H103  0.987758 S    
O43   C7    1.412287 S    
O9    P14   1.743033 S    
O80   H66   1.012725 S    
C51   H35   1.077686 S    
C108  O107  1.216971 D    
O26   Ba2   2.915212 S    
C17   O57   1.404201 S    
C72   C76   1.403472 A    
C12   C112  1.523399 S    
C26   H22   1.101828 S    
C50   C54   1.413619 A    
O64   H58   1.005621 S    
P7    Ba3   3.529791 S    
C113  O121  1.221364 D    
C92   O67   1.219814 D    
C21   H17   1.105354 S    
C8    O112  1.403031 S    
C101  O85   1.221942 D    
