data_mof_unit_61108.cif
_audit_creation_date              2013-03-05T15:46:45-0500
_audit_creation_method            fapswitch 2.2
_symmetry_space_group_name_H-M    P1
_symmetry_Int_Tables_number       1
_space_group_crystal_system       triclinic
_cell_length_a                    21.935087
_cell_length_b                    21.93509
_cell_length_c                    23.678424
_cell_angle_alpha                 90.000054
_cell_angle_beta                  90.0
_cell_angle_gamma                 90.000054
_cell_volume                      11392.8288962

loop_
_atom_site_label
_atom_site_type_symbol
_atom_site_description
_atom_site_fract_x
_atom_site_fract_y
_atom_site_fract_z
_atom_type_partial_charge
O1    O     O_R   0.409810 0.052200 0.500010 -0.558374
O2    O     O_R   0.947800 0.409810 0.500010 -0.558372
O3    O     O_R   0.590190 0.947800 0.500010 -0.558373
O4    O     O_R   0.052200 0.590190 0.500010 -0.558374
O5    O     O_R   0.409810 0.947800 0.499990 -0.558373
O6    O     O_R   0.947800 0.590190 0.499990 -0.558374
O7    O     O_R   0.590190 0.052200 0.499990 -0.558373
O8    O     O_R   0.052200 0.409810 0.499990 -0.558375
O9    O     O_R   0.909810 0.552200 0.000010 -0.558373
O10   O     O_R   0.447800 0.909810 0.000010 -0.558374
O11   O     O_R   0.090190 0.447800 0.000010 -0.558373
O12   O     O_R   0.552200 0.090190 0.000010 -0.558373
O13   O     O_R   0.909810 0.447800 0.999990 -0.558374
O14   O     O_R   0.447800 0.090190 0.999990 -0.558373
O15   O     O_R   0.090190 0.552200 0.999990 -0.558373
O16   O     O_R   0.552200 0.909810 0.999990 -0.558373
C1    C     C_R   0.380908 1.000000 0.500000 0.854462
C2    C     C_R   1.000000 0.380908 0.500000 0.854465
C3    C     C_R   0.619092 0.000000 0.500000 0.854462
C4    C     C_R   0.000000 0.619092 0.500000 0.854461
C5    C     C_R   0.880908 0.500000 0.000000 0.854462
C6    C     C_R   0.500000 0.880908 0.000000 0.854462
C7    C     C_R   0.119092 0.500000 0.000000 0.854462
C8    C     C_R   0.500000 0.119092 1.000000 0.854462
O17   O     O_R   0.499980 0.052200 0.418610 -0.550285
O18   O     O_R   0.947800 0.499980 0.418610 -0.550284
O19   O     O_R   0.500020 0.947800 0.418610 -0.550285
O20   O     O_R   0.052200 0.500020 0.418610 -0.550289
O21   O     O_R   0.499980 0.947800 0.581390 -0.550285
O22   O     O_R   0.947800 0.500020 0.581390 -0.550286
O23   O     O_R   0.500020 0.052200 0.581390 -0.550285
O24   O     O_R   0.052200 0.499980 0.581390 -0.550285
O25   O     O_R   0.999980 0.552200 0.918610 -0.550285
O26   O     O_R   0.447800 0.999980 0.918610 -0.550285
O27   O     O_R   0.000020 0.447800 0.918610 -0.550286
O28   O     O_R   0.552200 0.000020 0.918610 -0.550285
O29   O     O_R   0.999980 0.447800 0.081390 -0.550285
O30   O     O_R   0.447800 0.000020 0.081390 -0.550285
O31   O     O_R   0.000020 0.552200 0.081390 -0.550285
O32   O     O_R   0.552200 0.999980 0.081390 -0.550285
C9    C     C_R   0.500000 1.000000 0.392059 0.879551
C10   C     C_R   0.000000 0.500000 0.392059 0.879553
C11   C     C_R   0.500000 0.000000 0.607941 0.879551
C12   C     C_R   0.000000 0.500000 0.607941 0.879551
C13   C     C_R   1.000000 0.500000 0.892059 0.879551
C14   C     C_R   0.500000 0.000000 0.892059 0.879551
C15   C     C_R   1.000000 0.500000 0.107941 0.879551
C16   C     C_R   0.500000 0.000000 0.107941 0.879551
Cu1   Cu    Cu3+1 0.500000 0.061820 0.500000 1.114720
Cu2   Cu    Cu3+1 0.938180 0.500000 0.500000 1.114723
Cu3   Cu    Cu3+1 0.500000 0.938180 0.500000 1.114722
Cu4   Cu    Cu3+1 0.061820 0.500000 0.500000 1.114720
Cu5   Cu    Cu3+1 0.000000 0.561820 0.000000 1.114722
Cu6   Cu    Cu3+1 0.438180 0.000000 0.000000 1.114722
Cu7   Cu    Cu3+1 1.000000 0.438180 0.000000 1.114722
Cu8   Cu    Cu3+1 0.561820 0.000000 0.000000 1.114722
C17   C     C_1   0.500000 1.000000 0.331032 -0.019859
C18   C     C_1   1.000000 0.500001 0.331032 -0.019857
C19   C     C_1   0.500000 0.000000 0.668968 -0.019859
C20   C     C_1   1.000000 0.500000 0.668968 -0.019859
C21   C     C_1   1.000000 0.500000 0.831032 -0.019859
C22   C     C_1   0.500000 1.000000 0.831032 -0.019859
C23   C     C_1   1.000000 0.500000 0.168967 -0.019859
C24   C     C_1   0.500000 0.000000 0.168968 -0.019859
C25   C     C_1   0.500000 1.000000 0.279946 0.100284
C26   C     C_1   1.000000 0.500001 0.279946 0.100286
C27   C     C_1   0.500000 0.000000 0.720054 0.100284
C28   C     C_1   0.000000 0.500000 0.720054 0.100284
C29   C     C_1   0.000000 0.500000 0.779946 0.100284
C30   C     C_1   0.500000 0.000000 0.779946 0.100284
C31   C     C_1   1.000000 0.500000 0.220054 0.100285
C32   C     C_1   0.500000 1.000000 0.220054 0.100284
H1    H     H_    0.298999 0.165061 0.622221 0.216456
H2    H     H_    0.834940 0.298999 0.622223 0.216456
H3    H     H_    0.701000 0.834938 0.622221 0.216455
H4    H     H_    0.165062 0.701001 0.622221 0.216455
H5    H     H_    0.298999 0.834938 0.377779 0.216455
H6    H     H_    0.834938 0.701000 0.377780 0.216455
H7    H     H_    0.701001 0.165062 0.377779 0.216456
H8    H     H_    0.165054 0.298999 0.377770 0.216458
H9    H     H_    0.799000 0.665062 0.122221 0.216455
H10   H     H_    0.334938 0.798999 0.122221 0.216455
H11   H     H_    0.201000 0.334939 0.122221 0.216456
H12   H     H_    0.665062 0.201001 0.122221 0.216455
H13   H     H_    0.798999 0.334938 0.877779 0.216456
H14   H     H_    0.334938 0.201000 0.877779 0.216456
H15   H     H_    0.201001 0.665061 0.877779 0.216456
H16   H     H_    0.665061 0.798999 0.877779 0.216456
C33   C     C_R   0.307046 0.917020 0.426438 0.220405
C34   C     C_R   0.082975 0.307046 0.426434 0.220402
C35   C     C_R   0.692954 0.082980 0.426438 0.220405
C36   C     C_R   0.917020 0.692954 0.426438 0.220405
C37   C     C_R   0.307046 0.082979 0.573563 0.220404
C38   C     C_R   0.082980 0.692954 0.573562 0.220405
C39   C     C_R   0.692953 0.917021 0.573562 0.220405
C40   C     C_R   0.917021 0.307046 0.573563 0.220404
C41   C     C_R   0.807046 0.417020 0.926438 0.220405
C42   C     C_R   0.582979 0.807046 0.926437 0.220405
C43   C     C_R   0.192954 0.582979 0.926438 0.220405
C44   C     C_R   0.417021 0.192953 0.926438 0.220405
C45   C     C_R   0.807046 0.582979 0.073563 0.220405
C46   C     C_R   0.582979 0.192954 0.073562 0.220405
C47   C     C_R   0.192954 0.417021 0.073563 0.220405
C48   C     C_R   0.417020 0.807046 0.073562 0.220405
C49   C     C_R   0.276616 0.864961 0.407586 -0.172936
C50   C     C_R   0.135033 0.276616 0.407579 -0.172942
C51   C     C_R   0.723384 0.135039 0.407586 -0.172937
C52   C     C_R   0.864961 0.723384 0.407587 -0.172936
C53   C     C_R   0.276616 0.135039 0.592414 -0.172941
C54   C     C_R   0.135039 0.723384 0.592414 -0.172937
C55   C     C_R   0.723384 0.864961 0.592414 -0.172937
C56   C     C_R   0.864962 0.276616 0.592415 -0.172937
C57   C     C_R   0.776616 0.364961 0.907586 -0.172937
C58   C     C_R   0.635038 0.776616 0.907586 -0.172937
C59   C     C_R   0.223384 0.635039 0.907586 -0.172937
C60   C     C_R   0.364961 0.223384 0.907586 -0.172937
C61   C     C_R   0.776616 0.635039 0.092414 -0.172937
C62   C     C_R   0.635039 0.223384 0.092414 -0.172937
C63   C     C_R   0.223384 0.364961 0.092414 -0.172937
C64   C     C_R   0.364961 0.776616 0.092414 -0.172937
C65   C     C_R   0.215707 0.855171 0.421543 0.334978
C66   C     C_R   0.144825 0.215708 0.421537 0.334976
C67   C     C_R   0.784293 0.144829 0.421543 0.334978
C68   C     C_R   0.855171 0.784293 0.421543 0.334977
C69   C     C_R   0.215707 0.144828 0.578457 0.334977
C70   C     C_R   0.144829 0.784293 0.578457 0.334977
C71   C     C_R   0.784293 0.855171 0.578457 0.334978
C72   C     C_R   0.855172 0.215707 0.578459 0.334977
C73   C     C_R   0.715707 0.355171 0.921543 0.334978
C74   C     C_R   0.644828 0.715707 0.921543 0.334978
C75   C     C_R   0.284293 0.644828 0.921543 0.334977
C76   C     C_R   0.355171 0.284292 0.921543 0.334977
C77   C     C_R   0.715707 0.644829 0.078457 0.334978
C78   C     C_R   0.644829 0.284293 0.078457 0.334978
C79   C     C_R   0.284292 0.355172 0.078457 0.334977
C80   C     C_R   0.355171 0.715707 0.078457 0.334977
C81   C     C_R   0.185022 0.900606 0.451567 -0.213499
C82   C     C_R   0.099393 0.185023 0.451565 -0.213495
C83   C     C_R   0.814978 0.099394 0.451567 -0.213498
C84   C     C_R   0.900606 0.814977 0.451567 -0.213498
C85   C     C_R   0.185022 0.099394 0.548433 -0.213488
C86   C     C_R   0.099394 0.814978 0.548433 -0.213498
C87   C     C_R   0.814977 0.900606 0.548433 -0.213497
C88   C     C_R   0.900607 0.185022 0.548434 -0.213498
C89   C     C_R   0.685022 0.400606 0.951567 -0.213498
C90   C     C_R   0.599394 0.685022 0.951567 -0.213497
C91   C     C_R   0.314978 0.599394 0.951567 -0.213498
C92   C     C_R   0.400606 0.314977 0.951567 -0.213497
C93   C     C_R   0.685023 0.599394 0.048433 -0.213497
C94   C     C_R   0.599394 0.314978 0.048433 -0.213498
C95   C     C_R   0.314977 0.400606 0.048433 -0.213497
C96   C     C_R   0.400606 0.685022 0.048433 -0.213498
C97   C     C_R   0.216287 0.951973 0.473562 0.029815
C98   C     C_R   0.048027 0.216287 0.473561 0.029815
C99   C     C_R   0.783713 0.048027 0.473562 0.029814
C100  C     C_R   0.951973 0.783713 0.473562 0.029815
C101  C     C_R   0.216287 0.048027 0.526438 0.029819
C102  C     C_R   0.048027 0.783713 0.526438 0.029815
C103  C     C_R   0.783713 0.951973 0.526438 0.029816
C104  C     C_R   0.951973 0.216286 0.526439 0.029816
C105  C     C_R   0.716287 0.451973 0.973562 0.029815
C106  C     C_R   0.548027 0.716287 0.973562 0.029815
C107  C     C_R   0.283713 0.548027 0.973562 0.029815
C108  C     C_R   0.451973 0.283713 0.973562 0.029815
C109  C     C_R   0.716287 0.548027 0.026438 0.029815
C110  C     C_R   0.548027 0.283713 0.026438 0.029815
C111  C     C_R   0.283713 0.451973 0.026438 0.029815
C112  C     C_R   0.451973 0.716287 0.026438 0.029815
C113  C     C_R   0.280044 0.956270 0.467035 0.038374
C114  C     C_R   0.043728 0.280044 0.467034 0.038376
C115  C     C_R   0.719956 0.043730 0.467035 0.038374
C116  C     C_R   0.956270 0.719956 0.467035 0.038374
C117  C     C_R   0.280044 0.043730 0.532965 0.038374
C118  C     C_R   0.043730 0.719956 0.532965 0.038374
C119  C     C_R   0.719956 0.956270 0.532965 0.038374
C120  C     C_R   0.956271 0.280044 0.532966 0.038375
C121  C     C_R   0.780044 0.456270 0.967035 0.038374
C122  C     C_R   0.543730 0.780044 0.967035 0.038374
C123  C     C_R   0.219956 0.543730 0.967035 0.038374
C124  C     C_R   0.456270 0.219956 0.967035 0.038374
C125  C     C_R   0.780044 0.543730 0.032965 0.038374
C126  C     C_R   0.543730 0.219956 0.032965 0.038374
C127  C     C_R   0.219956 0.456270 0.032965 0.038374
C128  C     C_R   0.456270 0.780044 0.032965 0.038374
C129  C     C_R   0.184719 1.000000 0.500000 -0.035860
C130  C     C_R   0.000000 0.184719 0.500000 -0.035859
C131  C     C_R   0.815281 0.000000 0.500000 -0.035859
C132  C     C_R   1.000000 0.815281 0.500000 -0.035859
C133  C     C_R   0.684719 0.500000 0.000000 -0.035858
C134  C     C_R   0.500000 0.684719 0.000000 -0.035858
C135  C     C_R   0.315281 0.500000 1.000000 -0.035859
C136  C     C_R   0.500000 0.315281 1.000000 -0.035859
C137  C     C_R   0.313125 1.000000 0.500000 -0.104471
C138  C     C_R   1.000000 0.313125 0.500000 -0.104469
C139  C     C_R   0.686875 0.000000 0.500000 -0.104471
C140  C     C_R   0.000000 0.686875 0.500000 -0.104471
C141  C     C_R   0.813125 0.500000 0.000000 -0.104471
C142  C     C_R   0.500000 0.813125 0.000000 -0.104471
C143  C     C_R   0.186875 0.500000 0.000000 -0.104471
C144  C     C_R   0.500000 0.186875 1.000000 -0.104471
H17   H     H_    0.136540 0.895460 0.457235 0.163343
H18   H     H_    0.104539 0.136541 0.457233 0.163343
H19   H     H_    0.863460 0.104540 0.457235 0.163342
H20   H     H_    0.895461 0.863460 0.457235 0.163342
H21   H     H_    0.136540 0.104540 0.542764 0.163341
H22   H     H_    0.104539 0.863460 0.542765 0.163342
H23   H     H_    0.863460 0.895461 0.542765 0.163342
H24   H     H_    0.895461 0.136540 0.542766 0.163343
H25   H     H_    0.636540 0.395461 0.957235 0.163342
H26   H     H_    0.604539 0.636540 0.957235 0.163342
H27   H     H_    0.363460 0.604539 0.957235 0.163342
H28   H     H_    0.395461 0.363460 0.957235 0.163342
H29   H     H_    0.636540 0.604539 0.042765 0.163342
H30   H     H_    0.604539 0.363460 0.042765 0.163342
H31   H     H_    0.363460 0.395461 0.042765 0.163342
H32   H     H_    0.395461 0.636540 0.042765 0.163342
O33   O     O_R   0.999980 0.090160 0.547150 -0.570116
O34   O     O_R   0.909840 0.999980 0.547150 -0.570115
O35   O     O_R   0.000020 0.909840 0.547150 -0.570115
O36   O     O_R   0.090160 0.000020 0.547150 -0.570115
O37   O     O_R   0.999980 0.909840 0.452850 -0.570115
O38   O     O_R   0.909840 0.000020 0.452850 -0.570114
O39   O     O_R   0.000020 0.090160 0.452850 -0.570116
O40   O     O_R   0.090160 0.999980 0.452850 -0.570117
O41   O     O_R   0.499980 0.590160 0.047150 -0.570116
O42   O     O_R   0.409840 0.499980 0.047150 -0.570115
O43   O     O_R   0.500020 0.409840 0.047150 -0.570115
O44   O     O_R   0.590160 0.500020 0.047150 -0.570116
O45   O     O_R   0.499980 0.409840 0.952850 -0.570115
O46   O     O_R   0.409840 0.500020 0.952850 -0.570115
O47   O     O_R   0.500020 0.590160 0.952850 -0.570115
O48   O     O_R   0.590160 0.499980 0.952850 -0.570115
C145  C     C_R   0.000000 0.118530 0.500000 0.747819
C146  C     C_R   0.881470 1.000000 0.500000 0.747819
C147  C     C_R   1.000000 0.881470 0.500000 0.747819
C148  C     C_R   0.118530 1.000000 0.500000 0.747819
C149  C     C_R   0.500000 0.618530 0.000000 0.747820
C150  C     C_R   0.381470 0.500000 0.000000 0.747819
C151  C     C_R   0.500000 0.381470 1.000000 0.747819
C152  C     C_R   0.618530 0.500000 0.000000 0.747820
Cu9   Cu    Cu3+1 0.000000 0.000000 0.555810 1.069049
Cu10  Cu    Cu3+1 0.000000 0.000000 0.444190 1.069048
Cu11  Cu    Cu3+1 0.500000 0.500000 0.055810 1.069049
Cu12  Cu    Cu3+1 0.500000 0.500000 0.944190 1.069049
Br1   Br    Br    0.368113 0.944569 0.375707 -0.478621
Br2   Br    Br    0.055422 0.368111 0.375705 -0.478623
Br3   Br    Br    0.631887 0.055431 0.375708 -0.478621
Br4   Br    Br    0.944569 0.631887 0.375707 -0.478623
Br5   Br    Br    0.368113 0.055431 0.624293 -0.478622
Br6   Br    Br    0.055431 0.631887 0.624292 -0.478622
Br7   Br    Br    0.631887 0.944569 0.624293 -0.478622
Br8   Br    Br    0.944570 0.368113 0.624293 -0.478623
Br9   Br    Br    0.868112 0.444569 0.875707 -0.478622
Br10  Br    Br    0.555430 0.868112 0.875707 -0.478621
Br11  Br    Br    0.131887 0.555431 0.875707 -0.478621
Br12  Br    Br    0.444569 0.131887 0.875707 -0.478621
Br13  Br    Br    0.868112 0.555431 0.124293 -0.478621
Br14  Br    Br    0.555431 0.131887 0.124293 -0.478621
Br15  Br    Br    0.131887 0.444570 0.124293 -0.478622
Br16  Br    Br    0.444569 0.868113 0.124293 -0.478622
N1    N     N_R   0.183847 0.802196 0.400968 0.146849
O49   O     O_R   0.213091 0.759235 0.374441 -0.295745
O50   O     O_R   0.125526 0.795908 0.409247 -0.346232
N2    N     N_R   0.197798 0.183847 0.400959 0.146854
O51   O     O_R   0.240748 0.213088 0.374410 -0.295737
O52   O     O_R   0.204097 0.125530 0.409255 -0.346242
N3    N     N_R   0.816153 0.197803 0.400969 0.146850
O53   O     O_R   0.786909 0.240765 0.374441 -0.295744
O54   O     O_R   0.874474 0.204093 0.409249 -0.346232
N4    N     N_R   0.802196 0.816153 0.400968 0.146849
O55   O     O_R   0.759235 0.786908 0.374441 -0.295745
O56   O     O_R   0.795908 0.874473 0.409248 -0.346232
N5    N     N_R   0.183847 0.197803 0.599032 0.146850
O57   O     O_R   0.213091 0.240764 0.625560 -0.295745
O58   O     O_R   0.125527 0.204093 0.590751 -0.346232
N6    N     N_R   0.197803 0.816153 0.599032 0.146850
O59   O     O_R   0.240765 0.786909 0.625559 -0.295745
O60   O     O_R   0.204092 0.874474 0.590752 -0.346233
N7    N     N_R   0.816153 0.802197 0.599032 0.146849
O61   O     O_R   0.786908 0.759235 0.625560 -0.295745
O62   O     O_R   0.874473 0.795908 0.590752 -0.346232
N8    N     N_R   0.802198 0.183847 0.599034 0.146850
O63   O     O_R   0.759237 0.213091 0.625562 -0.295744
O64   O     O_R   0.795909 0.125526 0.590753 -0.346232
N9    N     N_R   0.683847 0.302197 0.900968 0.146850
O65   O     O_R   0.713091 0.259235 0.874440 -0.295744
O66   O     O_R   0.625526 0.295908 0.909248 -0.346233
N10   N     N_R   0.697803 0.683847 0.900968 0.146849
O67   O     O_R   0.740764 0.713091 0.874440 -0.295744
O68   O     O_R   0.704092 0.625527 0.909248 -0.346232
N11   N     N_R   0.316153 0.697803 0.900968 0.146850
O69   O     O_R   0.286909 0.740765 0.874440 -0.295745
O70   O     O_R   0.374474 0.704092 0.909248 -0.346232
N12   N     N_R   0.302197 0.316153 0.900968 0.146850
O71   O     O_R   0.259235 0.286908 0.874440 -0.295745
O72   O     O_R   0.295908 0.374473 0.909248 -0.346232
N13   N     N_R   0.683847 0.697803 0.099032 0.146849
O73   O     O_R   0.713091 0.740765 0.125560 -0.295745
O74   O     O_R   0.625527 0.704092 0.090752 -0.346233
N14   N     N_R   0.697803 0.316153 0.099032 0.146849
O75   O     O_R   0.740765 0.286909 0.125560 -0.295744
O76   O     O_R   0.704092 0.374474 0.090752 -0.346232
N15   N     N_R   0.316153 0.302197 0.099032 0.146850
O77   O     O_R   0.286908 0.259236 0.125560 -0.295742
O78   O     O_R   0.374473 0.295908 0.090752 -0.346232
N16   N     N_R   0.302197 0.683847 0.099032 0.146850
O79   O     O_R   0.259235 0.713091 0.125559 -0.295745
O80   O     O_R   0.295908 0.625526 0.090752 -0.346233

loop_
_geom_bond_atom_site_label_1
_geom_bond_atom_site_label_2
_geom_bond_distance
_ccdc_geom_bond_type
C118  C140  1.433849 A    
C74   C90   1.397027 A    
O41   C149  1.278156 A    
N11   O69   1.301568 A    
H10   C64   1.082999 S    
C61   C77   1.392962 A    
C10   C18   1.445026 S    
O38   Cu10  1.988270 S    
N15   O78   1.301534 A    
C69   N5    1.440835 S    
N8    O63   1.301568 A    
C103  C131  1.407549 A    
C14   C22   1.445023 S    
C47   C127  1.419895 A    
O18   Cu2   1.938707 S    
H2    C56   1.082997 S    
C42   C58   1.395988 A    
H9    C61   1.083000 S    
C112  C134  1.407551 A    
C22   C30   1.209643 T    
H6    C52   1.082999 S    
O34   Cu9   1.988270 S    
H11   C63   1.082999 S    
O11   C7    1.308806 A    
C39   C119  1.419895 A    
O24   Cu4   1.938705 S    
O39   C145  1.278157 A    
C102  C118  1.410190 A    
O38   C146  1.278158 A    
Cu1   Cu3   2.712055 S    
C45   Br13  1.897974 S    
Cu2   Cu4   2.712054 S    
O3    C3    1.308806 A    
C88   C104  1.418119 A    
H15   C59   1.083000 S    
C130  C145  1.451855 S    
C82   C98   1.418116 A    
C95   H31   1.077833 S    
C58   C74   1.392961 A    
C134  C149  1.451855 S    
C52   C68   1.392960 A    
C119  C139  1.433850 A    
C80   C96   1.397025 A    
C68   C84   1.397025 A    
C46   C126  1.419896 A    
C35   C51   1.395989 A    
C94   H30   1.077833 S    
C74   N10   1.440834 S    
O33   C145  1.278156 A    
C113  C137  1.433849 A    
O35   Cu9   1.988270 S    
O25   C13   1.306249 A    
N15   O77   1.301568 A    
N16   O79   1.301567 A    
O13   C5    1.308805 A    
C78   N14   1.440834 S    
H1    C53   1.083001 S    
C72   C88   1.397025 A    
O34   C146  1.278156 A    
C84   C100  1.418119 A    
C85   C101  1.418118 A    
C23   C31   1.209643 T    
O26   Cu6   1.938707 S    
O7    C3    1.308807 A    
N4    O56   1.301535 A    
C116  C140  1.433850 A    
C105  C121  1.410189 A    
O27   C13   1.306246 A    
C106  C134  1.407548 A    
N14   O75   1.301566 A    
O31   C15   1.306248 A    
O32   C16   1.306248 A    
C70   N6    1.440836 S    
C81   C97   1.418118 A    
C5    C141  1.486817 S    
C75   N11   1.440837 S    
C111  C135  1.407550 A    
O36   Cu9   1.988270 S    
C35   C115  1.419896 A    
C92   H28   1.077833 S    
C33   C113  1.419895 A    
N9    O66   1.301533 A    
C99   C131  1.407549 A    
C15   C23   1.445023 S    
C82   H18   1.077835 S    
O9    C5    1.308808 A    
C89   C105  1.418119 A    
C36   C116  1.419897 A    
C95   C111  1.418117 A    
C37   C117  1.419897 A    
C33   Br1   1.897977 S    
C86   H22   1.077833 S    
C93   H29   1.077836 S    
O46   Cu12  1.988270 S    
O4    C4    1.308807 A    
C80   N16   1.440836 S    
C8    C144  1.486817 S    
O5    Cu3   1.989548 S    
C44   Br12  1.897977 S    
C2    C138  1.486817 S    
C110  C126  1.410190 A    
C72   N8    1.440834 S    
C125  C141  1.433849 A    
C36   Br4   1.897974 S    
C98   C130  1.407550 A    
C98   C114  1.410189 A    
O23   C11   1.306248 A    
N11   O70   1.301533 A    
C101  C129  1.407550 A    
O44   C152  1.278155 A    
C84   H20   1.077832 S    
N1    O49   1.301567 A    
C94   C110  1.418120 A    
H8    C50   1.082998 S    
Cu9   Cu10  2.642988 S    
O14   C8    1.308806 A    
O2    Cu2   1.989548 S    
C19   C27   1.209643 T    
C36   C52   1.395988 A    
C69   C85   1.397026 A    
N2    O51   1.301576 A    
O28   C14   1.306248 A    
O26   C14   1.306248 A    
O45   C151  1.278157 A    
O8    Cu4   1.989548 S    
O30   C16   1.306248 A    
C62   C78   1.392959 A    
C11   C19   1.445023 S    
N7    O62   1.301536 A    
C121  C141  1.433851 A    
N13   O74   1.301535 A    
C38   Br6   1.897976 S    
O19   Cu3   1.938708 S    
C89   H25   1.077833 S    
C92   C108  1.418118 A    
O35   C147  1.278158 A    
C93   C109  1.418119 A    
O45   Cu12  1.988270 S    
C100  C116  1.410190 A    
C46   Br14  1.897975 S    
N10   O68   1.301534 A    
O16   Cu8   1.989548 S    
C124  C144  1.433850 A    
C109  C133  1.407548 A    
C60   C76   1.392959 A    
C83   C99   1.418118 A    
C50   C66   1.392961 A    
O8    C2    1.308808 A    
O29   C15   1.306247 A    
O6    Cu2   1.989545 S    
C132  C147  1.451853 S    
C54   C70   1.392959 A    
H4    C54   1.083001 S    
C107  C123  1.410190 A    
C44   C124  1.419896 A    
C45   C125  1.419896 A    
O18   C10   1.306248 A    
C41   Br9   1.897976 S    
O21   Cu3   1.938705 S    
C73   C89   1.397024 A    
C102  C132  1.407551 A    
N3    O53   1.301569 A    
C25   C32   1.418155 S    
O12   C8    1.308807 A    
N8    O64   1.301533 A    
C27   C30   1.418155 S    
H13   C57   1.082999 S    
O47   Cu12  1.988270 S    
C91   C107  1.418119 A    
C81   H17   1.077832 S    
N5    O58   1.301537 A    
C85   H21   1.077833 S    
C106  C122  1.410191 A    
O29   Cu7   1.938705 S    
N6    O59   1.301566 A    
H12   C62   1.083001 S    
C33   C49   1.395986 A    
C107  C135  1.407549 A    
C88   H24   1.077834 S    
C108  C136  1.407549 A    
O37   C147  1.278157 A    
C37   C53   1.395987 A    
C44   C60   1.395988 A    
C51   C67   1.392960 A    
O10   C6    1.308805 A    
C90   C106  1.418119 A    
O15   Cu5   1.989546 S    
C86   C102  1.418117 A    
C43   C59   1.395988 A    
N12   O71   1.301568 A    
C16   C24   1.445026 S    
O5    C1    1.308805 A    
Cu11  Cu12  2.642988 S    
C48   Br16  1.897973 S    
C87   H23   1.077835 S    
C28   C29   1.418155 S    
O32   Cu8   1.938705 S    
N16   O80   1.301534 A    
N7    O61   1.301567 A    
C108  C124  1.410190 A    
C135  C150  1.451855 S    
O22   Cu2   1.938705 S    
O21   C11   1.306247 A    
O22   C12   1.306248 A    
O23   Cu1   1.938705 S    
C91   H27   1.077833 S    
C96   C112  1.418117 A    
N14   O76   1.301536 A    
C100  C132  1.407550 A    
C35   Br3   1.897975 S    
C126  C144  1.433849 A    
C66   C82   1.397027 A    
C39   Br7   1.897974 S    
C114  C138  1.433850 A    
O3    Cu3   1.989545 S    
C38   C54   1.395987 A    
C63   C79   1.392960 A    
C64   C80   1.392961 A    
O33   Cu9   1.988270 S    
C43   C123  1.419897 A    
N9    O65   1.301569 A    
O28   Cu8   1.938707 S    
C96   H32   1.077835 S    
C41   C121  1.419896 A    
C26   C31   1.418155 S    
O30   Cu6   1.938705 S    
O43   C151  1.278158 A    
H7    C51   1.082999 S    
C34   C50   1.395989 A    
C115  C139  1.433850 A    
C48   C128  1.419897 A    
C117  C137  1.433851 A    
O9    Cu5   1.989547 S    
C40   Br8   1.897973 S    
O17   C9    1.306249 A    
O11   Cu7   1.989545 S    
O16   C6    1.308808 A    
C40   C120  1.419894 A    
O48   Cu12  1.988270 S    
C47   Br15  1.897976 S    
C6    C142  1.486817 S    
C17   C25   1.209643 T    
C79   N15   1.440836 S    
C87   C103  1.418119 A    
O41   Cu11  1.988270 S    
O6    C4    1.308806 A    
H3    C55   1.083000 S    
C45   C61   1.395986 A    
H5    C49   1.083000 S    
O40   C148  1.278157 A    
C9    C17   1.445023 S    
C83   H19   1.077833 S    
N3    O54   1.301533 A    
O40   Cu10  1.988270 S    
O42   Cu11  1.988270 S    
O31   Cu5   1.938705 S    
O44   Cu11  1.988270 S    
C123  C143  1.433850 A    
C12   C20   1.445026 S    
C79   C95   1.397027 A    
C34   Br2   1.897972 S    
C13   C21   1.445023 S    
C70   C86   1.397026 A    
C110  C136  1.407549 A    
H16   C58   1.082999 S    
O17   Cu1   1.938707 S    
C56   C72   1.392961 A    
C131  C146  1.451855 S    
C67   N3    1.440834 S    
C129  C148  1.451853 S    
C20   C28   1.209641 T    
N2    O52   1.301539 A    
C97   C113  1.410190 A    
C77   N13   1.440834 S    
N4    O55   1.301567 A    
C120  C138  1.433850 A    
C133  C152  1.451855 S    
C73   N9    1.440836 S    
C101  C117  1.410188 A    
C48   C64   1.395988 A    
C3    C139  1.486817 S    
O42   C150  1.278156 A    
C67   C83   1.397026 A    
O2    C2    1.308805 A    
N13   O73   1.301567 A    
C1    C137  1.486817 S    
C104  C130  1.407549 A    
C59   C75   1.392961 A    
C40   C56   1.395990 A    
C57   C73   1.392961 A    
O4    Cu4   1.989546 S    
O43   Cu11  1.988270 S    
O39   Cu10  1.988270 S    
C65   C81   1.397026 A    
C78   C94   1.397025 A    
C7    C143  1.486817 S    
H14   C60   1.082998 S    
C71   N7    1.440835 S    
C43   Br11  1.897976 S    
C65   N1    1.440835 S    
C18   C26   1.209641 T    
C111  C127  1.410190 A    
C112  C128  1.410189 A    
C46   C62   1.395988 A    
O15   C7    1.308807 A    
C122  C142  1.433850 A    
C103  C119  1.410190 A    
C104  C120  1.410190 A    
C90   H26   1.077834 S    
C37   Br5   1.897975 S    
O37   Cu10  1.988270 S    
Cu5   Cu7   2.712055 S    
O25   Cu5   1.938707 S    
Cu6   Cu8   2.712054 S    
O27   Cu7   1.938708 S    
C76   C92   1.397023 A    
C77   C93   1.397025 A    
O7    Cu1   1.989546 S    
C105  C133  1.407550 A    
N1    O50   1.301535 A    
C136  C151  1.451855 S    
C71   C87   1.397026 A    
C127  C143  1.433850 A    
O19   C9    1.306246 A    
C34   C114  1.419894 A    
N5    O57   1.301566 A    
O24   C12   1.306248 A    
C49   C65   1.392960 A    
C75   C91   1.397024 A    
O12   Cu8   1.989546 S    
C38   C118  1.419895 A    
C53   C69   1.392961 A    
O14   Cu6   1.989545 S    
N6    O60   1.301534 A    
C55   C71   1.392959 A    
O46   C150  1.278158 A    
C42   C122  1.419895 A    
C41   C57   1.395988 A    
C42   Br10  1.897975 S    
C21   C29   1.209643 T    
O36   C148  1.278155 A    
C47   C63   1.395986 A    
O13   Cu7   1.989548 S    
C128  C142  1.433850 A    
O47   C149  1.278157 A    
C109  C125  1.410190 A    
N10   O67   1.301568 A    
C39   C55   1.395988 A    
N12   O72   1.301533 A    
O20   Cu4   1.938707 S    
C66   N2    1.440838 S    
C97   C129  1.407550 A    
O20   C10   1.306248 A    
C76   N12   1.440836 S    
C24   C32   1.209641 T    
O10   Cu6   1.989548 S    
C99   C115  1.410190 A    
C68   N4    1.440837 S    
O1    C1    1.308808 A    
O48   C152  1.278157 A    
O1    Cu1   1.989547 S    
C4    C140  1.486817 S    
