data_mof_unit_18183.cif
_audit_creation_date              2012-12-11T21:12:05-0500
_audit_creation_method            fapswitch 2.2
_symmetry_space_group_name_H-M    P1
_symmetry_Int_Tables_number       1
_space_group_crystal_system       triclinic
_cell_length_a                    8.334588
_cell_length_b                    18.798013
_cell_length_c                    26.86609
_cell_angle_alpha                 99.363137
_cell_angle_beta                  92.407304
_cell_angle_gamma                 87.939353
_cell_volume                      4147.65399443

loop_
_atom_site_label
_atom_site_type_symbol
_atom_type_description
_atom_site_fract_x
_atom_site_fract_y
_atom_site_fract_z
_atom_type_partial_charge
Ba1   Ba    Ba6+2 0.160810 0.465630 0.521640 1.663078
Ba2   Ba    Ba6+2 0.649380 0.534380 0.478400 1.660456
C1    C     C_3   0.411513 0.287698 0.701282 -0.344901
C2    C     C_R   0.070584 0.096266 0.452265 -0.099704
C3    C     C_R   0.214273 0.955141 0.464639 -0.111265
C4    C     C_3   0.940492 0.278760 0.622821 0.344418
C5    C     C_R   0.060804 0.978508 0.482352 0.009852
C6    C     C_R   0.269012 0.884040 0.462887 -0.085349
C7    C     C_R   0.174641 0.832994 0.479533 -0.058797
C8    C     C_R   0.027038 0.856359 0.502184 0.005208
C9    C     C_R   0.970187 0.929488 0.503868 0.037978
C10   C     C_R   0.222395 0.759122 0.473564 0.033515
C11   C     C_R   0.125433 0.710121 0.491533 -0.237313
C12   C     C_3   0.444900 0.304495 0.649359 0.286020
C13   C     C_R   0.985958 0.732808 0.517588 0.008528
C14   C     C_R   0.936697 0.806846 0.523410 -0.064878
C15   C     C_R   0.849628 0.072767 0.502551 0.034821
C16   C     C_3   0.930526 0.204919 0.638405 -0.362174
C17   C     C_R   0.790230 0.145179 0.502234 0.013701
C18   C     C_R   0.877473 0.193664 0.478965 -0.043058
C19   C     C_R   0.011775 0.166330 0.451643 -0.016199
C20   C     C_R   0.801143 0.833333 0.550471 -0.025306
C21   C     C_R   0.744621 0.904019 0.551721 -0.082918
C22   C     C_R   0.822828 0.952826 0.526793 0.012634
C23   C     C_3   0.491197 0.314203 0.395691 0.279836
C24   C     C_R   0.760952 0.024400 0.525430 0.023156
C25   C     C_R   0.609972 0.048765 0.544712 -0.095823
C26   C     C_R   0.642408 0.168688 0.524504 -0.012742
C27   C     C_R   0.552724 0.119017 0.544323 -0.074415
C28   C     C_3   0.825458 0.631099 0.634509 0.279687
C29   C     C_R   0.588132 0.241121 0.526006 0.000000
C30   C     C_R   0.682360 0.289533 0.506663 -0.298615
C31   C     C_R   0.825283 0.267292 0.482764 0.036159
C32   C     C_R   0.304745 0.453228 0.175000 0.586072
C33   C     C_R   0.196100 0.573437 0.176725 0.593512
C34   C     C_3   0.539632 0.236632 0.373652 -0.187221
C35   C     C_2   0.035982 0.531818 0.268793 -0.068524
C36   C     C_3   0.994541 0.523329 0.322009 -0.022227
C37   C     C_1   0.277310 0.491149 0.336594 -0.015861
C38   C     C_2   0.314462 0.496183 0.290042 -0.109119
C39   C     C_2   0.187792 0.515979 0.252941 0.208421
C40   C     C_3   0.783221 0.662885 0.688400 -0.303493
C41   C     C_R   0.329090 0.512547 0.101543 -0.079870
C42   C     C_R   0.357870 0.451979 0.125723 -0.033356
C43   C     C_R   0.440383 0.391461 0.100379 -0.057462
C44   C     C_R   0.246729 0.573541 0.127164 -0.038485
C45   C     C_3   0.819581 0.727842 0.382406 0.314787
C46   C     C_2   0.143353 0.520654 0.356106 -0.227939
C47   C     C_2   0.646453 0.475249 0.641474 -0.303714
C48   C     C_R   0.500918 0.446669 0.974318 0.020014
C49   C     C_R   0.417235 0.574758 0.979415 0.019189
C50   C     C_R   0.482778 0.510069 0.951862 0.051983
C51   C     C_R   0.558611 0.382649 0.944376 -0.100230
C52   C     C_3   0.982345 0.369172 0.365784 0.304857
C53   C     C_R   0.598874 0.381273 0.894517 -0.058950
C54   C     C_R   0.584672 0.443694 0.872292 -0.030899
C55   C     C_R   0.529411 0.508603 0.901163 -0.081931
C56   C     C_3   0.822585 0.807108 0.372814 0.017304
C57   C     C_R   0.520583 0.571990 0.879309 -0.054966
C58   C     C_R   0.563343 0.569156 0.828677 0.610840
C59   C     C_R   0.620987 0.442081 0.821337 0.566022
C60   C     C_2   0.771452 0.480734 0.727345 -0.098406
C61   C     C_3   0.802268 0.482819 0.672934 -0.069247
C62   C     C_1   0.517768 0.512300 0.659791 0.026088
C63   C     C_2   0.488694 0.517093 0.709507 0.135635
C64   C     C_3   0.992532 0.343672 0.309173 -0.350757
C65   C     C_2   0.625020 0.499560 0.745607 0.212558
C66   C     C_R   0.458623 0.448887 0.025422 0.020107
C67   C     C_3   0.394334 0.687011 0.343783 0.278025
C68   C     C_R   0.381963 0.511957 0.051596 0.051746
C69   C     C_R   0.357439 0.574386 0.028328 0.019942
C70   C     C_R   0.490262 0.389946 0.051472 -0.099777
C71   C     C_R   0.217113 0.633530 0.102931 -0.052276
C72   C     C_R   0.414602 0.637883 0.956932 -0.097091
C73   C     C_R   0.466144 0.636489 0.908131 -0.055835
C74   C     C_R   0.271199 0.634080 0.054678 -0.098836
C75   C     C_3   0.285548 0.695584 0.617901 0.255818
C76   C     C_3   0.359671 0.754544 0.593877 -0.421696
C77   C     C_2   0.198068 0.730677 0.664627 0.892702
C78   C     C_3   0.471685 0.692077 0.293769 -0.320780
C79   C     C_2   0.400947 0.187291 0.370522 0.872580
C80   C     C_3   0.003293 0.899446 0.353039 -0.165769
C81   C     C_2   0.705856 0.821687 0.331081 0.908280
C82   C     C_2   0.218943 0.690619 0.334801 0.810779
C83   C     C_3   0.256813 0.513578 0.764269 -0.117200
C84   C     C_R   0.996658 0.049253 0.479640 -0.001435
H1    H     H_    0.401889 0.360815 0.648158 0.076971
H2    H     H_    0.201503 0.664754 0.590199 -0.039196
H3    H     H_    0.279969 0.289678 0.706789 0.140350
H4    H     H_    0.432353 0.790424 0.622396 0.121123
H5    H     H_    0.266594 0.788176 0.577591 0.039570
H6    H     H_    0.439081 0.729853 0.563389 0.166588
H7    H     H_    0.576546 0.299586 0.643829 -0.012795
H8    H     H_    0.467996 0.328286 0.730614 0.132119
H9    H     H_    0.603852 0.342750 0.407923 0.022156
H10   H     H_    0.417217 0.314992 0.429308 0.018577
H11   H     H_    0.587027 0.234810 0.335403 0.092353
H12   H     H_    0.699140 0.710056 0.688173 0.163510
H13   H     H_    0.637867 0.217295 0.397736 0.007417
H14   H     H_    0.461160 0.233217 0.705300 0.124739
H15   H     H_    0.933812 0.162415 0.604549 0.075730
H16   H     H_    0.706074 0.718280 0.398467 0.078032
H17   H     H_    0.911837 0.720979 0.412147 0.047017
H18   H     H_    0.786907 0.841703 0.408605 0.019640
H19   H     H_    0.429180 0.633647 0.353722 0.050252
H20   H     H_    0.426372 0.649150 0.263527 0.095488
H21   H     H_    0.601473 0.683256 0.295891 0.166664
H22   H     H_    0.051404 0.279333 0.601385 0.107116
H23   H     H_    0.724613 0.623044 0.706970 0.071876
H24   H     H_    0.443404 0.745231 0.282071 0.175075
H25   H     H_    0.163080 0.653851 0.487231 0.084248
H26   H     H_    0.385592 0.869609 0.447465 0.134970
H27   H     H_    0.074050 0.198511 0.429297 0.119721
H28   H     H_    0.735380 0.800107 0.571154 0.111609
H29   H     H_    0.436242 0.133455 0.559744 0.112626
H30   H     H_    0.640747 0.345072 0.508652 0.071993
H31   H     H_    0.296048 0.990904 0.451869 0.106927
H32   H     H_    0.172389 0.079479 0.429474 0.124866
H33   H     H_    0.639522 0.918875 0.573464 0.066677
H34   H     H_    0.893705 0.680611 0.710839 0.153429
H35   H     H_    0.833472 0.287511 0.598423 -0.041144
H36   H     H_    0.530409 0.014437 0.559790 0.072667
H37   H     H_    0.436308 0.484791 0.278103 0.114881
H38   H     H_    0.467471 0.344623 0.118395 0.126392
H39   H     H_    0.870149 0.469515 0.752807 0.093024
H40   H     H_    0.640126 0.330438 0.873170 0.124378
H41   H     H_    0.569364 0.331646 0.957765 0.073081
H42   H     H_    0.556513 0.341973 0.035508 0.073210
H43   H     H_    0.940366 0.543206 0.242272 0.096459
H44   H     H_    0.151874 0.680860 0.121297 0.132556
H45   H     H_    0.104205 0.381226 0.381936 0.035918
H46   H     H_    0.376178 0.689932 0.976522 0.075953
H47   H     H_    0.033964 0.195590 0.664221 0.138566
H48   H     H_    0.460155 0.686323 0.892658 0.132927
H49   H     H_    0.239710 0.681770 0.038499 0.074646
H50   H     H_    0.136531 0.538310 0.396507 0.091841
H51   H     H_    0.640114 0.439950 0.605232 0.068657
H52   H     H_    0.816675 0.201426 0.657821 0.122240
H53   H     H_    0.716463 0.608626 0.613740 0.043390
H54   H     H_    0.920273 0.588304 0.635003 0.019799
H55   H     H_    0.062119 0.799843 0.628566 0.262255
H56   H     H_    0.902700 0.418118 0.372650 0.024974
H57   H     H_    0.180364 0.161259 0.340759 0.298672
H58   H     H_    0.070866 0.810649 0.386082 0.210536
H59   H     H_    0.133187 0.910289 0.352118 0.136377
H60   H     H_    0.948283 0.938685 0.383414 0.088252
H61   H     H_    0.946691 0.907116 0.316082 0.146310
H62   H     H_    0.659976 0.813398 0.256006 0.307404
H63   H     H_    0.031504 0.712103 0.287471 0.390751
H64   H     H_    0.270884 0.579998 0.709074 0.242168
H65   H     H_    0.128574 0.509862 0.752188 0.094882
H66   H     H_    0.259530 0.546193 0.802514 0.097832
H67   H     H_    0.054988 0.290074 0.301883 0.188365
H68   H     H_    0.306916 0.458332 0.765779 0.092768
H69   H     H_    0.061101 0.381566 0.291410 0.074891
H70   H     H_    0.869824 0.339381 0.291381 0.106671
N1    N     N_R   0.227921 0.514171 0.200486 -0.430647
N2    N     N_R   0.602769 0.503783 0.799436 -0.427198
N3    N     N_2   0.983397 0.826148 0.361702 -0.403285
N4    N     N_2   0.342453 0.549636 0.730079 -0.379444
O1    O     O_2   0.106080 0.324280 0.466820 -0.461286
O2    O     O_2   0.667999 0.562231 0.331957 -0.524695
O3    O     O_3   0.842611 0.677043 0.338186 -0.593946
O4    O     O_3   0.859130 0.413620 0.470620 -0.485736
O5    O     O_3   0.459240 0.537930 0.559910 -0.464225
O6    O     O_2   0.583120 0.462390 0.379940 -0.465828
O7    O     O_3   0.404430 0.346351 0.358712 -0.613550
O8    O     O_2   0.555218 0.756985 0.475959 -0.517617
O9    O     O_3   0.438884 0.744238 0.382439 -0.625386
O10   O     O_2   0.325089 0.399576 0.195065 -0.590220
O11   O     O_2   0.667631 0.385551 0.796271 -0.602842
O12   O     O_3   0.414547 0.652787 0.632724 -0.634556
O13   O     O_2   0.125418 0.626539 0.198769 -0.562369
O14   O     O_2   0.562006 0.624513 0.810247 -0.560760
O15   O     O_3   0.376230 0.370290 0.556910 -0.481514
O16   O     O_2   0.253207 0.243608 0.520159 -0.480418
O17   O     O_3   0.918907 0.313957 0.387022 -0.638895
O18   O     O_3   0.362475 0.255723 0.612879 -0.611498
O19   O     O_2   0.227190 0.537650 0.620070 -0.491596
O20   O     O_3   0.971110 0.406970 0.583250 -0.482533
O21   O     O_2   0.132670 0.438883 0.668161 -0.491091
O22   O     O_2   0.229930 0.711023 0.705126 -0.566284
O23   O     O_3   0.943544 0.331739 0.666099 -0.592938
O24   O     O_R   0.084005 0.786879 0.663329 -0.714049
O25   O     O_2   0.408053 0.137068 0.394338 -0.636326
O26   O     O_R   0.265478 0.198236 0.339966 -0.737245
O27   O     O_2   0.584653 0.859014 0.341101 -0.606143
O28   O     O_R   0.742463 0.796719 0.280776 -0.735151
O29   O     O_2   0.136062 0.672501 0.366154 -0.690412
O30   O     O_R   0.151614 0.715547 0.291866 -0.699385
O31   O     O_2   0.704230 0.675760 0.533200 -0.464523
O32   O     O_3   0.951180 0.586390 0.529420 -0.484227
O33   O     O_3   0.434080 0.629720 0.443130 -0.467148
O34   O     O_3   0.885169 0.686453 0.612768 -0.637518
O35   O     O_3   0.351080 0.462080 0.440130 -0.475384
O36   O     O_3   0.839200 0.593040 0.416790 -0.474535
P1    P     P_3+3 0.929380 0.335110 0.452880 0.978717
P2    P     P_3+3 0.398530 0.559060 0.613740 1.007764
P3    P     P_3+3 0.962486 0.416586 0.648187 0.962117
P4    P     P_3+3 0.880940 0.664900 0.547160 0.973143
P5    P     P_3+3 0.836204 0.588281 0.351505 1.000770
P6    P     P_3+3 0.395788 0.277015 0.553254 0.938661
P7    P     P_3+3 0.401977 0.440176 0.376908 0.965298
P8    P     P_3+3 0.411607 0.722697 0.443514 0.946448

loop_
_geom_bond_atom_site_label_1
_geom_bond_atom_site_label_2
_ccdc_geom_bond_type
C53   C54   A    
C47   C61   S    
C62   P2    S    
C25   C27   A    
C58   O14   D    
Ba1   P2    S    
C49   C72   A    
C2    H32   S    
C83   H65   S    
C80   H61   S    
C73   H48   S    
C75   C76   S    
C76   H4    S    
C5    C9    A    
C52   H45   S    
C78   H21   S    
Ba1   O15   S    
H63   O30   S    
C60   C61   S    
O33   P8    S    
H64   N4    S    
C60   C65   D    
C70   H42   S    
Ba2   P4    S    
C15   C24   A    
C26   C27   A    
Ba1   O35   S    
C40   H23   S    
Ba2   O32   S    
C12   H1    S    
Ba1   Ba2   S    
C72   H46   S    
C56   N3    S    
C40   H12   S    
C21   H33   S    
C69   C74   A    
Ba1   O20   S    
C13   P4    S    
C55   C57   A    
C5    C84   A    
C2    C84   A    
C13   C14   A    
C78   H20   S    
C9    C22   A    
C77   O24   S    
C16   H47   S    
Ba2   O35   S    
C16   H52   S    
C29   P6    S    
C51   H41   S    
C1    H14   S    
C74   H49   S    
O34   P4    S    
C64   H69   S    
C17   C18   A    
Ba1   O4    S    
C61   P3    S    
C6    C7    A    
C63   C65   S    
C36   P5    S    
C48   C50   A    
C21   C22   A    
C82   O30   S    
C68   C69   A    
C59   O11   D    
C83   N4    S    
O7    P7    S    
C65   N2    S    
C7    C8    A    
Ba2   O6    S    
C12   H7    S    
C36   C46   S    
C32   O10   D    
C83   H68   S    
C45   O3    S    
C75   C77   S    
C27   H29   S    
Ba1   O1    S    
C57   C58   A    
C47   C62   D    
O17   P1    S    
C43   C70   A    
C81   O27   D    
C37   P7    S    
C49   C69   A    
C63   N4    S    
C79   O25   D    
C80   H60   S    
C25   H36   S    
C51   C53   A    
C43   H38   S    
C4    C16   S    
C48   C51   A    
C45   H17   S    
C72   C73   A    
O2    P5    D    
C15   C84   A    
C33   O13   D    
O16   P6    D    
C58   N2    Am   
C32   C42   A    
O31   P4    D    
C75   H2    S    
C19   H27   S    
C8    C9    A    
Ba2   O4    S    
C37   C38   D    
C3    C5    A    
C67   H19   S    
O32   P4    S    
C76   H6    S    
C23   O7    S    
C49   C50   A    
C3    H31   S    
C16   H15   S    
C2    C19   A    
C41   C42   A    
C33   N1    Am   
C71   C74   A    
C35   C36   S    
C3    C6    A    
C29   C30   A    
C53   H40   S    
C31   P1    S    
C34   C79   S    
C66   C70   A    
C24   C25   A    
C82   O29   D    
C67   O9    S    
C30   H30   S    
H58   N3    S    
O12   P2    S    
C17   C26   A    
Ba2   O5    S    
C34   H11   S    
C1    C12   S    
C39   N1    S    
C18   C31   A    
C38   C39   S    
C52   H56   S    
C23   H9    S    
C41   C68   A    
O18   P6    S    
H57   O26   S    
C81   O28   S    
C56   H18   S    
C54   C55   A    
O21   P3    D    
C57   C73   A    
C79   O26   S    
C80   H59   S    
O4    P1    S    
C12   O18   S    
C67   C82   S    
C47   H51   S    
C38   H37   S    
C71   H44   S    
O3    P5    S    
C14   C20   A    
C28   H53   S    
Ba1   O5    S    
C54   C59   A    
C46   H50   S    
C26   C29   A    
Ba1   P1    S    
C42   C43   A    
O15   P6    S    
C22   C24   A    
C28   H54   S    
C1    H8    S    
C60   H39   S    
O5    P2    S    
C52   O17   S    
C52   C64   S    
O19   P2    D    
C76   H5    S    
H62   O28   S    
C64   H67   S    
C77   O22   D    
O1    P1    D    
C4    O23   S    
C1    H3    S    
H55   O24   S    
C62   C63   D    
Ba2   O33   S    
C11   C13   A    
C83   H66   S    
C11   H25   S    
O20   P3    S    
C8    C14   A    
C56   C81   S    
C30   C31   A    
C45   C56   S    
C64   H70   S    
C80   N3    S    
Ba1   O19   S    
C40   H34   S    
C28   O34   S    
C41   C44   A    
C75   O12   S    
C15   C17   A    
C6    H26   S    
C35   H43   S    
C34   H13   S    
Ba2   O36   S    
O6    P7    D    
C10   P8    S    
C35   C39   D    
C7    C10   A    
O23   P3    S    
C50   C55   A    
C23   C34   S    
Ba1   O32   S    
O8    P8    D    
C20   H28   S    
O35   P7    S    
C18   C19   A    
C23   H10   S    
C66   C68   A    
C78   H24   S    
C45   H16   S    
C4    H22   S    
C20   C21   A    
C28   C40   S    
C67   C78   S    
C4    H35   S    
C10   C11   A    
O36   P5    S    
C59   N2    Am   
C33   C44   A    
C48   C66   A    
Ba2   O31   S    
C44   C71   A    
C32   N1    Am   
C37   C46   D    
O9    P8    S    
