data_mof_unit_51223.cif
_audit_creation_date              2013-03-05T15:54:48-0500
_audit_creation_method            fapswitch 2.2
_symmetry_space_group_name_H-M    P1
_symmetry_Int_Tables_number       1
_space_group_crystal_system       triclinic
_cell_length_a                    19.048923
_cell_length_b                    10.69189
_cell_length_c                    9.953936
_cell_angle_alpha                 88.731984
_cell_angle_beta                  92.384672
_cell_angle_gamma                 92.882577
_cell_volume                      2022.58162548

loop_
_atom_site_label
_atom_site_type_symbol
_atom_site_description
_atom_site_fract_x
_atom_site_fract_y
_atom_site_fract_z
_atom_type_partial_charge
O1    O     O_R   0.500000 0.316780 0.614690 -0.514398
O2    O     O_R   0.499990 0.316750 0.385360 -0.640719
C1    C     C_R   0.504230 0.260937 0.501886 1.020518
O3    O     O_R   0.398140 0.500000 0.614700 -0.613224
O4    O     O_R   0.398130 0.499970 0.385370 -0.584275
C2    C     C_R   0.365157 0.506920 0.497033 0.948451
Zn1   Zn    Zn3+2 0.500000 0.500020 0.653130 1.034549
Zn2   Zn    Zn3+2 0.500000 0.499980 0.346870 1.048935
O5    O     O_R   0.500010 0.683250 0.614640 -0.647808
O6    O     O_R   0.500000 0.683220 0.385310 -0.568096
O7    O     O_R   0.601870 0.500030 0.614630 -0.578069
O8    O     O_R   0.601860 0.500000 0.385300 -0.580935
C3    C     C_R   0.503280 0.739251 0.499241 0.877473
C4    C     C_R   0.634520 0.495869 0.502291 0.957563
C5    C     C_R   0.248843 0.511988 0.606848 0.360323
C6    C     C_R   0.177818 0.476882 0.600228 -0.143075
H1    H     H_    0.149582 0.473916 0.692647 0.231919
C7    C     C_R   0.142525 0.451522 0.476980 -0.168629
C8    C     C_R   0.178543 0.468823 0.356400 0.226171
C9    C     C_R   0.251004 0.504031 0.362141 0.320961
C10   C     C_R   0.287581 0.511467 0.488785 -0.243859
N1    N     N_R   0.024407 0.453586 0.369973 -0.058171
N2    N     N_R   0.954993 0.441792 0.376235 -0.081911
C11   C     C_R   0.925402 0.397949 0.490224 0.349555
N3    N     N_R   0.967004 0.363532 0.596892 -0.092851
N4    N     N_R   0.036522 0.374702 0.590105 -0.124060
C12   C     C_R   0.066495 0.421648 0.477084 0.382132
C13   C     C_R   0.828782 0.499980 0.592990 0.230386
C14   C     C_R   0.757721 0.527159 0.593496 0.195071
C15   C     C_R   0.708459 0.463576 0.507105 -0.384918
C16   C     C_R   0.730333 0.367716 0.423912 0.454603
C17   C     C_R   0.801264 0.342766 0.420623 0.449654
C18   C     C_R   0.850606 0.409815 0.504591 -0.317376
C19   C     C_R   0.615824 0.130825 0.667314 0.474621
C20   C     C_R   0.662381 0.061660 0.749268 -0.193269
H2    H     H_    0.702242 0.108417 0.813696 0.173255
C21   C     C_R   0.659666 0.932532 0.746696 -0.071421
H3    H     H_    0.696377 0.880787 0.809333 0.233628
C22   C     C_R   0.611469 0.869961 0.660987 -0.112583
H4    H     H_    0.614855 0.769730 0.656995 0.184352
C23   C     C_R   0.561101 0.935449 0.582337 0.017852
C24   C     C_R   0.562074 0.067262 0.585490 -0.008993
C25   C     C_R   0.509474 0.128181 0.504834 -0.120221
C26   C     C_R   0.459316 0.061498 0.423064 0.473763
H5    H     H_    0.422258 0.880534 0.357532 0.166258
C27   C     C_R   0.461262 0.933360 0.418807 -0.260601
C28   C     C_R   0.510177 0.871767 0.498637 -0.086877
C29   C     C_R   0.395509 0.363722 0.139224 -0.256007
H6    H     H_    0.401197 0.343666 0.243809 0.259700
C30   C     C_R   0.333937 0.318508 0.072914 0.423001
C31   C     C_R   0.328962 0.325337 0.933852 0.422350
C32   C     C_R   0.390429 0.357071 0.862723 0.165198
C33   C     C_R   0.446689 0.431563 0.926982 0.012252
C34   C     C_R   0.447615 0.433182 0.071077 0.026707
N5    N     N_R   0.499340 0.498800 0.142780 -0.145932
C35   C     C_R   0.550440 0.564816 0.072784 0.360579
H7    H     H_    0.589779 0.619309 0.877699 0.194016
C36   C     C_R   0.549909 0.564649 0.930120 -0.107930
N6    N     N_R   0.499320 0.498720 0.857170 -0.118110
O9    O     O_3   0.277900 0.548099 0.729905 -0.737617
H8    H     H_    0.313171 0.617549 0.713838 0.356614
O10   O     O_3   0.624344 0.259184 0.664674 -0.791258
H9    H     H_    0.663214 0.286788 0.728366 0.350231
N7    N     N_R   0.605593 0.635248 0.142675 0.221560
O11   O     O_R   0.670662 0.611095 0.123760 -0.306793
O12   O     O_R   0.592209 0.740886 0.195945 -0.354574
O13   O     O_3   0.279046 0.261117 0.141244 -0.635439
H10   H     H_    0.290653 0.263033 0.239249 0.352941
O14   O     O_3   0.268638 0.273265 0.871811 -0.623804
H11   H     H_    0.266567 0.302460 0.776919 0.376560
N8    N     N_R   0.406435 0.263536 0.770555 0.243345
O15   O     O_R   0.448392 0.177200 0.812767 -0.366978
O16   O     O_R   0.365698 0.241917 0.664445 -0.396203
N9    N     N_R   0.142933 0.444561 0.229194 0.214951
O17   O     O_R   0.125262 0.537157 0.149910 -0.313248
O18   O     O_R   0.123288 0.330365 0.197396 -0.282809
O19   O     O_3   0.287439 0.531983 0.246981 -0.732569
H12   H     H_    0.255619 0.528097 0.166146 0.388005
N10   N     N_R   0.879126 0.569456 0.677546 0.262823
O20   O     O_R   0.870198 0.575116 0.806105 -0.251709
O21   O     O_R   0.930674 0.635489 0.624935 -0.310744
N11   N     N_R   0.737436 0.628869 0.671612 0.216090
O22   O     O_R   0.760933 0.741874 0.641347 -0.350446
O23   O     O_R   0.712250 0.605733 0.789458 -0.356962
O24   O     O_3   0.683969 0.295155 0.344453 -0.650771
H13   H     H_    0.638615 0.285090 0.389072 0.332973
O25   O     O_3   0.819642 0.250520 0.335097 -0.643572
H14   H     H_    0.868646 0.227678 0.355766 0.350630
O26   O     O_3   0.407182 0.123703 0.351982 -0.768994
H15   H     H_    0.376586 0.062912 0.299757 0.356286

loop_
_geom_bond_atom_site_label_1
_geom_bond_atom_site_label_2
_geom_bond_distance
_ccdc_geom_bond_type
O25   H14   0.988973 S    
C16   O24   1.381153 S    
C23   C24   1.409552 A    
C8    C9    1.411500 A    
C19   C24   1.434816 A    
N5    C35   1.377210 A    
C33   N6    1.402527 A    
C22   C23   1.415807 A    
C33   C34   1.434160 A    
Zn1   O7    1.993567 S    
C1    C25   1.427490 S    
N4    C12   1.357643 A    
O10   H9    0.992238 S    
N9    O18   1.300876 A    
C9    O19   1.383912 S    
C13   C14   1.398917 A    
C20   C21   1.379749 A    
C21   H3    1.082225 S    
C7    C8    1.411200 A    
C15   C16   1.420941 A    
O7    C4    1.304626 A    
C5    C6    1.385025 A    
C19   O10   1.373636 S    
C19   C20   1.406377 A    
C5    O9    1.377989 S    
C13   N10   1.438306 S    
O5    C3    1.285926 A    
C27   C28   1.382111 A    
C3    C28   1.416228 S    
C20   H2    1.083170 S    
C6    H1    1.083856 S    
N2    C11   1.352028 A    
C35   N7    1.427465 S    
C30   O13   1.381527 S    
O19   H12   0.987377 S    
C29   C30   1.392005 A    
C4    C15   1.465562 S    
O3    Zn1   1.961986 S    
Zn2   N5    2.031329 S    
Zn1   N6    2.031316 S    
C26   C27   1.374038 A    
N9    O17   1.301202 A    
C31   C32   1.416259 A    
C11   N3    1.353801 A    
O3    C2    1.308299 A    
C22   H4    1.078540 S    
N10   O21   1.301399 A    
C36   N6    1.359746 A    
O24   H13   0.987771 S    
C17   O25   1.384476 S    
O13   H10   0.991697 S    
O9    H8    0.990895 S    
O1    C1    1.290654 A    
N7    O12   1.299459 A    
C29   C34   1.398731 A    
C25   C26   1.405765 A    
C14   C15   1.405980 A    
C16   C17   1.392171 A    
C5    C10   1.413676 A    
Zn2   O8    1.961983 S    
C30   C31   1.384084 A    
C23   C28   1.410725 A    
Zn2   O6    2.004489 S    
C29   H6    1.060444 S    
O8    C4    1.298195 A    
C13   C18   1.408809 A    
N11   O23   1.299779 A    
N1    C12   1.355141 A    
C24   C25   1.431187 A    
C32   C33   1.439323 A    
N8    O16   1.302211 A    
Zn1   O5    1.987842 S    
C34   N5    1.366225 A    
O1    Zn1   2.004489 S    
C8    N9    1.433885 S    
O2    Zn2   1.987839 S    
C7    C12   1.467363 S    
O6    C3    1.292016 A    
O4    Zn2   1.993571 S    
C11   C18   1.449993 S    
C17   C18   1.410436 A    
O2    C1    1.293991 A    
N3    N4    1.328025 A    
N8    O15   1.302511 A    
C21   C22   1.384427 A    
C32   N8    1.424542 S    
N7    O11   1.300852 A    
C2    C10   1.479780 S    
H7    C36   1.079577 S    
O4    C2    1.304567 A    
C35   C36   1.419726 A    
O14   H11   0.988058 S    
N10   O20   1.301039 A    
H5    C27   1.085538 S    
C14   N11   1.428701 S    
C9    C10   1.416579 A    
C6    C7    1.399401 A    
N11   O22   1.300636 A    
N1    N2    1.325841 A    
C31   O14   1.379713 S    
O26   H15   0.991978 S    
C26   O26   1.384312 S    
