data_mof_unit_65644.cif
_audit_creation_date              2012-12-10T17:04:11-0500
_audit_creation_method            fapswitch 2.2
_symmetry_space_group_name_H-M    P1
_symmetry_Int_Tables_number       1
_space_group_crystal_system       triclinic
_cell_length_a                    18.652875
_cell_length_b                    18.838165
_cell_length_c                    19.033525
_cell_angle_alpha                 109.537594
_cell_angle_beta                  109.852343
_cell_angle_gamma                 108.853155
_cell_volume                      5159.01387368

loop_
_atom_site_label
_atom_site_type_symbol
_atom_type_description
_atom_site_fract_x
_atom_site_fract_y
_atom_site_fract_z
_atom_type_partial_charge
C1    C     C_R   0.620574 0.617781 0.501429 0.891953
C2    C     C_3   0.178026 0.467327 0.249533 0.619626
C3    C     C_3   0.262035 0.549943 0.326715 0.161323
C4    C     C_3   0.315012 0.503387 0.313818 -0.413387
C5    C     C_R   0.584519 0.737897 0.452524 0.566129
C6    C     C_R   0.571993 0.805251 0.446719 0.178932
C7    C     C_R   0.642543 0.880696 0.469415 0.160907
C8    C     C_R   0.724795 0.887377 0.494965 0.525788
C9    C     C_R   0.736739 0.815681 0.491878 -0.132794
C10   C     C_R   0.668450 0.743942 0.480103 -0.142545
C11   C     C_R   0.814772 0.814184 0.501414 0.009549
C12   C     C_R   0.381617 0.501286 0.380947 1.004794
C13   C     C_R   0.831540 0.750835 0.517072 -0.045151
C14   C     C_R   0.769693 0.686878 0.520278 -0.039262
C15   C     C_R   0.686237 0.681903 0.498085 0.009563
C16   C     C_R   0.910476 0.749865 0.531125 0.190160
C17   C     C_R   0.945166 0.721715 0.586338 0.235061
C18   C     C_R   0.888117 0.665256 0.598978 0.242815
C19   C     C_R   0.798072 0.634649 0.550363 0.142237
C20   C     C_R   0.768654 0.665486 0.784162 0.082726
C21   C     C_R   0.815588 0.735079 0.868217 0.542800
C22   C     C_R   0.860966 0.726679 0.936097 0.522090
C23   C     C_R   0.380734 0.381579 0.500974 0.848803
C24   C     C_R   0.863780 0.650662 0.920245 0.445129
C25   C     C_R   0.811994 0.576534 0.835868 -0.157617
C26   C     C_R   0.755571 0.581025 0.767753 -0.132276
C27   C     C_R   0.815083 0.498681 0.818141 0.041652
C28   C     C_R   0.748503 0.420107 0.740747 -0.151229
C29   C     C_R   0.678629 0.420714 0.681235 -0.158030
C30   C     C_R   0.687759 0.501660 0.689219 0.053404
C31   C     C_R   0.746587 0.339533 0.722847 0.476419
C32   C     C_R   0.670880 0.261642 0.658095 0.143122
C33   C     C_R   0.597492 0.261895 0.607192 0.518660
C34   C     C_R   0.621346 0.501722 0.620017 0.880615
C35   C     C_R   0.600864 0.339804 0.617388 0.459606
C36   C     C_R   0.415581 0.342513 0.647073 0.176784
C37   C     C_R   0.446734 0.304282 0.692535 0.545950
C38   C     C_R   0.400520 0.215613 0.659504 0.203935
C39   C     C_R   0.316967 0.166044 0.585915 0.184164
C40   C     C_R   0.279873 0.205852 0.544936 -0.056975
C41   C     C_R   0.336435 0.290248 0.565687 -0.069452
C42   C     C_R   0.190314 0.162199 0.480160 -0.002486
C43   C     C_R   0.168372 0.185386 0.415940 -0.110169
C44   C     C_R   0.224178 0.268811 0.434243 -0.122698
C45   C     C_3   0.328979 0.535927 0.253014 0.667467
C46   C     C_R   0.311849 0.317183 0.504102 0.049008
C47   C     C_R   0.093775 0.127238 0.332508 0.094587
C48   C     C_R   0.064626 0.158291 0.277858 0.558560
C49   C     C_R   0.108166 0.246148 0.305777 0.614979
C50   C     C_R   0.187629 0.301852 0.383681 0.060917
C51   C     C_R   0.997893 0.619206 0.116434 0.894593
C52   C     C_R   0.123529 0.499265 0.121955 0.899072
C53   C     C_R   0.003171 0.380601 0.884319 0.865862
C54   C     C_R   0.883934 0.498637 0.883639 1.007675
C55   C     C_R   0.997939 0.877044 0.382610 0.872925
C56   C     C_3   0.276276 0.583042 0.265620 -0.319847
C57   C     C_R   0.881131 0.880923 0.499746 0.927149
C58   C     C_R   0.994244 0.112902 0.617577 0.942701
C59   C     C_R   0.119460 0.108921 0.491416 0.888138
C60   C     C_R   0.144581 0.802459 0.240846 0.209754
C61   C     C_R   0.225539 0.845188 0.316515 0.158778
C62   C     C_R   0.226899 0.851039 0.392454 0.221956
C63   C     C_R   0.149175 0.832609 0.396711 0.228839
C64   C     C_R   0.069562 0.801326 0.321439 -0.114028
C65   C     C_R   0.066864 0.765242 0.242920 -0.113976
C66   C     C_R   0.991836 0.800409 0.317805 0.044422
C67   C     C_3   0.192259 0.499754 0.188902 -0.414522
C68   C     C_R   0.909590 0.733115 0.242753 -0.186043
C69   C     C_R   0.908518 0.674143 0.171118 -0.095833
C70   C     C_R   0.989442 0.688547 0.173671 0.049948
C71   C     C_R   0.828345 0.718701 0.239146 0.543716
C72   C     C_R   0.749280 0.651091 0.166238 0.579864
C73   C     C_R   0.748330 0.595811 0.095926 -0.334910
C74   C     C_R   0.826273 0.606326 0.097553 0.585646
C75   C     C_R   0.040669 0.402379 0.748571 0.153235
C76   C     C_R   0.092132 0.427030 0.713032 0.554552
C77   C     C_R   0.122391 0.374109 0.678181 0.150366
C78   C     C_3   0.245144 0.453689 0.175399 0.121508
C79   C     C_R   0.093775 0.292554 0.670744 0.456568
C80   C     C_R   0.040155 0.266091 0.705293 -0.135503
C81   C     C_R   0.026637 0.327634 0.757591 -0.141506
C82   C     C_R   0.997899 0.179774 0.687006 0.020726
C83   C     C_R   0.960308 0.158496 0.735686 -0.105477
C84   C     C_R   0.967461 0.225818 0.804481 -0.104730
C85   C     C_R   0.999224 0.310991 0.814761 0.040066
C86   C     C_R   0.917261 0.072506 0.720645 0.093779
C87   C     C_R   0.861207 0.052824 0.752874 0.567596
C88   C     C_R   0.875124 0.118731 0.825277 0.581002
C89   C     C_3   0.230961 0.421265 0.236475 0.496258
C90   C     C_R   0.939544 0.202990 0.858814 0.113656
Cu1   Cu    Cu3+1 0.500490 0.438210 0.438660 1.212440
Cu2   Cu    Cu3+1 0.499510 0.561790 0.561340 1.233134
Cu3   Cu    Cu3+1 0.942070 0.438200 0.003850 1.238481
Cu4   Cu    Cu3+1 0.065670 0.561760 0.003800 1.178715
Cu5   Cu    Cu3+1 0.062280 0.000030 0.562300 1.199570
Cu6   Cu    Cu3+1 0.937720 0.000000 0.437720 1.211793
H1    H     H_    0.292166 0.648511 0.274483 0.246903
H2    H     H_    0.686329 0.544057 0.039214 0.253027
O1    O     O_R   0.590580 0.537990 0.448200 -0.554358
O2    O     O_R   0.055380 0.642340 0.093300 -0.553990
O3    O     O_R   0.042560 0.447800 0.094700 -0.516660
O4    O     O_R   0.146930 0.552150 0.094670 -0.584121
O5    O     O_R   0.952370 0.357620 0.914350 -0.542169
O6    O     O_R   0.056740 0.461970 0.914310 -0.578227
O7    O     O_R   0.860810 0.447810 0.912980 -0.508323
O8    O     O_R   0.965190 0.552160 0.912950 -0.532843
O9    O     O_R   0.053330 0.909870 0.463140 -0.553265
O10   O     O_R   0.948140 0.909840 0.357940 -0.528085
O11   O     O_R   0.962430 0.909850 0.552620 -0.575193
O12   O     O_R   0.589760 0.642350 0.551790 -0.521332
O13   O     O_R   0.857240 0.909830 0.447420 -0.498328
O14   O     O_R   0.051860 0.090180 0.642080 -0.533643
O15   O     O_R   0.946670 0.090160 0.536880 -0.535729
O16   O     O_R   0.142760 0.090200 0.552610 -0.540415
O17   O     O_R   0.037570 0.090170 0.447410 -0.556216
O18   O     O_R   0.409540 0.447820 0.357340 -0.555098
O19   O     O_R   0.408720 0.552180 0.460940 -0.515702
O20   O     O_R   0.410240 0.357650 0.448210 -0.529588
O21   O     O_R   0.409420 0.462010 0.551800 -0.539411
O22   O     O_R   0.591280 0.447820 0.539060 -0.517672
O23   O     O_R   0.590460 0.552180 0.642660 -0.558515
O24   O     O_R   0.951000 0.537990 0.093340 -0.546672
Br1   Br    Br    0.628301 0.975212 0.463189 -0.172149
F1    F     F_    0.793171 0.966782 0.529367 -0.651747
Br2   Br    Br    0.934122 0.728528 0.438773 -0.362839
Br3   Br    Br    0.064877 0.746956 0.629293 -0.161184
Br4   Br    Br    0.731428 0.511070 0.497821 -0.337242
F2    F     F_    0.521934 0.186145 0.547314 -0.533860
Br5   Br    Br    0.755606 0.702495 0.701795 -0.355240
F3    F     F_    0.823019 0.813691 0.883790 -0.480991
F4    F     F_    0.908725 0.795208 0.017518 -0.506934
F5    F     F_    0.915924 0.650965 0.989591 -0.618048
F6    F     F_    0.407236 0.570962 0.254249 -0.541316
F7    F     F_    0.817351 0.334455 0.766603 -0.642204
Br6   Br    Br    0.666157 0.154606 0.644345 -0.174149
F8    F     F_    0.524504 0.334223 0.569441 -0.645492
F9    F     F_    0.072430 0.277202 0.257113 -0.471634
Br7   Br    Br    0.473297 0.466576 0.712147 -0.282786
F10   F     F_    0.523762 0.353505 0.768534 -0.585478
Br8   Br    Br    0.453203 0.164763 0.717847 -0.166805
Br9   Br    Br    0.267162 0.043113 0.528634 -0.345971
Br10  Br    Br    0.043211 0.003855 0.282839 -0.290627
F11   F     F_    0.992174 0.103643 0.198521 -0.490084
Br11  Br    Br    0.240250 0.389335 0.068820 -0.245787
Br12  Br    Br    0.226129 0.422806 0.430756 -0.269051
Br13  Br    Br    0.139302 0.821267 0.145876 -0.191320
Br14  Br    Br    0.332904 0.892069 0.315023 -0.190175
Br15  Br    Br    0.335019 0.886264 0.490090 -0.136925
Br16  Br    Br    0.150319 0.823325 0.494826 -0.213188
F12   F     F_    0.823627 0.765207 0.307466 -0.619277
F13   F     F_    0.672587 0.638343 0.164237 -0.541284
F14   F     F_    0.818789 0.551936 0.024355 -0.608168
F15   F     F_    0.839649 0.098456 0.872098 -0.497174
F16   F     F_    0.207938 0.337946 0.221414 -0.541486
Br17  Br    Br    0.966326 0.452580 0.749727 -0.289354
F17   F     F_    0.108732 0.500383 0.708094 -0.520310
Br18  Br    Br    0.194816 0.408752 0.631459 -0.216091
F18   F     F_    0.122071 0.241646 0.633058 -0.645802
Br19  Br    Br    0.970213 0.000780 0.714055 -0.318841
F19   F     F_    0.811335 0.969458 0.730032 -0.536054
Br20  Br    Br    0.012898 0.263910 0.982288 -0.208934
F20   F     F_    0.099271 0.431581 0.247252 -0.499849
Br21  Br    Br    0.272166 0.624459 0.432846 -0.184711
Br22  Br    Br    0.930081 0.617286 0.668265 -0.229437
F21   F     F_    0.512785 0.665643 0.427308 -0.626523
Br23  Br    Br    0.458315 0.794464 0.412527 -0.232101

loop_
_geom_bond_atom_site_label_1
_geom_bond_atom_site_label_2
_ccdc_geom_bond_type
C8    C9    A    
C66   C68   A    
C87   C88   A    
C6    Br23  S    
Cu3   Cu4   S    
C49   F9    S    
C22   F4    S    
C73   C74   A    
Cu5   Cu6   S    
C20   Br5   S    
C43   C44   A    
C74   F14   S    
C2    F20   S    
C79   F18   S    
C27   C54   S    
C7    C8    A    
C87   F19   S    
C47   Br10  S    
C52   O4    A    
C37   C38   A    
C60   Br13  S    
C83   C84   A    
C58   O14   A    
C36   C37   A    
Cu2   O21   S    
Cu5   O14   S    
C58   C82   S    
C23   O21   A    
C5    C6    A    
C17   Br3   S    
C71   F12   S    
Cu5   O16   S    
C65   C70   A    
Cu1   O18   S    
C18   C19   A    
C49   C50   A    
C63   Br16  S    
Cu3   O7    S    
C18   Br22  S    
C84   C85   A    
C57   O11   A    
C47   C48   A    
C45   C56   S    
C16   C17   A    
C58   O15   A    
C41   C46   A    
Cu6   O17   S    
C45   C78   S    
C1    C15   S    
C51   C70   S    
C5    F21   S    
C4    C12   S    
C43   C47   A    
C9    C10   A    
C3    Br21  S    
C72   C73   A    
C40   C42   A    
Cu6   O10   S    
Cu4   O6    S    
C23   C46   S    
C62   Br15  S    
C13   C14   A    
C1    O1    A    
C36   C41   A    
C61   C62   A    
C67   C78   S    
C84   C90   A    
C56   H1    S    
C23   O20   A    
C31   F7    S    
C44   C46   A    
C4    C45   S    
C77   C79   A    
C78   C89   S    
C34   O22   A    
C73   H2    S    
Cu6   O13   S    
C52   O3    A    
C30   C34   S    
C90   Br20  S    
C39   Br9   S    
C38   C39   A    
C24   C25   A    
C80   C82   A    
C2    C67   S    
Cu5   O11   S    
Cu3   O3    S    
Cu1   Cu2   S    
C54   O8    A    
C86   C87   A    
C68   C69   A    
C25   C26   A    
C76   F17   S    
C33   F2    S    
C63   C64   A    
C48   F11   S    
C55   O9    A    
C60   C61   A    
C64   C66   A    
C35   F8    S    
C2    C89   S    
C75   C76   A    
C29   C30   A    
C78   Br11  S    
C1    O12   A    
C3    C56   S    
C24   F5    S    
C31   C32   A    
Cu4   O2    S    
C72   F13   S    
C62   C63   A    
C17   C18   A    
Cu1   O20   S    
C69   C74   A    
C86   Br19  S    
C76   C77   A    
C9    C11   A    
C52   C67   S    
Cu5   O9    S    
Cu2   O19   S    
C50   Br12  S    
C8    F1    S    
C40   C41   A    
C88   C90   A    
C60   C65   A    
C26   C30   A    
C34   O23   A    
C22   C24   A    
Cu6   O15   S    
C42   C43   A    
C3    C4    S    
C28   C29   A    
C39   C40   A    
C55   C66   S    
C4    C89   S    
C16   Br2   S    
C44   C50   A    
C51   O2    A    
C48   C49   A    
C54   O7    A    
C14   C15   A    
C14   C19   A    
C28   C31   A    
C75   C81   A    
C7    Br1   S    
C80   C81   A    
C42   C59   S    
C32   Br6   S    
C68   C71   A    
C6    C7    A    
C25   C27   A    
C56   C67   S    
C29   C35   A    
C45   F6    S    
C55   O10   A    
C10   C15   A    
C88   F15   S    
C2    C3    S    
C61   Br14  S    
C71   C72   A    
C11   C57   S    
Cu2   O23   S    
C32   C33   A    
C11   C13   A    
Cu2   O12   S    
C89   F16   S    
C57   O13   A    
C20   C26   A    
C53   O5    A    
C59   O16   A    
C64   C65   A    
C19   Br4   S    
C33   C35   A    
C69   C70   A    
C21   F3    S    
Cu4   O8    S    
C79   C80   A    
C75   Br17  S    
C5    C10   A    
C83   C86   A    
C20   C21   A    
Cu4   O4    S    
C59   O17   A    
C82   C83   A    
C37   F10   S    
C13   C16   A    
C27   C28   A    
C51   O24   A    
C38   Br8   S    
Cu1   O22   S    
C53   C85   S    
C12   O19   A    
C53   O6    A    
Cu1   O1    S    
C21   C22   A    
C36   Br7   S    
Cu3   O24   S    
C81   C85   A    
C77   Br18  S    
Cu3   O5    S    
C12   O18   A    
