data_mof_unit_65354.cif
_audit_creation_date              2013-03-05T16:09:24-0500
_audit_creation_method            fapswitch 2.2
_symmetry_space_group_name_H-M    P1
_symmetry_Int_Tables_number       1
_space_group_crystal_system       triclinic
_cell_length_a                    10.746585
_cell_length_b                    12.751101
_cell_length_c                    13.916791
_cell_angle_alpha                 97.975702
_cell_angle_beta                  90.245611
_cell_angle_gamma                 93.118553
_cell_volume                      1885.65032717

loop_
_atom_site_label
_atom_site_type_symbol
_atom_site_description
_atom_site_fract_x
_atom_site_fract_y
_atom_site_fract_z
_atom_type_partial_charge
O1    O     O_R   0.492240 0.399110 0.356330 -0.576700
O2    O     O_R   0.505790 0.575900 0.366540 -0.542543
C1    C     C_R   0.498847 0.483581 0.315918 0.837227
O3    O     O_R   0.310920 0.411610 0.494880 -0.583880
O4    O     O_R   0.324460 0.588390 0.505090 -0.584306
C2    C     C_R   0.259439 0.500467 0.499858 0.766976
Cu1   Cu    Cu3+1 0.491980 0.395330 0.493960 0.974200
Cu2   Cu    Cu3+1 0.508020 0.604670 0.506040 1.003786
O5    O     O_R   0.494210 0.424100 0.633460 -0.576530
O6    O     O_R   0.507760 0.600890 0.643670 -0.562240
O7    O     O_R   0.675540 0.411610 0.494910 -0.591095
O8    O     O_R   0.689080 0.588390 0.505120 -0.581003
C3    C     C_R   0.501066 0.516501 0.684093 0.819372
C4    C     C_R   0.740616 0.499825 0.499953 0.807851
C5    C     C_3   0.067870 0.435829 0.404699 -0.409289
H1    H     H_    0.097936 0.352982 0.397916 0.146345
H2    H     H_    0.105264 0.470691 0.340916 0.183684
C6    C     C_3   0.923543 0.433781 0.404635 0.248536
H3    H     H_    0.886290 0.350010 0.402656 0.099741
H4    H     H_    0.098194 0.368785 0.585010 0.184354
H5    H     H_    0.886116 0.368620 0.585579 0.180799
C7    C     C_3   0.069236 0.451630 0.587721 -0.386794
C8    C     C_3   0.078880 0.616030 0.505658 -0.370752
C9    C     C_3   0.121828 0.501099 0.499532 0.102485
H6    H     H_    0.116504 0.665070 0.573034 0.178560
H7    H     H_    0.114882 0.653397 0.442811 0.188830
C10   C     C_3   0.878487 0.500127 0.499124 0.128746
C11   C     C_3   0.925660 0.451437 0.587709 -0.489933
C12   C     C_3   0.936411 0.615622 0.505767 -0.330654
H8    H     H_    0.904156 0.653846 0.443583 0.217258
H9    H     H_    0.906020 0.664110 0.573503 0.163300
H10   H     H_    0.107258 0.497494 0.656447 0.172095
H11   H     H_    0.894239 0.497707 0.656215 0.180803
C13   C     C_1   0.498505 0.526604 0.787244 -0.158226
C14   C     C_2   0.490647 0.551905 0.978313 0.359328
C15   C     C_2   0.492362 0.464611 0.022560 -0.302322
C16   C     C_1   0.495155 0.468922 0.126027 0.110460
C17   C     C_1   0.495317 0.537697 0.874203 -0.052304
C18   C     C_1   0.497173 0.474743 0.212809 -0.111839
H12   H     H_    0.495532 0.386796 0.979613 0.139557
N1    N     N_1   0.479930 0.238040 0.484880 -0.159690
C19   C     C_2   0.464499 0.028185 0.473522 -0.243032
C20   C     C_2   0.535514 0.971807 0.526437 -0.255160
C21   C     C_1   0.525530 0.854621 0.519118 0.231408
C22   C     C_1   0.474475 0.145375 0.480861 0.209690
N2    N     N_1   0.520070 0.761960 0.515120 -0.155578
H13   H     H_    0.603902 0.014134 0.577293 0.162512
H14   H     H_    0.396112 0.985858 0.422664 0.172491
N3    N     N_R   0.486067 0.658115 0.029897 0.147814
O9    O     O_R   0.513472 0.739105 0.984872 -0.337749
O10   O     O_R   0.442649 0.675464 0.117477 -0.346477
O11   O     O_3   0.879251 0.474315 0.322744 -0.736592
H15   H     H_    0.889382 0.418840 0.266211 0.326483

loop_
_geom_bond_atom_site_label_1
_geom_bond_atom_site_label_2
_geom_bond_distance
_ccdc_geom_bond_type
C14   N3    1.445564 S    
C5    C6    1.549820 S    
C8    C9    1.551524 S    
C12   H8    1.113317 S    
C4    C10   1.481533 S    
C10   C12   1.557828 S    
C20   H13   1.085694 S    
C14   C15   1.345680 D    
Cu2   O8    1.967925 S    
C20   C21   1.481512 S    
C2    C9    1.479301 S    
N3    O10   1.301339 A    
Cu1   N1    1.989102 S    
O2    C1    1.283530 A    
C1    C18   1.423652 S    
C3    C13   1.423895 S    
C12   H9    1.113754 S    
C19   H14   1.085704 S    
N1    C22   1.173372 T    
Cu1   O7    1.972067 S    
C7    H10   1.113193 S    
O3    Cu1   1.967925 S    
C8    C12   1.530788 S    
Cu2   O6    1.922660 S    
C5    C9    1.551393 S    
H5    C11   1.113111 S    
O8    C4    1.277920 A    
C11   H11   1.113275 S    
C6    H3    1.116796 S    
Cu2   N2    1.989099 S    
C8    H6    1.113651 S    
O4    C2    1.281455 A    
O7    C4    1.285051 A    
C7    C9    1.550988 S    
O4    Cu2   1.972067 S    
C19   C20   1.357672 D    
H4    C7    1.113094 S    
C6    O11   1.406458 S    
C5    H1    1.113103 S    
Cu1   O5    1.924880 S    
Cu1   Cu2   2.647334 S    
C14   C17   1.436432 S    
O11   H15   0.992918 S    
C16   C18   1.199713 T    
N3    O9    1.301516 A    
C8    H7    1.113641 S    
C10   C11   1.550355 S    
C5    H2    1.113612 S    
O5    C3    1.284473 A    
C15   C16   1.433456 S    
C15   H12   1.087282 S    
C7    C11   1.542819 S    
O1    Cu1   1.922658 S    
C13   C17   1.199638 T    
O3    C2    1.281161 A    
C19   C22   1.481547 S    
O2    Cu2   1.924878 S    
C6    C10   1.555843 S    
C21   N2    1.173351 T    
O1    C1    1.281251 A    
O6    C3    1.280414 A    
