data_mof_unit_25689.cif
_audit_creation_date              2012-12-10T20:36:39-0500
_audit_creation_method            fapswitch 2.2
_symmetry_space_group_name_H-M    P1
_symmetry_Int_Tables_number       1
_space_group_crystal_system       triclinic
_cell_length_a                    10.516744
_cell_length_b                    10.682496
_cell_length_c                    9.914658
_cell_angle_alpha                 89.377698
_cell_angle_beta                  88.478505
_cell_angle_gamma                 90.926057
_cell_volume                      1113.25383134

loop_
_atom_site_label
_atom_site_type_symbol
_atom_type_description
_atom_site_fract_x
_atom_site_fract_y
_atom_site_fract_z
_atom_type_partial_charge
C1    C     C_R   0.507109 0.260849 0.500386 1.015171
C2    C     C_3   0.969630 0.540859 0.377965 -0.036594
C3    C     C_3   0.043951 0.420132 0.405002 -0.193413
C4    C     C_3   0.122857 0.493781 0.505817 -0.107203
C5    C     C_R   0.489438 0.062243 0.616949 -0.022118
C6    C     C_R   0.527624 0.130143 0.502337 -0.207924
C7    C     C_R   0.587215 0.069256 0.392726 0.366827
C8    C     C_R   0.579466 0.938913 0.387923 0.340594
C9    C     C_R   0.521941 0.872388 0.498519 -0.272088
C10   C     C_R   0.489830 0.935139 0.616447 0.041894
C11   C     C_3   0.372853 0.924777 0.705717 0.187081
C12   C     C_R   0.257652 0.495040 0.501949 0.941604
C13   C     C_3   0.372376 0.067279 0.706218 0.144478
C14   C     C_R   0.419520 0.422131 0.074080 0.275125
C15   C     C_R   0.588664 0.566453 0.068503 -0.035645
C16   C     C_R   0.588204 0.567089 0.924905 -0.020387
C17   C     C_R   0.419594 0.422053 0.931908 0.224749
C18   C     C_3   0.278107 0.421661 0.930080 -0.506990
C19   C     C_3   0.278039 0.421995 0.083184 -0.523862
C20   C     C_R   0.504166 0.740023 0.498963 0.933905
C21   C     C_R   0.742450 0.504871 0.498051 0.962665
C22   C     C_3   0.032483 0.459467 0.625312 -0.225467
C23   C     C_3   0.951200 0.387041 0.523936 0.418979
C24   C     C_3   0.877654 0.506418 0.494373 -0.180897
C25   C     C_3   0.958306 0.579136 0.593162 0.352354
C26   C     C_3   0.051989 0.614144 0.477320 -0.244855
H1    H     H_    0.391376 0.109888 0.805656 0.178588
H2    H     H_    0.659414 0.621426 0.119587 0.194806
H3    H     H_    0.657601 0.623857 0.868624 0.208398
H4    H     H_    0.240806 0.509138 0.885444 0.228053
H5    H     H_    0.238784 0.333517 0.888132 0.234560
H6    H     H_    0.241093 0.509857 0.127250 0.236780
H7    H     H_    0.238383 0.334156 0.129696 0.215776
H8    H     H_    0.061195 0.424787 0.725678 0.175638
H9    H     H_    0.098740 0.707317 0.460848 0.176490
H10   H     H_    0.081956 0.352641 0.330428 0.173544
H11   H     H_    0.290905 0.879585 0.655510 0.148539
N1    N     N_R   0.499140 0.499140 0.142800 -0.118787
N2    N     N_R   0.499140 0.499180 0.857150 -0.120336
O1    O     O_R   0.500020 0.316790 0.614690 -0.610797
O2    O     O_R   0.500000 0.316760 0.385350 -0.584781
O3    O     O_R   0.313960 0.499990 0.614650 -0.622269
O4    O     O_R   0.313940 0.499950 0.385310 -0.635509
O5    O     O_R   0.500000 0.683240 0.614650 -0.584678
O6    O     O_R   0.499980 0.683210 0.385310 -0.575718
O7    O     O_R   0.686060 0.500050 0.614690 -0.592444
O8    O     O_R   0.686040 0.500010 0.385350 -0.614634
Zn1   Zn    Zn3+2 0.500010 0.500020 0.653130 1.024303
Zn2   Zn    Zn3+2 0.499990 0.499980 0.346870 1.027004
Cl1   Cl    Cl    0.881381 0.235905 0.554366 -0.512623
Cl2   Cl    Cl    0.406733 0.858337 0.866637 -0.541538
Cl3   Cl    Cl    0.237481 0.129885 0.623927 -0.605101
Cl4   Cl    Cl    0.891449 0.695061 0.698961 -0.658382
C27   C     C_R   0.945916 0.605541 0.246594 0.145036
C28   C     C_R   0.915576 0.733109 0.247675 -0.118699
C29   C     C_R   0.927696 0.805032 0.129726 -0.067797
C30   C     C_R   0.967651 0.749587 0.009790 -0.032866
C31   C     C_R   0.989790 0.620825 0.006152 -0.118261
C32   C     C_R   0.978120 0.548560 0.124171 -0.178537
H12   H     H_    0.890643 0.778688 0.341583 0.187599
H13   H     H_    0.909859 0.904502 0.132207 0.206566
H14   H     H_    0.982716 0.807396 0.920570 0.214718
H15   H     H_    0.020281 0.577565 0.913085 0.174835
H16   H     H_    0.001178 0.450271 0.121096 0.161527
Cl5   Cl    Cl    0.669004 0.153036 0.260444 -0.493690
Cl6   Cl    Cl    0.633445 0.865065 0.238992 -0.553296

loop_
_geom_bond_atom_site_label_1
_geom_bond_atom_site_label_2
_ccdc_geom_bond_type
C4    C26   S    
C28   C29   A    
C15   N1    A    
C8    Cl6   S    
C6    C7    A    
C18   H4    S    
C7    Cl5   S    
C13   Cl3   S    
C4    C22   S    
C9    C10   A    
C27   C28   A    
C9    C20   S    
C5    C13   S    
C20   O6    A    
O6    Zn2   S    
C23   C24   S    
C17   C18   S    
C30   C31   A    
C7    C8    A    
C2    C26   S    
N1    Zn2   S    
O3    Zn1   S    
C28   H12   S    
C24   C25   S    
C11   C13   S    
C14   C17   A    
C32   H16   S    
C3    H10   S    
C19   H6    S    
O2    Zn2   S    
C17   N2    A    
C20   O5    A    
C25   Cl4   S    
C2    C3    S    
C12   O4    A    
C27   C32   A    
C5    C10   A    
C2    C24   S    
C5    C6    A    
C22   H8    S    
O7    Zn1   S    
C31   C32   A    
C11   Cl2   S    
C10   C11   S    
C14   N1    A    
C16   N2    A    
C15   H2    S    
C1    C6    S    
O5    Zn1   S    
C26   H9    S    
C30   H14   S    
C18   C19   S    
C29   C30   A    
C16   H3    S    
O8    Zn2   S    
C21   O7    A    
C2    C27   S    
C21   C24   S    
C1    O2    A    
C31   H15   S    
C11   H11   S    
C21   O8    A    
O1    Zn1   S    
C22   C23   S    
C13   H1    S    
C23   Cl1   S    
C12   O3    A    
C18   H5    S    
C1    O1    A    
C4    C12   S    
C25   C26   S    
C29   H13   S    
C3    C23   S    
C14   C19   S    
O4    Zn2   S    
C3    C4    S    
C15   C16   A    
C19   H7    S    
C8    C9    A    
N2    Zn1   S    
C22   C25   S    
