data_mof_unit_24544.cif
_audit_creation_date              2012-12-10T20:39:12-0500
_audit_creation_method            fapswitch 2.2
_symmetry_space_group_name_H-M    P1
_symmetry_Int_Tables_number       1
_space_group_crystal_system       triclinic
_cell_length_a                    19.176944
_cell_length_b                    10.616985
_cell_length_c                    9.950163
_cell_angle_alpha                 88.762419
_cell_angle_beta                  88.976866
_cell_angle_gamma                 91.243609
_cell_volume                      2024.57641418

loop_
_atom_site_label
_atom_site_type_symbol
_atom_type_description
_atom_site_fract_x
_atom_site_fract_y
_atom_site_fract_z
_atom_type_partial_charge
C1    C     C_R   0.499867 0.260540 0.500972 0.856248
C2    C     C_R   0.853225 0.501318 0.512537 0.071731
C3    C     C_R   0.553409 0.064894 0.565846 0.110047
C4    C     C_R   0.365633 0.501464 0.501458 0.857925
C5    C     C_R   0.501107 0.128484 0.499478 -0.082523
C6    C     C_R   0.457504 0.065172 0.410473 -0.220001
C7    C     C_R   0.458869 0.935320 0.406819 -0.238089
C8    C     C_R   0.503501 0.871352 0.492884 -0.082341
C9    C     C_R   0.554130 0.936461 0.563492 0.127641
C10   C     C_3   0.576921 0.924551 0.705738 -0.457032
C11   C     C_3   0.576442 0.067653 0.708339 -0.482980
C12   C     C_R   0.289787 0.505652 0.506254 -0.084175
C13   C     C_R   0.440118 0.476496 0.074050 0.109101
C14   C     C_R   0.556543 0.545781 0.064816 0.396160
C15   C     C_R   0.556426 0.540018 0.922435 -0.191221
C16   C     C_R   0.500596 0.739359 0.498548 0.900050
C17   C     C_R   0.439784 0.476471 0.933058 0.140955
C18   C     C_3   0.388072 0.366873 0.935783 -0.149902
C19   C     C_3   0.391391 0.366675 0.089153 -0.489080
C20   C     C_R   0.633920 0.500277 0.499238 0.888473
C21   C     C_R   0.255101 0.527778 0.628019 -0.235029
C22   C     C_R   0.182559 0.529331 0.635196 0.097822
C23   C     C_R   0.928802 0.501322 0.518725 0.289760
C24   C     C_R   0.144451 0.507055 0.517272 0.033453
C25   C     C_R   0.179414 0.487445 0.393249 0.100779
C26   C     C_R   0.251910 0.488083 0.389693 -0.237921
C27   C     C_3   0.412480 0.243894 0.874583 -0.320015
C28   C     C_3   0.362683 0.132831 0.911955 -0.385825
C29   C     C_3   0.386627 0.011425 0.847822 -0.883603
C30   C     C_3   0.148234 0.553266 0.770356 -0.431255
C31   C     C_3   0.147083 0.694962 0.796931 -0.322325
C32   C     C_3   0.109582 0.721362 0.929495 -0.859912
C33   C     C_3   0.141862 0.468101 0.262150 -0.422527
C34   C     C_R   0.068929 0.503761 0.522876 0.258954
C35   C     C_3   0.140017 0.328362 0.226070 -0.329772
C36   C     C_3   0.098294 0.306434 0.099267 -0.861427
C37   C     C_R   0.815654 0.588865 0.586448 -0.139135
C38   C     C_R   0.743555 0.588768 0.580831 -0.162858
C39   C     C_R   0.708941 0.502794 0.499518 0.005899
C40   C     C_R   0.746000 0.415631 0.425125 -0.123126
C41   C     C_R   0.818158 0.414519 0.431929 -0.146126
H1    H     H_    0.284430 0.544194 0.718336 0.155777
H2    H     H_    0.417060 0.284264 0.136304 0.207543
H3    H     H_    0.278614 0.474885 0.295079 0.151302
H4    H     H_    0.841843 0.656007 0.649828 0.158567
H5    H     H_    0.714727 0.655774 0.639444 0.150250
H6    H     H_    0.719045 0.347304 0.364255 0.156258
H7    H     H_    0.846429 0.346563 0.373773 0.154400
H8    H     H_    0.420523 0.115395 0.349300 0.148613
H9    H     H_    0.596146 0.791364 0.212971 0.351133
H10   H     H_    0.391985 0.024075 0.736931 0.270346
H11   H     H_    0.437446 0.983458 0.889540 0.260418
H12   H     H_    0.422511 0.885055 0.344021 0.156997
H13   H     H_    0.347711 0.934560 0.870384 0.250612
H14   H     H_    0.359939 0.117535 0.022722 0.228782
H15   H     H_    0.309414 0.153911 0.876603 0.224852
H16   H     H_    0.411325 0.256094 0.764379 0.237334
H17   H     H_    0.466164 0.223549 0.907676 0.205845
H18   H     H_    0.054937 0.684536 0.928135 0.273799
H19   H     H_    0.137138 0.676593 0.014507 0.250568
H20   H     H_    0.108822 0.824597 0.944903 0.249854
H21   H     H_    0.201413 0.733333 0.800780 0.213942
H22   H     H_    0.120070 0.744821 0.714194 0.241807
H23   H     H_    0.536742 0.878482 0.773287 0.217398
H24   H     H_    0.094477 0.512313 0.776689 0.216614
H25   H     H_    0.177882 0.505214 0.850882 0.185215
H26   H     H_    0.043536 0.335917 0.114448 0.273619
H27   H     H_    0.122156 0.360505 0.012915 0.251582
H28   H     H_    0.098092 0.204710 0.075570 0.249619
H29   H     H_    0.194085 0.295534 0.209219 0.209306
H30   H     H_    0.115839 0.271225 0.310151 0.242719
H31   H     H_    0.088086 0.504623 0.266419 0.219844
H32   H     H_    0.169620 0.523248 0.180594 0.186854
H33   H     H_    0.630080 0.885577 0.713257 0.215802
H34   H     H_    0.536312 0.104381 0.777527 0.213950
H35   H     H_    0.629327 0.111263 0.717319 0.213453
H36   H     H_    0.601800 0.569473 0.862936 0.208029
H37   H     H_    0.336342 0.395960 0.898431 0.152310
H38   H     H_    0.340904 0.390873 0.135857 0.171839
N1    N     N_R   0.033691 0.608036 0.555743 -0.174970
N2    N     N_R   0.964542 0.606653 0.554229 -0.172601
N3    N     N_R   0.964278 0.396847 0.486608 -0.177558
N4    N     N_R   0.033398 0.397980 0.488934 -0.174873
N5    N     N_R   0.499530 0.499140 0.142800 -0.161815
N6    N     N_R   0.499530 0.499180 0.857150 -0.140860
O1    O     O_R   0.500010 0.316790 0.614690 -0.635595
O2    O     O_2   0.668938 0.697371 0.017266 -0.343002
O3    O     O_3   0.617346 0.716263 0.255012 -0.515839
O4    O     O_R   0.500000 0.316760 0.385350 -0.618956
O5    O     O_R   0.398140 0.500000 0.614710 -0.628427
O6    O     O_R   0.398130 0.499970 0.385370 -0.623952
O7    O     O_R   0.500000 0.683240 0.614650 -0.623549
O8    O     O_R   0.499990 0.683210 0.385310 -0.591530
O9    O     O_R   0.601870 0.500030 0.614630 -0.640313
O10   O     O_R   0.601860 0.500000 0.385290 -0.511256
O11   O     O_2   0.682753 0.519466 0.170069 -0.275868
S1    S     S_3+6 0.633152 0.619529 0.127404 0.038501
Zn1   Zn    Zn3+2 0.500000 0.500020 0.653130 0.934257
Zn2   Zn    Zn3+2 0.500000 0.499980 0.346870 1.004258

loop_
_geom_bond_atom_site_label_1
_geom_bond_atom_site_label_2
_ccdc_geom_bond_type
C40   H6    S    
C23   N3    A    
C35   C36   S    
C14   N5    A    
C28   H15   S    
C36   H26   S    
O7    Zn1   S    
C7    C8    A    
C15   H36   S    
C13   N5    A    
C16   O8    A    
O4    Zn2   S    
C1    C5    S    
C5    C6    A    
C28   C29   S    
C32   H20   S    
C11   H35   S    
C30   C31   S    
O10   Zn2   S    
C29   H13   S    
O9    Zn1   S    
C2    C41   A    
C18   C19   S    
N6    Zn1   S    
C33   H31   S    
C34   N1    A    
C35   H29   S    
C8    C9    A    
C4    C12   S    
C22   C30   S    
C9    C10   S    
O8    Zn2   S    
O3    S1    S    
H9    O3    S    
C15   N6    A    
C4    O6    A    
C35   H30   S    
C8    C16   S    
C21   C22   A    
C31   H21   S    
C28   H14   S    
C19   H2    S    
C4    O5    A    
C13   C19   S    
C26   H3    S    
C31   H22   S    
C24   C25   A    
C27   H16   S    
C39   C40   A    
C20   C39   S    
C25   C26   A    
C12   C21   A    
C24   C34   S    
C12   C26   A    
C37   C38   A    
C3    C9    A    
C31   C32   S    
C18   H37   S    
O11   S1    D    
C17   C18   S    
C19   H38   S    
C30   H25   S    
C33   H32   S    
C40   C41   A    
C20   O10   A    
C16   O7    A    
C17   N6    A    
C34   N4    A    
C7    H12   S    
C37   H4    S    
C2    C23   S    
C36   H28   S    
C14   S1    S    
C29   H10   S    
C1    O1    A    
C20   O9    A    
C1    O4    A    
C23   N2    A    
N5    Zn2   S    
C10   H23   S    
C18   C27   S    
N1    N2    A    
C3    C5    A    
C27   H17   S    
C36   H27   S    
C6    C7    A    
C13   C17   A    
C11   H34   S    
C10   H33   S    
C2    C37   A    
C38   C39   A    
C33   C35   S    
C41   H7    S    
C22   C24   A    
C6    H8    S    
O1    Zn1   S    
C38   H5    S    
C30   H24   S    
C3    C11   S    
C10   C11   S    
C21   H1    S    
N3    N4    A    
C27   C28   S    
C32   H19   S    
C14   C15   A    
C32   H18   S    
O6    Zn2   S    
O5    Zn1   S    
C25   C33   S    
O2    S1    D    
C29   H11   S    
