data_mof_unit_39517.cif
_audit_creation_date              2012-12-11T17:43:40-0500
_audit_creation_method            fapswitch 2.2
_symmetry_space_group_name_H-M    P1
_symmetry_Int_Tables_number       1
_space_group_crystal_system       triclinic
_cell_length_a                    15.029215
_cell_length_b                    14.967258
_cell_length_c                    16.9349
_cell_angle_alpha                 108.848756
_cell_angle_beta                  106.160083
_cell_angle_gamma                 109.050555
_cell_volume                      3078.17082844

loop_
_atom_site_label
_atom_site_type_symbol
_atom_type_description
_atom_site_fract_x
_atom_site_fract_y
_atom_site_fract_z
_atom_type_partial_charge
C1    C     C_R   0.091640 0.277633 0.022476 -0.120617
C2    C     C_R   0.103422 0.072716 0.952996 -0.229924
C3    C     C_R   0.010484 0.888638 0.917249 0.054405
C4    C     C_R   0.008393 0.075617 0.921297 0.054107
C5    C     C_R   0.105686 0.978262 0.946481 0.029631
C6    C     C_R   0.916276 0.978134 0.863983 0.030048
C7    C     C_R   0.834665 0.015769 0.736113 -0.139906
C8    C     C_R   0.295884 0.051151 0.046775 -0.181611
C9    C     C_R   0.647346 0.935153 0.651084 -0.088218
C10   C     C_R   0.396933 0.967110 0.997082 -0.096381
C11   C     C_R   0.496941 0.697572 0.358433 -0.115049
C12   C     C_R   0.916182 0.711719 0.919153 -0.139826
C13   C     C_R   0.510848 0.420386 0.731991 -0.119255
C14   C     C_R   0.506285 0.684802 0.276094 -0.133679
C15   C     C_R   0.522489 0.445147 0.822362 -0.103700
C16   C     C_R   0.935621 0.445650 0.736298 -0.123712
C17   C     C_R   0.062125 0.488052 0.257182 -0.138900
C18   C     C_R   0.529038 0.604065 0.230721 0.111273
C19   C     C_R   0.553958 0.550025 0.884949 0.115450
C20   C     C_R   0.543026 0.537102 0.269887 -0.167710
C21   C     C_R   0.572325 0.629292 0.855513 -0.186082
C22   C     C_R   0.533859 0.550367 0.352399 -0.104482
C23   C     C_R   0.027025 0.456054 0.726295 0.067431
C24   C     C_R   0.561743 0.604252 0.765319 -0.115315
C25   C     C_R   0.510813 0.630473 0.396605 -0.096320
C26   C     C_R   0.531010 0.499845 0.703594 -0.098140
C27   C     C_R   0.620940 0.575334 0.129590 -0.234662
C28   C     C_R   0.485031 0.597372 0.995993 -0.227237
C29   C     C_R   0.630022 0.563763 0.047048 0.066605
C30   C     C_R   0.466345 0.593849 0.071342 0.052970
C31   C     C_R   0.561390 0.575735 0.979637 0.013175
C32   C     C_R   0.538119 0.590240 0.142779 0.023663
C33   C     C_R   0.747260 0.999927 0.665388 -0.092708
C34   C     C_R   0.969010 0.433896 0.260622 0.076222
C35   C     C_R   0.390501 0.046836 0.062986 -0.107290
C36   C     C_R   0.955947 0.399991 0.330927 0.054747
C37   C     C_R   0.031501 0.405571 0.637315 0.057327
C38   C     C_R   0.127210 0.411123 0.542947 -0.275179
C39   C     C_R   0.852652 0.340704 0.408309 -0.278573
C40   C     C_R   0.719662 0.215189 0.823771 -0.123832
C41   C     C_R   0.224788 0.798182 0.187758 -0.134482
C42   C     C_R   0.125466 0.421681 0.627736 0.061040
C43   C     C_R   0.860037 0.368413 0.338943 0.075740
C44   C     C_R   0.938646 0.356233 0.557102 -0.276203
C45   C     C_R   0.663148 0.218409 0.745719 0.065476
C46   C     C_R   0.042321 0.403692 0.394392 -0.284864
C47   C     C_R   0.941687 0.356428 0.476440 0.171522
C48   C     C_R   0.037180 0.387870 0.469960 0.171176
C49   C     C_R   0.554212 0.145646 0.679241 0.130315
C50   C     C_R   0.283620 0.900523 0.360945 0.132775
C51   C     C_R   0.388922 0.090894 0.446249 -0.233105
C52   C     C_R   0.405707 0.972392 0.608199 -0.243062
C53   C     C_R   0.321161 0.000736 0.362934 -0.170114
C54   C     C_R   0.497394 0.053625 0.684003 -0.177468
C55   C     C_R   0.299687 0.893592 0.444035 -0.289970
C56   C     C_R   0.242404 0.804283 0.274718 0.054555
C57   C     C_R   0.510463 0.161973 0.603791 -0.309775
C58   C     C_R   0.371912 0.982608 0.527254 0.191570
C59   C     C_R   0.421146 0.080434 0.527074 0.198960
C60   C     C_R   0.634499 0.888061 0.708828 -0.135763
C61   C     C_R   0.308881 0.891773 0.914606 -0.124647
C62   C     C_R   0.721670 0.903936 0.779920 -0.178488
C63   C     C_R   0.214163 0.895896 0.897913 -0.143427
C64   C     C_R   0.301001 0.600532 0.007313 -0.144788
C65   C     C_R   0.736994 0.463439 0.047584 -0.138139
C66   C     C_R   0.822806 0.967317 0.793775 0.113319
C67   C     C_R   0.360990 0.570560 0.059208 0.061031
C68   C     C_R   0.206615 0.975056 0.964337 0.112439
C69   C     C_R   0.725543 0.311233 0.747873 -0.150667
C70   C     C_R   0.219782 0.702764 0.265573 -0.126531
C71   C     C_R   0.297183 0.502770 0.081663 -0.129303
C72   C     C_R   0.753662 0.566161 0.976072 -0.111102
C73   C     C_R   0.109102 0.531571 0.812393 -0.134243
C74   C     C_R   0.889834 0.402081 0.177285 -0.132332
C75   C     C_R   0.917496 0.192993 0.948218 -0.132809
C76   C     C_R   0.087543 0.796729 0.000029 -0.145326
C77   C     C_R   0.006111 0.178422 0.959083 0.054177
C78   C     C_R   0.709235 0.537501 0.030333 0.045996
C79   C     C_R   0.004998 0.803551 0.945469 0.063933
C80   C     C_1   0.770673 0.374351 0.285228 0.001228
C81   C     C_1   0.219819 0.446880 0.701557 0.023281
C82   C     C_R   0.917307 0.886481 0.867579 -0.230585
H1    H     H_    0.173057 0.296734 0.048966 0.093454
H2    H     H_    0.506082 0.382738 0.843376 0.113692
H3    H     H_    0.559471 0.473699 0.235960 0.122050
H4    H     H_    0.595341 0.710286 0.902588 0.112222
H5    H     H_    0.544322 0.498260 0.381939 0.106632
H6    H     H_    0.576594 0.665562 0.743043 0.105179
H7    H     H_    0.677298 0.571040 0.182523 0.137037
H8    H     H_    0.430611 0.601135 0.941291 0.137210
H9    H     H_    0.115867 0.426414 0.389382 0.125849
H10   H     H_    0.863787 0.332157 0.559148 0.122132
H11   H     H_    0.200084 0.429287 0.536460 0.133834
H12   H     H_    0.839044 0.683188 0.867187 0.095874
H13   H     H_    0.779815 0.318535 0.415170 0.131283
H14   H     H_    0.856444 0.394345 0.685338 0.095329
H15   H     H_    0.139898 0.510619 0.304308 0.087773
H16   H     H_    0.757012 0.036943 0.620982 0.113529
H17   H     H_    0.458808 0.105156 0.126802 0.112292
H18   H     H_    0.550839 0.233084 0.599168 0.113926
H19   H     H_    0.266293 0.817738 0.444084 0.120570
H20   H     H_    0.527174 0.040258 0.742719 0.123012
H21   H     H_    0.305884 0.009547 0.300372 0.116466
H22   H     H_    0.424135 0.166518 0.445954 0.123462
H23   H     H_    0.911598 0.064336 0.744906 0.117574
H24   H     H_    0.367325 0.898349 0.609918 0.128220
H25   H     H_    0.579891 0.921563 0.595250 0.114745
H26   H     H_    0.470180 0.963765 0.009893 0.101189
H27   H     H_    0.556930 0.838679 0.698129 0.105476
H28   H     H_    0.313993 0.830118 0.863603 0.108025
H29   H     H_    0.710221 0.866726 0.823930 0.105870
H30   H     H_    0.146517 0.836995 0.833701 0.117484
H31   H     H_    0.689942 0.162500 0.851466 0.089285
H32   H     H_    0.234919 0.861975 0.169258 0.096212
H33   H     H_    0.327693 0.663310 0.988182 0.092779
H34   H     H_    0.291858 0.112701 0.098935 0.110967
H35   H     H_    0.713812 0.422943 0.086374 0.111497
H36   H     H_    0.702269 0.348914 0.707039 0.092007
H37   H     H_    0.226325 0.677726 0.318913 0.093337
H38   H     H_    0.320603 0.471133 0.128313 0.105812
H39   H     H_    0.751594 0.624577 0.952506 0.113614
H40   H     H_    0.191390 0.562007 0.831236 0.110205
H41   H     H_    0.810695 0.340790 0.147029 0.104311
H42   H     H_    0.837061 0.134352 0.908749 0.116214
H43   H     H_    0.169291 0.847077 0.026380 0.118285
H44   H     H_    0.845148 0.813630 0.831245 0.120848
H45   H     H_    0.503709 0.640561 0.460432 0.100774
H46   H     H_    0.176277 0.143957 0.983700 0.123759
H47   H     H_    0.522006 0.480336 0.633557 0.096601
H48   H     H_    0.479104 0.759630 0.392720 0.109625
H49   H     H_    0.485036 0.339401 0.683705 0.119161
H50   H     H_    0.495972 0.738025 0.247842 0.113422
N1    N     N_R   0.055660 0.348550 0.045620 -0.041545
N2    N     N_R   0.185200 0.638170 0.176300 -0.038890
N3    N     N_R   0.201680 0.494570 0.045620 -0.040955
N4    N     N_R   0.798320 0.505430 0.954380 -0.041302
N5    N     N_R   0.068420 0.560530 0.871650 -0.042358
N6    N     N_R   0.931580 0.439470 0.128350 -0.041330
N7    N     N_R   0.948070 0.295860 0.997670 -0.043936
N8    N     N_R   0.051930 0.704140 0.002330 -0.039814
N9    N     N_1   0.698770 0.379133 0.242841 -0.117505
N10   N     N_1   0.295681 0.466380 0.760276 -0.086446
N11   N     N_R   0.944340 0.651450 0.954380 -0.039651
N12   N     N_R   0.960830 0.507850 0.823700 -0.042039
N13   N     N_R   0.039170 0.492150 0.176300 -0.038679
N14   N     N_R   0.811290 0.303410 0.871650 -0.040751
N15   N     N_R   0.188710 0.696590 0.128350 -0.040018
N16   N     N_R   0.205200 0.552990 0.997670 -0.038066
N17   N     N_R   0.794800 0.447010 0.002330 -0.041566
N18   N     N_R   0.814800 0.361830 0.823700 -0.038878
Ni1   Ni    Ni4+2 0.119340 0.493420 0.109960 0.215178
Ni2   Ni    Ni4+2 0.880660 0.506580 0.890040 0.214119
Ni3   Ni    Ni4+2 0.872590 0.372590 0.000000 0.209854
Ni4   Ni    Ni4+2 0.127410 0.627410 0.000000 0.214389

loop_
_geom_bond_atom_site_label_1
_geom_bond_atom_site_label_2
_ccdc_geom_bond_type
C6    C82   A    
C72   H39   S    
C27   C29   A    
C1    C77   A    
C14   C18   A    
C10   H26   S    
N1    Ni1   S    
N8    N11   A    
C41   H32   S    
C19   C31   S    
N4    N17   A    
C14   H50   S    
C15   C19   A    
N2    N15   A    
C74   N6    A    
C71   H38   S    
C69   N18   A    
C19   C21   A    
C24   C26   A    
C38   C42   A    
C71   N3    A    
C11   C14   A    
C35   H17   S    
C57   C59   A    
N7    Ni3   S    
N6    N13   A    
C49   C54   A    
C12   C79   A    
C69   H36   S    
C37   C42   A    
C49   C57   A    
C60   C62   A    
C33   H16   S    
C63   H30   S    
C61   C63   A    
N15   Ni4   S    
N17   Ni3   S    
C82   H44   S    
C72   C78   A    
C60   H27   S    
N14   N18   A    
C29   C78   S    
C40   H31   S    
C22   C25   A    
C7    H23   S    
C36   C46   A    
C10   C35   A    
C67   C71   A    
C30   C67   S    
C44   H10   S    
C44   C47   A    
C74   H41   S    
C52   H24   S    
C64   H33   S    
C64   N16   A    
C9    C33   A    
C76   H43   S    
C7    C33   A    
C12   H12   S    
C42   C81   S    
N16   Ni4   S    
C23   C73   A    
C5    C68   S    
C1    N1    A    
C61   H28   S    
N4    Ni2   S    
C52   C54   A    
C76   N8    A    
C40   C45   A    
C46   C48   A    
C16   H14   S    
C50   C53   A    
C62   C66   A    
C45   C69   A    
C75   H42   S    
C64   C67   A    
C4    C6    A    
N2    Ni1   S    
C39   C43   A    
C46   H9    S    
C43   C80   S    
C23   C37   S    
C57   H18   S    
C50   C56   S    
C51   C53   A    
C8    C35   A    
C17   N13   A    
C41   C56   A    
C24   H6    S    
C47   C48   A    
C41   N15   A    
C45   C49   S    
C70   H37   S    
C20   H3    S    
C3    C82   A    
C13   H49   S    
C22   H5    S    
C62   H29   S    
C75   C77   A    
C39   H13   S    
C3    C79   S    
N13   Ni1   S    
C26   H47   S    
C52   C58   A    
C34   C74   A    
N6    Ni3   S    
C81   N10   T    
N5    N12   A    
C20   C22   A    
N1    N7    A    
C16   C23   A    
C56   C70   A    
C13   C15   A    
N18   Ni2   S    
C13   C26   A    
C21   C24   A    
C10   C61   A    
C18   C32   S    
C17   C34   A    
C11   H48   S    
C39   C47   A    
C55   H19   S    
C21   H4    S    
N11   Ni2   S    
C65   H35   S    
C65   C78   A    
C51   H22   S    
C16   N12   A    
C27   C32   A    
C38   C48   A    
C54   H20   S    
C28   C31   A    
C3    C5    A    
C8    C68   A    
C15   H2    S    
C1    H1    S    
C63   C68   A    
C50   C55   A    
C12   N11   A    
C40   N14   A    
C9    C60   A    
C37   C44   A    
C28   C30   A    
C58   C59   A    
C4    C77   S    
N12   Ni2   S    
C75   N7    A    
C7    C66   A    
C30   C32   A    
N14   Ni3   S    
C73   N5    A    
C53   H21   S    
N3    Ni1   S    
C2    C4    A    
C38   H11   S    
C34   C36   S    
N5    Ni4   S    
C27   H7    S    
C18   C20   A    
N3    N16   A    
C25   H45   S    
C72   N4    A    
C8    H34   S    
C2    C5    A    
C6    C66   S    
C76   C79   A    
C51   C59   A    
C29   C31   A    
C73   H40   S    
C55   C58   A    
C70   N2    A    
C65   N17   A    
C11   C25   A    
C9    H25   S    
C36   C43   A    
C28   H8    S    
C17   H15   S    
C80   N9    T    
N8    Ni4   S    
C2    H46   S    
