data_mof_unit_68198.cif
_audit_creation_date              2012-12-11T16:32:27-0500
_audit_creation_method            fapswitch 2.2
_symmetry_space_group_name_H-M    P1
_symmetry_Int_Tables_number       1
_space_group_crystal_system       triclinic
_cell_length_a                    6.981338
_cell_length_b                    14.081907
_cell_length_c                    16.379206
_cell_angle_alpha                 89.69875
_cell_angle_beta                  89.836353
_cell_angle_gamma                 90.174601
_cell_volume                      1610.21241473

loop_
_atom_site_label
_atom_site_type_symbol
_atom_type_description
_atom_site_fract_x
_atom_site_fract_y
_atom_site_fract_z
_atom_type_partial_charge
O1    O     O_R   0.361630 0.167340 0.164570 -0.547697
O2    O     O_R   0.638370 0.832660 0.835430 -0.547704
O3    O     O_R   0.690860 0.157560 0.338690 -0.544402
O4    O     O_R   0.309140 0.842440 0.661310 -0.544407
O5    O     O_R   0.861260 0.336420 0.339380 -0.534360
O6    O     O_R   0.138740 0.663580 0.660620 -0.534361
C1    C     C_R   0.521894 0.136611 0.369215 0.704042
C2    C     C_R   0.478106 0.863389 0.630785 0.704041
O7    O     O_R   0.691330 0.156310 0.165190 -0.548166
O8    O     O_R   0.308670 0.843690 0.834810 -0.548160
O9    O     O_R   0.861730 0.335160 0.164640 -0.536027
O10   O     O_R   0.138270 0.664840 0.835360 -0.536024
C3    C     C_R   0.521784 0.132143 0.137648 0.716674
C4    C     C_R   0.478215 0.867856 0.862352 0.716653
O11   O     O_R   0.361150 0.168600 0.339320 -0.533481
O12   O     O_R   0.638850 0.831400 0.660680 -0.533482
O13   O     O_3   0.527950 0.310560 0.252000 -0.346422
O14   O     O_3   0.472050 0.689440 0.748000 -0.346415
V1    V     V_3+5 0.802770 0.240990 0.251980 1.436837
V2    V     V_3+5 0.197230 0.759010 0.748020 1.436844
O15   O     O_R   0.191450 0.346190 0.165260 -0.538165
O16   O     O_R   0.808550 0.653810 0.834740 -0.538172
C5    C     C_R   0.023526 0.368484 0.137017 0.688297
C6    C     C_R   0.976475 0.631514 0.862982 0.688288
O17   O     O_R   0.190980 0.347440 0.338770 -0.519077
O18   O     O_R   0.809020 0.652560 0.661230 -0.519078
C7    C     C_R   0.022448 0.369388 0.367661 0.775584
C8    C     C_R   0.977552 0.630611 0.632340 0.775582
V3    V     V_3+5 0.302780 0.262760 0.251980 1.475470
V4    V     V_3+5 0.697220 0.737240 0.748020 1.475461
O19   O     O_3   0.027730 0.193200 0.251960 -0.381703
O20   O     O_3   0.972270 0.806800 0.748040 -0.381701
C9    C     C_3   0.826430 0.487714 0.466598 -0.186605
C10   C     C_3   0.173567 0.512283 0.533404 -0.186610
C11   C     C_3   0.879621 0.465775 0.556449 0.158101
C12   C     C_3   0.120376 0.534223 0.443553 0.158101
H1    H     H_    0.682326 0.477276 0.439647 0.197217
H2    H     H_    0.317670 0.522722 0.560355 0.197216
C13   C     C_3   0.987159 0.561205 0.561930 -0.162095
C14   C     C_3   0.012838 0.438793 0.438072 -0.162095
C15   C     C_3   0.935023 0.583555 0.472505 0.173520
C16   C     C_3   0.064973 0.416443 0.527497 0.173523
H3    H     H_    0.949168 0.303392 0.764870 0.168463
H4    H     H_    0.050785 0.696607 0.235131 0.168463
C17   C     C_R   0.990530 0.698001 0.029361 -0.153139
C18   C     C_R   0.009485 0.301998 0.970637 -0.153160
C19   C     C_R   0.011839 0.733440 0.108398 0.207591
C20   C     C_R   0.988147 0.266559 0.891601 0.207589
C21   C     C_R   0.035801 0.670257 0.173511 -0.028204
C22   C     C_R   0.964170 0.329742 0.826489 -0.028204
C23   C     C_R   0.036844 0.572452 0.160077 -0.088456
C24   C     C_R   0.963135 0.427548 0.839924 -0.088457
C25   C     C_R   0.017552 0.535203 0.080547 0.084564
C26   C     C_R   0.982444 0.464796 0.919452 0.084566
C27   C     C_R   0.997649 0.599305 0.013717 0.030035
C28   C     C_R   0.002358 0.400694 0.986282 0.030024
C29   C     C_R   0.016334 0.435839 0.066999 -0.140220
C30   C     C_R   0.983668 0.564160 0.933000 -0.140216
H5    H     H_    0.969684 0.748738 0.980291 0.109894
H6    H     H_    0.030346 0.251262 0.019706 0.109898
H7    H     H_    0.052119 0.526398 0.212698 0.133432
H8    H     H_    0.947851 0.473602 0.787303 0.133435
C31   C     C_3   0.321887 0.027362 0.479009 -0.122281
C32   C     C_3   0.678109 0.972636 0.520989 -0.122264
C33   C     C_3   0.400177 0.924789 0.476906 0.162695
C34   C     C_3   0.599818 0.075208 0.523093 0.162718
H9    H     H_    0.174343 0.048571 0.461694 0.133618
H10   H     H_    0.825654 0.951426 0.538304 0.133610
C35   C     C_3   0.489992 0.937084 0.561718 -0.057761
C36   C     C_3   0.510004 0.062914 0.438281 -0.057755
C37   C     C_3   0.413003 0.040209 0.564785 -0.163520
C38   C     C_3   0.586992 0.959788 0.435213 -0.163518
H11   H     H_    0.340187 0.074262 0.617267 0.152301
H12   H     H_    0.659800 0.925736 0.382728 0.152302
H13   H     H_    0.513033 0.798866 0.238851 0.187424
H14   H     H_    0.486837 0.201142 0.761155 0.187433
C39   C     C_R   0.508879 0.204211 0.966346 0.047997
C40   C     C_R   0.491127 0.795791 0.033658 0.047958
C41   C     C_R   0.484998 0.236203 0.885737 0.202792
C42   C     C_R   0.514951 0.763801 0.114271 0.202807
C43   C     C_R   0.492196 0.173033 0.822885 -0.156570
C44   C     C_R   0.507712 0.826973 0.177120 -0.156559
C45   C     C_R   0.519251 0.076584 0.836751 0.085152
C46   C     C_R   0.480678 0.923422 0.163249 0.085126
C47   C     C_R   0.504357 0.036649 0.917829 0.008991
C48   C     C_R   0.495613 0.963354 0.082172 0.008997
C49   C     C_R   0.506603 0.102334 0.985136 -0.030580
C50   C     C_R   0.493388 0.897668 0.014867 -0.030555
C51   C     C_R   0.491495 0.935214 0.932720 -0.113648
C52   C     C_R   0.508499 0.064787 0.067281 -0.113654
I1    I     I_    0.673411 0.412221 0.640182 -0.409693
I2    I     I_    0.326583 0.587781 0.359822 -0.409689
C53   C     C_3   0.550698 0.281616 0.027053 -0.666632
H15   H     H_    0.685494 0.264781 0.057474 0.208457
H16   H     H_    0.581404 0.352250 0.000952 0.222521
H17   H     H_    0.428891 0.291949 0.068548 0.226468
C54   C     C_3   0.449449 0.718386 0.972944 -0.666689
H18   H     H_    0.314649 0.735181 0.942507 0.208480
H19   H     H_    0.571301 0.708112 0.931468 0.226477
H20   H     H_    0.418822 0.647739 0.999037 0.222547
I3    I     I_    0.454495 0.381586 0.849124 -0.421088
I4    I     I_    0.545469 0.618423 0.150895 -0.421089
C55   C     C_3   0.575866 0.023112 0.761981 -0.757219
H21   H     H_    0.613835 0.070337 0.710192 0.191828
H22   H     H_    0.707469 0.981510 0.773153 0.224339
H23   H     H_    0.450784 0.981407 0.742852 0.193679
C56   C     C_3   0.424027 0.976895 0.238010 -0.757197
H24   H     H_    0.386033 0.929673 0.289796 0.191813
H25   H     H_    0.549092 0.018600 0.257150 0.193659
H26   H     H_    0.292434 0.018497 0.226824 0.224352
I5    I     I_    0.822050 0.713404 0.425637 -0.479417
I6    I     I_    0.177948 0.286593 0.574365 -0.479420
C57   C     C_3   0.007673 0.838711 0.122351 -0.768226
H27   H     H_    0.028530 0.856425 0.187742 0.215224
H28   H     H_    0.122032 0.873563 0.086000 0.216092
H29   H     H_    0.868849 0.868108 0.102050 0.214587
C58   C     C_3   0.992291 0.161287 0.877649 -0.768222
H30   H     H_    0.971418 0.143573 0.812258 0.215225
H31   H     H_    0.131111 0.131883 0.897947 0.214584
H32   H     H_    0.877930 0.126442 0.914003 0.216091
C59   C     C_3   0.283079 0.838356 0.453177 -0.714244
H33   H     H_    0.161577 0.830179 0.496445 0.218516
H34   H     H_    0.226221 0.846552 0.390468 0.222086
H35   H     H_    0.374256 0.774242 0.456751 0.254663
C60   C     C_3   0.716906 0.161642 0.546831 -0.714391
H36   H     H_    0.838377 0.169844 0.503564 0.218545
H37   H     H_    0.625723 0.225741 0.543280 0.254688
H38   H     H_    0.773780 0.153435 0.609527 0.222102

loop_
_geom_bond_atom_site_label_1
_geom_bond_atom_site_label_2
_ccdc_geom_bond_type
H4    C21   S    
C31   C33   S    
C53   H15   S    
C3    C52   S    
C38   H12   S    
O13   V3    S    
C25   C27   A    
C23   H7    S    
H13   C44   S    
O4    C2    A    
V1    O19   S    
C1    C36   S    
C54   H18   S    
C19   C21   A    
O9    V1    S    
C2    C35   S    
C45   C55   S    
C32   H10   S    
C46   C48   A    
O3    C1    A    
C58   H31   S    
V2    O20   S    
C9    C11   S    
C40   C42   A    
O12   V4    S    
C46   C56   S    
C48   C50   A    
C28   C29   A    
C5    C29   S    
C17   C19   A    
C39   C53   S    
C35   C37   S    
C11   C16   S    
O7    C3    A    
C59   H35   S    
C16   I6    S    
C54   H19   S    
O5    C7    A    
O7    V1    S    
O6    C8    A    
O8    V2    S    
C21   C23   A    
C10   C16   S    
C60   H38   S    
C22   C24   A    
C56   H24   S    
O3    V1    S    
O14   V4    S    
C33   C59   S    
C10   C12   S    
C57   H29   S    
C12   I2    S    
C1    O11   A    
C2    O12   A    
C56   H25   S    
C12   C15   S    
C43   C45   A    
C24   C26   A    
O11   V3    S    
C18   C20   A    
C39   C41   A    
O17   V3    S    
C31   H9    S    
C9    C14   S    
C47   C49   A    
C10   C13   S    
C6    C30   S    
C12   C14   S    
C13   C15   S    
O8    C4    A    
C58   H32   S    
C37   H11   S    
C25   C29   A    
C8    C13   S    
O15   V3    S    
C9    H1    S    
C42   I4    S    
C23   C25   A    
C32   C34   S    
C11   C13   S    
C4    C51   S    
C34   C37   S    
C31   C36   S    
C7    C14   S    
O10   V2    S    
C40   C54   S    
O1    V3    S    
C55   H22   S    
C32   C35   S    
C20   C22   A    
C39   C49   A    
C59   H33   S    
C42   C44   A    
C45   C47   A    
C31   C37   S    
O18   V4    S    
C53   H17   S    
C44   C46   A    
O15   C5    A    
C48   C52   A    
C60   H36   S    
C56   H26   S    
O16   C6    A    
C27   C30   A    
O1    C3    A    
H3    C22   S    
C54   H20   S    
C41   C43   A    
C57   H27   S    
C26   C30   A    
C40   C50   A    
C19   C57   S    
C17   H5    S    
C47   C51   A    
O16   V4    S    
C18   H6    S    
C10   H2    S    
C14   C16   S    
H14   C43   S    
C26   C28   A    
C20   C58   S    
O5    V1    S    
O17   C7    A    
C33   C38   S    
O6    V2    S    
O10   C6    A    
O18   C8    A    
C34   C60   S    
O2    V4    S    
C9    C15   S    
V3    O19   S    
C24   H8    S    
C58   H30   S    
V4    O20   S    
C34   C36   S    
C33   C35   S    
O9    C5    A    
O13   V1    S    
C55   H23   S    
O14   V2    S    
C32   C38   S    
O2    C4    A    
C59   H34   S    
O4    V2    S    
C50   C51   A    
C17   C27   A    
C53   H16   S    
C15   I5    S    
C49   C52   A    
C18   C28   A    
C55   H21   S    
C60   H37   S    
C41   I3    S    
C36   C38   S    
C57   H28   S    
C11   I1    S    
