data_mof_unit_53829.cif
_audit_creation_date              2013-03-05T16:33:12-0500
_audit_creation_method            fapswitch 2.2
_symmetry_space_group_name_H-M    P1
_symmetry_Int_Tables_number       1
_space_group_crystal_system       triclinic
_cell_length_a                    27.749018
_cell_length_b                    10.899949
_cell_length_c                    9.585856
_cell_angle_alpha                 89.598431
_cell_angle_beta                  89.755603
_cell_angle_gamma                 91.460957
_cell_volume                      2898.32329703

loop_
_atom_site_label
_atom_site_type_symbol
_atom_site_description
_atom_site_fract_x
_atom_site_fract_y
_atom_site_fract_z
_atom_type_partial_charge
O1    O     O_R   0.500000 0.319640 0.618810 -0.578678
O2    O     O_R   0.500010 0.319680 0.381230 -0.571657
C1    C     C_R   0.497967 0.262698 0.499464 0.817990
O3    O     O_R   0.430260 0.500000 0.618780 -0.587506
O4    O     O_R   0.430270 0.500040 0.381190 -0.610801
C2    C     C_R   0.407505 0.498146 0.499810 0.842014
Cu1   Cu    Cu3+1 0.500000 0.499980 0.640670 1.017810
Cu2   Cu    Cu3+1 0.500000 0.500020 0.359330 0.999058
O5    O     O_R   0.499990 0.680320 0.618770 -0.544280
O6    O     O_R   0.500000 0.680360 0.381190 -0.581456
O7    O     O_R   0.569730 0.499960 0.618810 -0.575922
O8    O     O_R   0.569740 0.500000 0.381220 -0.561489
C3    C     C_R   0.497210 0.736608 0.499171 0.864500
C4    C     C_R   0.592382 0.501396 0.499329 0.881668
C5    C     C_R   0.177752 0.418556 0.424270 0.663176
O9    O     O_2   0.203211 0.320126 0.386822 -0.449291
N1    N     N_R   0.201836 0.521627 0.469854 -0.458180
C6    C     C_R   0.178082 0.626401 0.500721 0.720554
C7    C     C_R   0.282823 0.587107 0.392384 0.462723
C8    C     C_R   0.333002 0.579354 0.400842 -0.345524
C9    C     C_R   0.324989 0.426598 0.586627 -0.120595
C10   C     C_R   0.274410 0.441497 0.587274 -0.120018
C11   C     C_R   0.253467 0.519118 0.485969 0.281385
C12   C     C_R   0.101766 0.520691 0.454980 -0.197423
C13   C     C_R   0.126939 0.414161 0.419428 -0.065381
C14   C     C_R   0.100892 0.308384 0.374788 0.331303
C15   C     C_R   0.127420 0.630010 0.489171 -0.082422
C16   C     C_R   0.354371 0.500504 0.496986 -0.065790
C17   C     C_R   0.645391 0.505659 0.496363 -0.031583
C18   C     C_R   0.975334 0.400726 0.475478 0.017303
C19   C     C_R   0.974751 0.623575 0.448933 0.088759
C20   C     C_R   0.949526 0.510251 0.464232 -0.032113
C21   C     C_R   0.951093 0.293547 0.526842 0.364867
C22   C     C_R   0.900435 0.293186 0.548370 0.339209
C23   C     C_R   0.873833 0.397184 0.509884 -0.103064
C24   C     C_R   0.898611 0.506624 0.468761 -0.113139
C25   C     C_R   0.872643 0.612983 0.434324 -0.039017
C26   C     C_R   0.821936 0.601181 0.426496 0.567868
N2    N     N_R   0.798426 0.498988 0.478885 -0.451498
C27   C     C_R   0.823044 0.398045 0.520084 0.657793
C28   C     C_R   0.718933 0.415936 0.413144 -0.096520
C29   C     C_R   0.668920 0.417832 0.417239 -0.244824
C30   C     C_R   0.672605 0.595464 0.570359 -0.092883
C31   C     C_R   0.723476 0.587089 0.575698 -0.038215
C32   C     C_R   0.746591 0.498919 0.492101 0.325765
O10   O     O_2   0.798188 0.299261 0.570410 -0.454900
C33   C     C_R   0.025328 0.405005 0.440927 0.054426
C34   C     C_R   0.050905 0.518233 0.454067 -0.079817
C35   C     C_R   0.025454 0.628085 0.469304 0.012247
C36   C     C_R   0.049987 0.302395 0.389519 0.360338
H1    H     H_    0.648382 0.350549 0.357796 0.162185
H2    H     H_    0.736416 0.349511 0.347870 0.169419
O11   O     O_2   0.203601 0.725563 0.545057 -0.421545
C37   C     C_R   0.102027 0.738878 0.512720 0.355548
H3    H     H_    0.355610 0.634541 0.330974 0.145102
C38   C     C_R   0.948821 0.727994 0.412786 -0.090040
C39   C     C_R   0.898410 0.725252 0.406771 -0.044673
O12   O     O_2   0.795944 0.689264 0.365291 -0.547389
C40   C     C_R   0.050924 0.736334 0.509890 0.274639
H4    H     H_    0.967775 0.812979 0.386484 0.223785
C41   C     C_R   0.500921 0.060746 0.614579 -0.031730
C42   C     C_R   0.493911 0.129516 0.494881 -0.128662
C43   C     C_R   0.482437 0.063973 0.369847 -0.026749
C44   C     C_R   0.480236 0.933499 0.371001 -0.058028
C45   C     C_R   0.492372 0.868685 0.495349 -0.148223
C46   C     C_R   0.501023 0.937044 0.614274 -0.035944
C47   C     C_3   0.509696 0.927701 0.768231 0.162154
C48   C     C_3   0.508825 0.070220 0.768152 0.275574
H5    H     H_    0.479160 0.881448 0.824722 0.186585
C49   C     C_R   0.531297 0.574801 0.072732 0.173024
N3    N     N_R   0.500300 0.500930 0.147930 -0.250345
C50   C     C_R   0.465561 0.438122 0.077120 0.010068
H6    H     H_    0.438531 0.385085 0.134646 0.158411
C51   C     C_R   0.465517 0.436232 0.929760 0.499829
N4    N     N_R   0.500310 0.500890 0.852020 -0.240853
C52   C     C_R   0.531396 0.574770 0.925496 0.191457
C53   C     C_3   0.585155 0.574186 0.919313 -0.493553
C54   C     C_3   0.585067 0.573156 0.077812 0.216322
H7    H     H_    0.599287 0.488491 0.874292 0.206586
H8    H     H_    0.600218 0.660467 0.873490 0.233145
H9    H     H_    0.599400 0.487713 0.123939 0.174963
C55   C     C_2   0.346344 0.328129 0.671803 0.415942
H10   H     H_    0.335195 0.313593 0.779369 0.100120
O13   O     O_2   0.375299 0.259021 0.620080 -0.532493
O14   O     O_3   0.261374 0.659354 0.292553 -0.686880
H11   H     H_    0.286794 0.700627 0.234787 0.334227
O15   O     O_3   0.127555 0.847450 0.535275 -0.644872
H12   H     H_    0.108325 0.916806 0.501026 0.345035
C56   C     C_2   0.648534 0.701720 0.633976 0.343179
H13   H     H_    0.662558 0.743851 0.727985 0.063762
O16   O     O_2   0.613467 0.746261 0.578594 -0.527855
C57   C     C_2   0.874586 0.844655 0.386253 0.485213
H14   H     H_    0.840865 0.863494 0.438291 0.132138
O17   O     O_2   0.893402 0.925563 0.314215 -0.509332
C58   C     C_2   0.752565 0.671663 0.665285 0.387418
H15   H     H_    0.741639 0.765145 0.682217 0.079080
O18   O     O_2   0.788964 0.636909 0.723001 -0.513908
O19   O     O_3   0.025341 0.833579 0.561322 -0.741505
H16   H     H_    0.045367 0.879210 0.629858 0.358415
C59   C     C_2   0.469962 0.128783 0.239405 0.481609
H17   H     H_    0.432491 0.141576 0.212409 0.045114
O20   O     O_2   0.501879 0.165665 0.160557 -0.480131
C60   C     C_2   0.462187 0.866597 0.245738 0.384949
H18   H     H_    0.435769 0.792077 0.257898 0.065418
O21   O     O_2   0.477495 0.891830 0.129167 -0.545430
C61   C     C_2   0.243361 0.372875 0.690128 0.435623
H19   H     H_    0.254298 0.285435 0.732348 0.080867
O22   O     O_2   0.205471 0.414571 0.731270 -0.515399
O23   O     O_3   0.554479 0.878116 0.803043 -0.707093
H20   H     H_    0.579076 0.908864 0.735161 0.343892
O24   O     O_3   0.467831 0.115546 0.834376 -0.663211
H21   H     H_    0.468044 0.083340 0.931244 0.376554
C62   C     C_2   0.554955 0.139065 0.804772 0.493689
H22   H     H_    0.588088 0.121514 0.748651 0.009602
O25   O     O_2   0.555362 0.216866 0.895751 -0.495887
O26   O     O_3   0.429766 0.365749 0.870212 -0.720076
H23   H     H_    0.441118 0.341029 0.778382 0.415703
O27   O     O_3   0.605765 0.680157 0.136472 -0.654344
H24   H     H_    0.589265 0.752688 0.097787 0.368743
O28   O     O_3   0.125540 0.213348 0.315086 -0.651230
H25   H     H_    0.105306 0.175875 0.241121 0.341639
O29   O     O_3   0.876607 0.193257 0.608735 -0.652093
H26   H     H_    0.897888 0.156093 0.679185 0.343374
O30   O     O_3   0.977881 0.195300 0.569935 -0.692293
H27   H     H_    0.959161 0.118591 0.551109 0.361496
O31   O     O_3   0.023545 0.202480 0.341265 -0.686183
H28   H     H_    0.041973 0.127353 0.359283 0.349581

loop_
_geom_bond_atom_site_label_1
_geom_bond_atom_site_label_2
_geom_bond_distance
_ccdc_geom_bond_type
C44   C60   1.491036 S    
O15   H12   0.991279 S    
O31   H28   0.990971 S    
C39   C57   1.486928 S    
C17   C29   1.398505 A    
C49   C54   1.493613 S    
C28   C29   1.388879 A    
C58   H15   1.083590 S    
C41   C48   1.493209 S    
C12   C15   1.413575 A    
C30   C31   1.418014 A    
C15   C37   1.414440 A    
Cu1   Cu2   2.696881 S    
C3    C45   1.449499 S    
C53   C54   1.519303 S    
C31   C32   1.419516 A    
Cu1   O7    1.945369 S    
N1    C11   1.442597 S    
C20   C24   1.412874 A    
C24   C25   1.418271 A    
C54   O27   1.408598 S    
C25   C26   1.412034 A    
C14   O28   1.381828 S    
O3    Cu1   1.947457 S    
C37   O15   1.382461 S    
O7    C4    1.303923 A    
C53   H8    1.106666 S    
C61   H19   1.083818 S    
C5    O9    1.349413 S    
C38   C39   1.399870 A    
Cu1   O5    1.975418 S    
C22   C23   1.416030 A    
O5    C3    1.300023 A    
O27   H24   0.993974 S    
C57   H14   1.083454 S    
C6    O11   1.349196 S    
C26   O12   1.348039 S    
C41   C46   1.348444 A    
C47   O23   1.408189 S    
C2    C16   1.475678 S    
O24   H21   0.990499 S    
C21   O30   1.380941 S    
C49   N3    1.363465 A    
C36   O31   1.381180 S    
C19   C38   1.404113 A    
C56   O16   1.220370 D    
C28   H2    1.082939 S    
C48   C62   1.511103 S    
N2    C32   1.443392 S    
C46   C47   1.499495 S    
C22   O29   1.381886 S    
C9    C10   1.416990 A    
C17   C30   1.417117 A    
C19   C35   1.420934 A    
C8    H3    1.084204 S    
C57   O17   1.221513 D    
C21   C22   1.419802 A    
C33   C36   1.416278 A    
C37   C40   1.417998 A    
C53   H7    1.111489 S    
C26   N2    1.367792 A    
C51   N4    1.391383 A    
C47   C48   1.554248 S    
C12   C34   1.410980 A    
C18   C33   1.424440 A    
C52   C53   1.492858 S    
C50   C51   1.412873 A    
N2    C27   1.366665 A    
Cu1   N4    2.026119 S    
C8    C16   1.399716 A    
C13   C14   1.414888 A    
O14   H11   0.991748 S    
C38   H4    1.081215 S    
O1    C1    1.306112 A    
C23   C24   1.414352 A    
C7    C11   1.404005 A    
N4    C52   1.366162 A    
C43   C59   1.478565 S    
C33   C34   1.414596 A    
Cu2   O8    1.947452 S    
C51   O26   1.368339 S    
C42   C43   1.432459 A    
C59   O20   1.220311 D    
N1    C6    1.366637 A    
C60   O21   1.220823 D    
C30   C56   1.485026 S    
C12   C13   1.413245 A    
O3    C2    1.305940 A    
C34   C35   1.413687 A    
C9    C16   1.415231 A    
O8    C4    1.297157 A    
O19   H16   0.990640 S    
C55   O13   1.221279 D    
C49   C52   1.411378 A    
C27   O10   1.349022 S    
C4    C17   1.470650 S    
O28   H25   0.990223 S    
C62   H22   1.085149 S    
C1    C42   1.454166 S    
C5    N1    1.367786 A    
Cu2   N3    2.026386 S    
C18   C21   1.417299 A    
O1    Cu1   1.978294 S    
C19   C20   1.410583 A    
O2    Cu2   1.975420 S    
C6    C15   1.412181 A    
C50   H6    1.082035 S    
C7    O14   1.381435 S    
O6    C3    1.293183 A    
O4    Cu2   1.945372 S    
C58   O18   1.221118 D    
C29   H1    1.083807 S    
C35   C40   1.417506 A    
C44   C45   1.427265 A    
C7    C8    1.399795 A    
C14   C36   1.418796 A    
O2    C1    1.288916 A    
O29   H26   0.990265 S    
N3    C50   1.355390 A    
C31   C58   1.489260 S    
C10   C61   1.491114 S    
O23   H20   0.991516 S    
C18   C20   1.411413 A    
C54   H9    1.111620 S    
O4    C2    1.298186 A    
C61   O22   1.221025 D    
C59   H17   1.084776 S    
O26   H23   0.975693 S    
C23   C27   1.412574 A    
C45   C46   1.384750 A    
C41   C42   1.383308 A    
C5    C13   1.410573 A    
C43   C44   1.421885 A    
C9    C55   1.481233 S    
Cu2   O6    1.978293 S    
C55   H10   1.084661 S    
C60   H18   1.085528 S    
C40   O19   1.383213 S    
C28   C32   1.399712 A    
C10   C11   1.419486 A    
C47   H5    1.111704 S    
C56   H13   1.083557 S    
C48   O24   1.402832 S    
C25   C39   1.423991 A    
O30   H27   0.991096 S    
C62   O25   1.220581 D    
