data_mof_unit_26039.cif
_audit_creation_date              2012-10-26T20:17:32-0400
_audit_creation_method            fapswitch 2.2
_symmetry_space_group_name_H-M    P1
_symmetry_Int_Tables_number       1
_space_group_crystal_system       triclinic
_cell_length_a                    27.759882
_cell_length_b                    8.741159
_cell_length_c                    7.482465
_cell_angle_alpha                 103.13442
_cell_angle_beta                  94.610355
_cell_angle_gamma                 93.500355
_cell_volume                      1756.53356297

loop_
_atom_site_label
_atom_site_type_symbol
_atom_type_description
_atom_site_fract_x
_atom_site_fract_y
_atom_site_fract_z
_atom_type_partial_charge
C1    C     C_R   0.497733 0.200364 0.453979 0.541056
C2    C     C_R   0.868115 0.357482 0.430778 0.012861
C3    C     C_R   0.354653 0.499340 0.506497 0.015685
C4    C     C_R   0.645346 0.500630 0.493507 0.015677
C5    C     C_R   0.970469 0.353318 0.439712 0.010476
C6    C     C_R   0.029531 0.646560 0.560299 0.010477
C7    C     C_R   0.978026 0.645182 0.535714 0.024600
C8    C     C_R   0.021975 0.354696 0.464296 0.024600
C9    C     C_R   0.948989 0.499175 0.486707 0.026512
C10   C     C_R   0.051011 0.500703 0.513303 0.026514
C11   C     C_R   0.938954 0.213980 0.361957 -0.036079
C12   C     C_R   0.502267 0.799636 0.546020 0.541058
C13   C     C_R   0.061046 0.785897 0.638056 -0.036080
C14   C     C_R   0.889020 0.216302 0.370026 -0.111909
C15   C     C_R   0.110979 0.783579 0.629981 -0.111910
C16   C     C_R   0.407540 0.499664 0.501747 0.555116
C17   C     C_R   0.592459 0.500332 0.498253 0.555110
C18   C     C_R   0.045748 0.214946 0.455101 -0.105015
C19   C     C_R   0.954253 0.784933 0.544908 -0.105014
C20   C     C_2   0.490855 0.033669 0.432778 -0.054835
C21   C     C_2   0.509145 0.966331 0.567222 -0.054829
C22   C     C_R   0.174894 0.358526 0.483468 0.403134
C23   C     C_R   0.102344 0.499997 0.521239 -0.028896
C24   C     C_R   0.825107 0.641359 0.516545 0.403123
C25   C     C_R   0.182321 0.639392 0.566169 0.406030
C26   C     C_R   0.817678 0.360493 0.433831 0.406027
C27   C     C_R   0.284240 0.523357 0.680495 -0.047946
C28   C     C_R   0.715754 0.476252 0.319489 -0.047968
C29   C     C_R   0.334322 0.523590 0.675952 -0.120860
C30   C     C_R   0.665672 0.476062 0.324032 -0.120907
C31   C     C_R   0.323962 0.474506 0.341885 -0.128925
C32   C     C_R   0.676041 0.525744 0.658144 -0.128948
C33   C     C_R   0.273868 0.473775 0.346901 -0.050233
C34   C     C_R   0.897656 0.499884 0.478768 -0.028896
C35   C     C_R   0.726135 0.526442 0.653128 -0.050235
C36   C     C_R   0.253968 0.498424 0.516094 0.243394
C37   C     C_R   0.746030 0.501471 0.483913 0.243349
C38   C     C_1   0.451625 0.348188 0.928007 0.446299
C39   C     C_1   0.548377 0.651806 0.071992 0.446314
C40   C     C_1   0.954289 0.072566 0.246557 0.182505
C41   C     C_1   0.045710 0.927306 0.753467 0.182509
C42   C     C_1   0.459199 0.948804 0.271415 0.243146
C43   C     C_1   0.540801 0.051196 0.728585 0.243149
C44   C     C_R   0.124352 0.356553 0.484386 0.026979
C45   C     C_R   0.875649 0.643329 0.515625 0.026983
C46   C     C_R   0.095750 0.215080 0.457757 -0.096009
C47   C     C_R   0.904251 0.784801 0.542253 -0.096007
C48   C     C_R   0.131884 0.642400 0.569225 0.012855
Cu1   Cu    Cu3+1 0.505380 0.517380 0.684380 1.027359
Cu2   Cu    Cu3+1 0.494620 0.482620 0.315620 1.027356
H1    H     H_    0.338575 0.455387 0.209374 0.139379
H2    H     H_    0.268890 0.542310 0.811577 0.128560
H3    H     H_    0.866054 0.107730 0.317280 0.176638
H4    H     H_    0.133945 0.892151 0.682727 0.176639
H5    H     H_    0.026734 0.103788 0.453914 0.130783
H6    H     H_    0.973267 0.896090 0.546095 0.130783
H7    H     H_    0.661431 0.545117 0.790673 0.139420
H8    H     H_    0.250472 0.454652 0.219532 0.131699
H9    H     H_    0.749533 0.545790 0.780520 0.131766
H10   H     H_    0.111948 0.103742 0.443312 0.167825
H11   H     H_    0.888054 0.896140 0.556698 0.167826
H12   H     H_    0.642956 0.456320 0.194969 0.145826
H13   H     H_    0.357035 0.543104 0.804994 0.145789
H14   H     H_    0.731100 0.457049 0.188390 0.128652
N1    N     N_R   0.202570 0.498787 0.520942 -0.402371
N2    N     N_1   0.565959 0.118165 0.857006 -0.262989
N3    N     N_R   0.797429 0.501100 0.479068 -0.402361
N4    N     N_2   0.486510 0.456430 0.038510 -0.197041
N5    N     N_2   0.513490 0.543570 0.961490 -0.197042
N6    N     N_1   0.422298 0.257036 0.837896 -0.314862
N7    N     N_1   0.577705 0.742953 0.162103 -0.314835
N8    N     N_1   0.966129 0.959038 0.153476 -0.269882
N9    N     N_1   0.033870 0.040829 0.846557 -0.269877
N10   N     N_1   0.434041 0.881835 0.142995 -0.262944
O1    O     O_R   0.503500 0.286120 0.619780 -0.507571
O2    O     O_2   0.803744 0.778193 0.554088 -0.465536
O3    O     O_2   0.789080 0.224237 0.392347 -0.463089
O4    O     O_2   0.210919 0.775648 0.607648 -0.463057
O5    O     O_R   0.496500 0.713880 0.380220 -0.507576
O6    O     O_R   0.494410 0.256780 0.308360 -0.496974
O7    O     O_R   0.505590 0.743220 0.691640 -0.496971
O8    O     O_R   0.434810 0.514700 0.655690 -0.509345
O9    O     O_R   0.565190 0.485300 0.344310 -0.509347
O10   O     O_R   0.425720 0.485350 0.344280 -0.515577
O11   O     O_R   0.574280 0.514650 0.655720 -0.515580
O12   O     O_2   0.196259 0.221694 0.445923 -0.465506

loop_
_geom_bond_atom_site_label_1
_geom_bond_atom_site_label_2
_ccdc_geom_bond_type
C19   H6    S    
C29   H13   S    
C33   H8    S    
C27   C29   A    
Cu2   O5    S    
C13   C41   S    
Cu2   O10   S    
C17   O11   A    
C26   N3    A    
C32   H7    S    
C35   C37   A    
C5    C11   A    
C30   H12   S    
C11   C14   A    
C19   C47   A    
C12   O5    A    
C16   O10   A    
C33   C36   A    
C35   H9    S    
Cu1   O7    S    
C3    C29   A    
C24   N3    A    
C21   C43   S    
C22   C44   A    
N4    N5    D    
Cu1   O1    S    
C2    C34   A    
Cu1   N5    S    
C15   C48   A    
C18   C46   A    
C44   C46   A    
Cu2   O9    S    
C45   C47   A    
C42   N10   T    
C26   O3    S    
C31   C33   A    
C25   O4    S    
C1    O1    A    
C32   C35   A    
Cu1   O11   S    
C25   N1    A    
C36   N1    S    
C24   O2    S    
C12   C21   S    
C8    C18   A    
C23   C44   A    
C17   O9    A    
Cu1   O8    S    
C15   H4    S    
C22   N1    A    
C5    C9    A    
C16   O8    A    
C39   N5    S    
C2    C26   A    
C34   C45   A    
C3    C31   A    
C25   C48   A    
C4    C32   A    
C18   H5    S    
C4    C17   S    
C28   H14   S    
C38   N6    T    
C38   N4    S    
C7    C19   A    
C13   C15   A    
C9    C34   A    
C10   C23   A    
C24   C45   A    
C27   H2    S    
C7    C9    A    
C1    C20   S    
C23   C48   A    
C40   N8    T    
C46   H10   S    
C31   H1    S    
Cu2   O6    S    
C47   H11   S    
C5    C8    A    
C20   C42   S    
C6    C7    A    
C27   C36   A    
C28   C30   A    
C6    C13   A    
C28   C37   A    
C43   N2    T    
C37   N3    S    
C12   O7    A    
C22   O12   S    
C11   C40   S    
C2    C14   A    
C6    C10   A    
C41   N9    T    
C14   H3    S    
C20   C21   D    
C8    C10   A    
Cu1   Cu2   S    
C1    O6    A    
C39   N7    T    
Cu2   N4    S    
C4    C30   A    
C3    C16   S    
