data_mof_unit_27980.cif
_audit_creation_date              2013-03-05T15:47:46-0500
_audit_creation_method            fapswitch 2.2
_symmetry_space_group_name_H-M    P1
_symmetry_Int_Tables_number       1
_space_group_crystal_system       triclinic
_cell_length_a                    21.644524
_cell_length_b                    7.207732
_cell_length_c                    18.596935
_cell_angle_alpha                 89.916465
_cell_angle_beta                  95.96136
_cell_angle_gamma                 89.898476
_cell_volume                      2885.57124665

loop_
_atom_site_label
_atom_site_type_symbol
_atom_site_description
_atom_site_fract_x
_atom_site_fract_y
_atom_site_fract_z
_atom_type_partial_charge
O1    O     O_R   0.449650 0.506500 0.414480 -0.575919
O2    O     O_R   0.550350 0.006500 0.585520 -0.576811
O3    O     O_R   0.432010 0.173150 0.560250 -0.581921
O4    O     O_R   0.567990 0.673150 0.439750 -0.581549
C1    C     C_R   0.416256 0.344718 0.581138 0.919297
C2    C     C_R   0.583742 0.844671 0.418844 0.919701
O5    O     O_R   0.442320 0.176650 0.413480 -0.585550
O6    O     O_R   0.557680 0.676650 0.586520 -0.584740
O7    O     O_R   0.560730 0.008380 0.437700 -0.595164
O8    O     O_R   0.439270 0.508380 0.562300 -0.595376
C3    C     C_R   0.428568 0.345282 0.387553 0.937941
C4    C     C_R   0.571463 0.844940 0.612424 0.937989
O9    O     O_3   0.538840 0.339860 0.508120 -0.279411
O10   O     O_3   0.461160 0.839860 0.491880 -0.279910
V1    V     V_3+5 0.492800 0.064220 0.498490 1.194905
V2    V     V_3+5 0.507200 0.564220 0.501510 1.196235
C5    C     C_R   0.872111 0.991999 0.689797 0.426455
C6    C     C_R   0.125137 0.422171 0.311490 0.428722
H1    H     H_    0.958413 0.030425 0.756105 0.219212
H2    H     H_    0.037494 0.435160 0.245671 0.211412
C7    C     C_R   0.886425 0.944225 0.819516 -0.335436
C8    C     C_R   0.113414 0.438029 0.180422 -0.334600
C9    C     C_R   0.585135 0.827248 0.745039 -0.257532
C10   C     C_R   0.414291 0.312679 0.255454 -0.251975
C11   C     C_R   0.620035 0.841030 0.812413 0.357897
C12   C     C_R   0.377970 0.296832 0.189047 0.357936
C13   C     C_R   0.684216 0.873595 0.815500 -0.186343
C14   C     C_R   0.313479 0.323644 0.186057 -0.183741
C15   C     C_R   0.715283 0.886114 0.752248 0.104151
C16   C     C_R   0.284248 0.373558 0.247938 0.107435
C17   C     C_R   0.677797 0.883634 0.684262 0.023724
C18   C     C_R   0.322093 0.380995 0.315608 0.023761
C19   C     C_R   0.781642 0.910922 0.754289 -0.152834
C20   C     C_R   0.218226 0.404517 0.245535 -0.156093
C21   C     C_R   0.807562 0.952841 0.688327 -0.301527
C22   C     C_R   0.190907 0.416168 0.312202 -0.302544
C23   C     C_R   0.768299 0.957989 0.622741 0.840230
C24   C     C_R   0.229933 0.427556 0.377780 0.846317
C25   C     C_R   0.705483 0.918088 0.620877 -0.361133
C26   C     C_R   0.293997 0.412729 0.378960 -0.367234
C27   C     C_R   0.823603 0.894894 0.818933 0.714399
C28   C     C_R   0.178184 0.427276 0.179803 0.712819
C29   C     C_R   0.909647 0.995495 0.755488 -0.340344
C30   C     C_R   0.087597 0.432484 0.245787 -0.341933
C31   C     C_R   0.612706 0.851971 0.681129 -0.173749
C32   C     C_R   0.387342 0.351602 0.318793 -0.174343
H3    H     H_    0.535568 0.802234 0.742075 0.181292
H4    H     H_    0.463978 0.289247 0.258502 0.180785
H5    H     H_    0.707942 0.898050 0.868156 0.238328
H6    H     H_    0.286927 0.293858 0.135395 0.236985
H7    H     H_    0.678047 0.920972 0.568751 0.142365
H8    H     H_    0.321541 0.422915 0.430857 0.143224
C33   C     C_R   0.633484 0.010657 0.321266 -0.066309
C34   C     C_R   0.366467 0.510379 0.678708 -0.070975
C35   C     C_R   0.632645 0.857670 0.368441 -0.180958
C36   C     C_R   0.367334 0.357794 0.631513 -0.182065
C37   C     C_R   0.679048 0.721355 0.367723 -0.143041
C38   C     C_R   0.320950 0.221900 0.632197 -0.138555
C39   C     C_R   0.726457 0.739339 0.321850 0.238113
C40   C     C_R   0.273548 0.239880 0.678084 0.238007
C41   C     C_R   0.726930 0.893559 0.274697 0.030601
C42   C     C_R   0.273057 0.393663 0.725276 0.030063
C43   C     C_R   0.679825 0.028768 0.273983 -0.130304
C44   C     C_R   0.320131 0.528467 0.726004 -0.129856
C45   C     C_R   0.773665 0.605943 0.322688 -0.203018
C46   C     C_R   0.226371 0.106895 0.677229 -0.198215
C47   C     C_R   0.821059 0.624743 0.277667 -0.042211
C48   C     C_R   0.178997 0.125655 0.722286 -0.043876
C49   C     C_R   0.821781 0.776004 0.229872 0.025924
C50   C     C_R   0.178258 0.276468 0.770122 0.028216
C51   C     C_R   0.774404 0.911753 0.228173 -0.050367
C52   C     C_R   0.225599 0.411816 0.771830 -0.051254
C53   C     C_R   0.774064 0.063646 0.179543 -0.094504
C54   C     C_R   0.225920 0.563249 0.820499 -0.099082
C55   C     C_R   0.725953 0.198181 0.178625 0.168540
C56   C     C_R   0.273995 0.697389 0.821424 0.169294
C57   C     C_R   0.679688 0.179817 0.226110 0.650094
C58   C     C_R   0.320245 0.679081 0.773911 0.647004
C59   C     C_R   0.868527 0.791476 0.183074 0.754707
C60   C     C_R   0.131529 0.291880 0.816947 0.752064
C61   C     C_R   0.867966 0.939089 0.133124 -0.372869
C62   C     C_R   0.132061 0.439029 0.866922 -0.377671
C63   C     C_R   0.820663 0.073231 0.131701 -0.116971
C64   C     C_R   0.179336 0.572766 0.868365 -0.103615
H9    H     H_    0.597363 0.115098 0.320879 0.179889
H10   H     H_    0.402568 0.614494 0.679109 0.180368
H11   H     H_    0.679085 0.603430 0.403987 0.139029
H12   H     H_    0.320928 0.104303 0.595908 0.138292
H13   H     H_    0.774019 0.486782 0.358335 0.151814
H14   H     H_    0.226030 0.988079 0.641546 0.149980
H15   H     H_    0.856704 0.518631 0.279629 0.188341
H16   H     H_    0.143378 0.019861 0.720315 0.186966
H17   H     H_    0.819864 0.181601 0.091441 0.209477
H18   H     H_    0.180120 0.680758 0.908651 0.213453
O11   O     O_R   0.060820 0.290050 0.937800 -0.537803
O12   O     O_R   0.939180 0.790050 0.062200 -0.532562
O13   O     O_R   0.057690 0.616620 0.086540 -0.574224
O14   O     O_R   0.942310 0.116620 0.913460 -0.589440
C65   C     C_R   0.071560 0.448336 0.112477 1.080542
C66   C     C_R   0.928443 0.949016 0.887469 1.074754
O15   O     O_R   0.068010 0.619890 0.939770 -0.598054
O16   O     O_R   0.931990 0.119890 0.060230 -0.601173
O17   O     O_R   0.949640 0.787940 0.914460 -0.576764
O18   O     O_R   0.050360 0.287940 0.085540 -0.600554
C67   C     C_R   0.083701 0.451033 0.918234 1.022274
C68   C     C_R   0.916306 0.951067 0.081787 1.015462
O19   O     O_3   0.961210 0.453080 0.991940 -0.276234
O20   O     O_3   0.038790 0.953080 0.008060 -0.283061
V3    V     V_3+5 0.007200 0.728820 0.001500 1.291775
V4    V     V_3+5 0.992800 0.228820 0.998500 1.275300
F1    F     F_    0.914774 0.662734 0.186534 -0.701628
F2    F     F_    0.085329 0.163524 0.813494 -0.705028
N1    N     N_R   0.722772 0.353170 0.129573 0.264198
O21   O     O_R   0.669874 0.400781 0.094691 -0.227223
O22   O     O_R   0.770536 0.460933 0.126427 -0.403276
N2    N     N_R   0.277151 0.851913 0.870507 0.265202
O23   O     O_R   0.330048 0.898826 0.905358 -0.220179
O24   O     O_R   0.229356 0.960019 0.873698 -0.405971
F3    F     F_    0.634804 0.312029 0.226141 -0.643819
F4    F     F_    0.365095 0.810925 0.773885 -0.643641
F5    F     F_    0.789551 0.005704 0.559146 -0.652564
F6    F     F_    0.207033 0.462761 0.441616 -0.651556
N3    N     N_R   0.901199 0.024629 0.625126 0.280779
O25   O     O_R   0.905198 0.889762 0.579383 -0.273391
O26   O     O_R   0.935725 0.170849 0.620419 -0.316900
N4    N     N_R   0.095137 0.407102 0.376545 0.281494
O27   O     O_R   0.105785 0.262866 0.418202 -0.288609
O28   O     O_R   0.048197 0.514174 0.385992 -0.311000
F7    F     F_    0.806111 0.822958 0.881078 -0.712924
F8    F     F_    0.200607 0.454192 0.115151 -0.716757
N5    N     N_R   0.590121 0.824772 0.877896 0.261663
O29   O     O_R   0.622337 0.833083 0.940935 -0.296606
O30   O     O_R   0.530363 0.799959 0.875126 -0.278633
N6    N     N_R   0.406398 0.248837 0.124791 0.261524
O31   O     O_R   0.373253 0.237450 0.062416 -0.290150
O32   O     O_R   0.465895 0.217986 0.127885 -0.285567

loop_
_geom_bond_atom_site_label_1
_geom_bond_atom_site_label_2
_geom_bond_distance
_ccdc_geom_bond_type
C46   C48   1.396479 A    
N4    O27   1.301463 A    
C9    C31   1.395552 A    
C13   C15   1.417107 A    
C1    C36   1.487842 S    
C25   H7    1.083111 S    
O1    C3    1.328680 A    
C2    C35   1.487927 S    
O2    C4    1.328195 A    
C2    O7    1.341186 A    
N3    O25   1.301356 A    
C46   H14   1.083732 S    
N5    O30   1.301784 A    
O20   V3    1.755656 S    
C45   H13   1.083736 S    
C54   C56   1.420462 A    
O14   V4    1.999311 S    
C21   C23   1.412698 A    
C56   C58   1.408516 A    
C37   C39   1.406975 A    
O15   V3    1.994877 S    
C63   H17   1.080065 S    
C15   C19   1.444284 A    
N2    O23   1.301219 A    
C40   C42   1.415517 A    
C62   C67   1.490341 S    
C49   C51   1.414052 A    
C42   C44   1.408222 A    
O11   C67   1.327500 A    
N3    O26   1.301146 A    
C56   N2    1.438273 S    
C7    C29   1.389517 A    
C14   H6    1.073591 S    
C5    N3    1.433563 S    
C8    C30   1.390155 A    
C48   H16   1.083260 S    
C36   C38   1.404848 A    
C45   C47   1.396510 A    
C20   C28   1.432198 A    
C55   N1    1.438249 S    
C16   C18   1.429626 A    
C41   C51   1.416490 A    
O5    V1    1.996036 S    
C65   O18   1.324343 A    
C40   C46   1.400655 A    
O6    V2    1.999477 S    
C24   C26   1.388445 A    
C53   C55   1.420444 A    
C44   C58   1.405205 A    
C12   C14   1.404222 A    
H2    C30   1.084376 S    
H1    C29   1.084466 S    
O5    C3    1.328761 A    
C33   C35   1.409430 A    
O15   C67   1.336124 A    
C34   C36   1.409398 A    
C39   C41   1.415518 A    
C9    H3    1.083964 S    
C16   C20   1.442028 A    
C50   C60   1.405855 A    
C10   H4    1.083981 S    
C60   C62   1.410493 A    
O13   C65   1.327010 A    
C54   C64   1.414263 A    
C34   H10   1.083824 S    
C7    C66   1.478784 S    
N6    O32   1.301801 A    
C57   F3    1.359697 S    
C26   H8    1.083101 S    
C66   O17   1.326245 A    
C37   H11   1.084183 S    
C47   C49   1.406786 A    
O4    V2    1.995441 S    
C58   F4    1.359702 S    
C5    C29   1.395395 A    
C12   N6    1.442004 S    
C6    C30   1.397148 A    
O13   V3    1.995876 S    
O6    C4    1.328738 A    
C60   F2    1.360189 S    
C47   H15   1.083284 S    
C42   C52   1.416461 A    
C28   F8    1.356321 S    
O1    V2    1.982234 S    
C64   H18   1.080080 S    
O2    V1    1.980316 S    
C55   C57   1.408502 A    
C24   F6    1.357242 S    
C23   F5    1.356812 S    
C52   C54   1.418522 A    
C62   C64   1.405262 A    
C35   C37   1.404857 A    
O19   V4    1.753096 S    
C7    C27   1.405039 A    
C49   C59   1.405902 A    
O4    C2    1.350337 A    
N5    O29   1.301822 A    
C11   N5    1.442056 S    
O3    V1    1.994924 S    
O18   V4    1.984660 S    
C51   C53   1.418530 A    
N1    O21   1.301207 A    
C43   C57   1.405198 A    
O12   C68   1.327169 A    
C61   C68   1.490378 S    
N4    O28   1.301299 A    
C8    C65   1.478004 S    
C18   C32   1.422835 A    
C41   C43   1.408224 A    
C10   C12   1.398325 A    
C4    C31   1.481685 S    
O3    C1    1.350484 A    
O11   V4    1.995658 S    
C38   H12   1.084198 S    
C61   C63   1.405207 A    
C33   H9    1.083841 S    
C59   C61   1.410593 A    
N6    O31   1.301768 A    
C11   C13   1.404573 A    
O12   V3    1.995232 S    
O14   C66   1.325120 A    
C59   F1    1.360287 S    
O17   V3    1.982697 S    
C19   C27   1.433840 A    
C22   C24   1.412128 A    
O7    V1    1.986543 S    
C10   C32   1.396243 A    
C1    O8    1.341468 A    
C15   C17   1.429758 A    
O8    V2    1.986932 S    
C39   C45   1.400688 A    
C27   F7    1.355610 S    
C33   C43   1.406983 A    
C6    C22   1.422837 A    
C8    C28   1.405172 A    
C34   C44   1.406977 A    
C14   C16   1.416215 A    
C19   C21   1.432930 A    
N2    O24   1.300332 A    
O16   C68   1.336014 A    
C20   C22   1.430461 A    
C18   C26   1.399751 A    
O16   V4    1.995397 S    
C9    C11   1.398014 A    
C23   C25   1.387125 A    
C17   C31   1.422846 A    
O9    V2    1.754199 S    
C17   C25   1.398806 A    
C48   C50   1.406761 A    
O10   V1    1.756765 S    
C3    C32   1.481920 S    
C50   C52   1.414047 A    
C5    C21   1.423339 A    
C38   C40   1.406912 A    
C53   C63   1.414265 A    
C6    N4    1.435319 S    
C13   H5    1.072406 S    
N1    O22   1.300326 A    
