data_mof_unit_64270.cif
_audit_creation_date              2012-12-10T16:59:51-0500
_audit_creation_method            fapswitch 2.2
_symmetry_space_group_name_H-M    P1
_symmetry_Int_Tables_number       1
_space_group_crystal_system       triclinic
_cell_length_a                    21.732774
_cell_length_b                    21.73195
_cell_length_c                    47.183421
_cell_angle_alpha                 90.340179
_cell_angle_beta                  90.916204
_cell_angle_gamma                 90.011544
_cell_volume                      22281.277374

loop_
_atom_site_label
_atom_site_type_symbol
_atom_type_description
_atom_site_fract_x
_atom_site_fract_y
_atom_site_fract_z
_atom_type_partial_charge
C1    C     C_R   0.997663 0.881040 0.999803 0.927710
C2    C     C_R   0.118958 0.997645 0.000297 0.926876
C3    C     C_R   0.002339 0.118960 0.000197 0.927138
C4    C     C_R   0.881042 0.002353 0.999702 0.927111
C5    C     C_R   0.497663 0.381040 0.499803 0.927711
C6    C     C_R   0.618958 0.497645 0.500297 0.926877
C7    C     C_R   0.502339 0.618960 0.500197 0.927139
C8    C     C_R   0.381042 0.502353 0.499702 0.927112
C9    C     C_R   0.961661 0.539578 0.219807 -0.135263
C10   C     C_R   0.457225 0.960739 0.219519 -0.135137
C11   C     C_R   0.044913 0.461659 0.220274 -0.134972
C12   C     C_R   0.535109 0.044067 0.220476 -0.135074
C13   C     C_R   0.461652 0.039567 0.719807 -0.135262
C14   C     C_R   0.957238 0.460726 0.719519 -0.135137
C15   C     C_R   0.544924 0.961672 0.720274 -0.134971
C16   C     C_R   0.035094 0.544080 0.720476 -0.135074
C17   C     C_R   0.003055 0.500430 0.234931 -0.108355
C18   C     C_R   0.496006 0.002430 0.234889 -0.108351
C19   C     C_R   0.503055 0.000432 0.734931 -0.108360
C20   C     C_R   0.996005 0.502430 0.734889 -0.108351
C21   C     C_R   0.917659 0.575042 0.235108 0.455080
C22   C     C_R   0.421312 0.917067 0.234663 0.454374
C23   C     C_R   0.088557 0.425976 0.236128 0.454780
C24   C     C_R   0.570311 0.088105 0.236487 0.455476
C25   C     C_R   0.417639 0.075019 0.735108 0.455084
C26   C     C_R   0.921339 0.417042 0.734663 0.454370
C27   C     C_R   0.588579 0.926003 0.736128 0.454780
C28   C     C_R   0.070282 0.588130 0.736487 0.455473
C29   C     C_R   0.418655 0.073525 0.764693 -0.209445
C30   C     C_R   0.922237 0.418519 0.764263 -0.209297
C31   C     C_R   0.586545 0.926621 0.765697 -0.209359
C32   C     C_R   0.069070 0.586554 0.766052 -0.209505
C33   C     C_R   0.918674 0.573548 0.264693 -0.209445
C34   C     C_R   0.422210 0.918544 0.264263 -0.209297
C35   C     C_R   0.086523 0.426595 0.265697 -0.209360
C36   C     C_R   0.569099 0.086529 0.266052 -0.209505
C37   C     C_R   0.460465 0.036793 0.779648 -0.079083
C38   C     C_R   0.958757 0.460500 0.779419 -0.079058
C39   C     C_R   0.544122 0.962811 0.780151 -0.079103
C40   C     C_R   0.032703 0.544230 0.780313 -0.079132
C41   C     C_R   0.960475 0.536803 0.279648 -0.079081
C42   C     C_R   0.458744 0.960512 0.279419 -0.079059
C43   C     C_R   0.044112 0.462799 0.280151 -0.079103
C44   C     C_R   0.532718 0.044217 0.280313 -0.079131
C45   C     C_R   0.502557 0.000020 0.764867 -0.006679
C46   C     C_R   0.995786 0.502414 0.764831 -0.006679
C47   C     C_R   0.002557 0.500019 0.264867 -0.006678
C48   C     C_R   0.495787 0.002414 0.264831 -0.006678
C49   C     C_R   0.460372 0.035336 0.809360 0.544028
C50   C     C_R   0.959907 0.460631 0.809156 0.544381
C51   C     C_R   0.543168 0.963428 0.809874 0.544638
C52   C     C_R   0.031785 0.543495 0.810025 0.544283
C53   C     C_R   0.960381 0.535346 0.309360 0.544026
C54   C     C_R   0.459895 0.960642 0.309156 0.544381
C55   C     C_R   0.043158 0.463416 0.309874 0.544638
C56   C     C_R   0.531799 0.043483 0.310025 0.544283
C57   C     C_R   0.487787 0.945104 0.868787 -0.085898
C58   C     C_R   0.051363 0.487441 0.868984 -0.087108
C59   C     C_R   0.514456 0.053485 0.869246 -0.086871
C60   C     C_R   0.942979 0.514011 0.869009 -0.085712
C61   C     C_R   0.987776 0.445106 0.368787 -0.085895
C62   C     C_R   0.551360 0.987426 0.368984 -0.087104
C63   C     C_R   0.014467 0.553482 0.369246 -0.086869
C64   C     C_R   0.442982 0.014024 0.369010 -0.085709
C65   C     C_R   0.487651 0.945136 0.898292 -0.208012
C66   C     C_R   0.052358 0.487283 0.898479 -0.207103
C67   C     C_R   0.513694 0.053777 0.898726 -0.202703
C68   C     C_R   0.943714 0.513230 0.898511 -0.203703
C69   C     C_R   0.987640 0.445138 0.398292 -0.208012
C70   C     C_R   0.552355 0.987269 0.398479 -0.207104
C71   C     C_R   0.013704 0.553774 0.398726 -0.202704
C72   C     C_R   0.443718 0.013243 0.398511 -0.203705
C73   C     C_R   0.500419 0.999555 0.913462 -0.048044
C74   C     C_R   0.998499 0.500100 0.913452 -0.048018
C75   C     C_R   0.000419 0.499555 0.413462 -0.048041
C76   C     C_R   0.498499 0.000099 0.413452 -0.048016
C77   C     C_2   0.717283 0.043020 0.016277 -0.143856
C78   C     C_2   0.957856 0.716872 0.016493 -0.143713
C79   C     C_2   0.282718 0.956998 0.983712 -0.144289
C80   C     C_2   0.042127 0.283129 0.983497 -0.144718
C81   C     C_2   0.217283 0.543019 0.516277 -0.143857
C82   C     C_2   0.457856 0.216872 0.516493 -0.143714
C83   C     C_2   0.782718 0.456998 0.483712 -0.144290
C84   C     C_2   0.542127 0.783129 0.483497 -0.144719
C85   C     C_R   0.501310 0.999235 0.854169 0.288679
C86   C     C_R   0.996763 0.501043 0.854147 0.288706
C87   C     C_R   0.001310 0.499235 0.354169 0.288672
C88   C     C_R   0.496763 0.001042 0.354147 0.288700
C89   C     C_R   0.056867 0.513161 0.131135 -0.075378
C90   C     C_R   0.485312 0.055532 0.130799 -0.076755
C91   C     C_R   0.948336 0.487067 0.130875 -0.078572
C92   C     C_R   0.511391 0.947017 0.131165 -0.077129
C93   C     C_R   0.556865 0.013169 0.631135 -0.075376
C94   C     C_R   0.985299 0.555529 0.630799 -0.076754
C95   C     C_R   0.448338 0.987059 0.630875 -0.078569
C96   C     C_R   0.011403 0.447020 0.631165 -0.077127
C97   C     C_R   0.056227 0.512687 0.101626 -0.199447
C98   C     C_R   0.486416 0.055237 0.101319 -0.202300
C99   C     C_R   0.947447 0.487231 0.101387 -0.201652
C100  C     C_R   0.511855 0.946473 0.101670 -0.198726
C101  C     C_R   0.556225 0.012695 0.601626 -0.199450
C102  C     C_R   0.986404 0.555234 0.601318 -0.202301
C103  C     C_R   0.447449 0.987223 0.601387 -0.201654
C104  C     C_R   0.011867 0.446476 0.601670 -0.198728
C105  C     C_R   0.001425 0.499941 0.086550 -0.052558
C106  C     C_R   0.499501 0.000637 0.086542 -0.052528
C107  C     C_R   0.501425 0.999941 0.586550 -0.052557
C108  C     C_R   0.999501 0.500637 0.586542 -0.052526
C109  C     C_R   0.002955 0.500262 0.145864 0.270533
C110  C     C_R   0.497929 0.001483 0.145836 0.270506
C111  C     C_R   0.502955 0.000262 0.645864 0.270524
C112  C     C_R   0.997929 0.501483 0.645836 0.270498
C113  C     C_2   0.685052 0.997665 0.003858 -0.330397
C114  C     C_2   0.002600 0.684941 0.004042 -0.330546
C115  C     C_2   0.314948 0.002336 0.996144 -0.327255
C116  C     C_2   0.997399 0.315059 0.995961 -0.327463
C117  C     C_2   0.185052 0.497665 0.503858 -0.330399
C118  C     C_2   0.502600 0.184941 0.504042 -0.330547
C119  C     C_2   0.814948 0.502336 0.496145 -0.327255
C120  C     C_2   0.497399 0.815059 0.495961 -0.327463
C121  C     C_2   0.784193 0.037660 0.018785 -0.144761
C122  C     C_2   0.963318 0.783756 0.019023 -0.141310
C123  C     C_2   0.215808 0.962361 0.981205 -0.144713
C124  C     C_2   0.036662 0.216245 0.980968 -0.141588
C125  C     C_2   0.284193 0.537660 0.518785 -0.144762
C126  C     C_2   0.463318 0.283756 0.519023 -0.141311
C127  C     C_2   0.715808 0.462361 0.481205 -0.144713
C128  C     C_2   0.536662 0.716245 0.480968 -0.141589
C129  C     C_2   0.815302 0.009236 0.998302 -0.327450
C130  C     C_2   0.990927 0.815287 0.998575 -0.329303
C131  C     C_2   0.184698 0.990759 0.001696 -0.325810
C132  C     C_2   0.009078 0.184713 0.001423 -0.327832
C133  C     C_2   0.315302 0.509236 0.498302 -0.327451
C134  C     C_2   0.490927 0.315287 0.498575 -0.329304
C135  C     C_2   0.684698 0.490759 0.501696 -0.325811
C136  C     C_2   0.509078 0.684713 0.501423 -0.327832
C137  C     C_R   0.500025 0.999840 0.944514 0.877775
C138  C     C_R   0.999543 0.499968 0.944512 0.877571
C139  C     C_R   0.000025 0.499840 0.444514 0.877772
C140  C     C_R   0.499543 0.999968 0.444512 0.877568
C141  C     C_R   0.619167 0.999823 0.001003 0.940364
C142  C     C_R   0.000240 0.619140 0.001045 0.940453
C143  C     C_R   0.380833 0.000178 0.998998 0.940381
C144  C     C_R   0.999760 0.380860 0.998955 0.940110
C145  C     C_R   0.119167 0.499823 0.501003 0.940361
C146  C     C_R   0.500240 0.119140 0.501045 0.940450
C147  C     C_R   0.880834 0.500178 0.498998 0.940379
C148  C     C_R   0.499760 0.880860 0.498955 0.940107
C149  C     C_R   0.499985 0.000178 0.055489 0.879397
C150  C     C_R   0.000450 0.499985 0.055490 0.879214
C151  C     C_R   0.999985 0.500178 0.555489 0.879393
C152  C     C_R   0.500450 0.999985 0.555490 0.879212
C153  C     C_R   0.040217 0.459858 0.190436 0.566281
C154  C     C_R   0.537690 0.038815 0.190725 0.566057
C155  C     C_R   0.966915 0.541690 0.190086 0.566120
C156  C     C_R   0.455893 0.965426 0.189715 0.566277
C157  C     C_R   0.540226 0.959869 0.690436 0.566281
C158  C     C_R   0.037678 0.538828 0.690725 0.566054
C159  C     C_R   0.466905 0.041682 0.690086 0.566121
C160  C     C_R   0.955904 0.465413 0.689715 0.566276
H1    H     H_    0.694512 0.082599 0.025587 0.173833
H2    H     H_    0.918652 0.693872 0.025737 0.174284
H3    H     H_    0.305490 0.917434 0.974389 0.170831
H4    H     H_    0.081315 0.306132 0.974240 0.170976
H5    H     H_    0.194513 0.582599 0.525587 0.173834
H6    H     H_    0.418652 0.193872 0.525737 0.174284
H7    H     H_    0.805490 0.417434 0.474389 0.170831
H8    H     H_    0.581315 0.806132 0.474240 0.170976
H9    H     H_    0.098366 0.522872 0.090639 0.171285
H10   H     H_    0.476453 0.097515 0.090110 0.170777
H11   H     H_    0.904701 0.476966 0.090227 0.170646
H12   H     H_    0.522327 0.903876 0.090739 0.171129
H13   H     H_    0.598363 0.022886 0.590639 0.171285
H14   H     H_    0.976430 0.597510 0.590110 0.170776
H15   H     H_    0.404705 0.976952 0.590227 0.170645
H16   H     H_    0.022349 0.403882 0.590739 0.171126
H17   H     H_    0.707188 0.955004 0.997524 0.162670
H18   H     H_    0.045025 0.707206 0.997783 0.162606
H19   H     H_    0.292812 0.044989 0.002490 0.161768
H20   H     H_    0.954983 0.292793 0.002231 0.161571
H21   H     H_    0.207188 0.455004 0.497524 0.162671
H22   H     H_    0.545025 0.207206 0.497783 0.162606
H23   H     H_    0.792812 0.544988 0.502490 0.161768
H24   H     H_    0.454983 0.792793 0.502231 0.161571
H25   H     H_    0.807883 0.058670 0.036838 0.174726
H26   H     H_    0.942910 0.807081 0.037001 0.176271
H27   H     H_    0.192118 0.941374 0.963146 0.173869
H28   H     H_    0.057047 0.192920 0.962983 0.175142
H29   H     H_    0.307883 0.558670 0.536838 0.174725
H30   H     H_    0.442910 0.307081 0.537001 0.176270
H31   H     H_    0.692118 0.441374 0.463146 0.173868
H32   H     H_    0.557047 0.692920 0.462983 0.175141
H33   H     H_    0.792430 0.994635 0.978737 0.164850
H34   H     H_    0.004872 0.792755 0.979076 0.163515
H35   H     H_    0.207569 0.005334 0.021264 0.165029
H36   H     H_    0.995158 0.207245 0.020925 0.163486
H37   H     H_    0.292430 0.494635 0.478737 0.164849
H38   H     H_    0.504872 0.292754 0.479076 0.163514
H39   H     H_    0.707569 0.505334 0.521264 0.165028
H40   H     H_    0.495158 0.707245 0.520926 0.163485
H41   H     H_    0.385873 0.101010 0.776259 0.237394
H42   H     H_    0.894500 0.385924 0.775695 0.237536
H43   H     H_    0.619006 0.898885 0.777658 0.237199
H44   H     H_    0.096528 0.619256 0.778148 0.237042
H45   H     H_    0.885900 0.601042 0.276259 0.237395
H46   H     H_    0.394463 0.885958 0.275695 0.237537
H47   H     H_    0.118976 0.398849 0.277657 0.237201
H48   H     H_    0.596568 0.119222 0.278148 0.237043
H49   H     H_    0.477243 0.903090 0.857247 0.156132
H50   H     H_    0.093008 0.476997 0.857612 0.155588
H51   H     H_    0.525305 0.095396 0.858072 0.156334
H52   H     H_    0.900695 0.524882 0.857664 0.156827
H53   H     H_    0.977223 0.403094 0.357247 0.156136
H54   H     H_    0.593002 0.976971 0.357612 0.155592
H55   H     H_    0.025324 0.595391 0.358072 0.156338
H56   H     H_    0.400702 0.024906 0.357664 0.156831
H57   H     H_    0.477029 0.902825 0.909198 0.167291
H58   H     H_    0.095078 0.476708 0.909535 0.167513
H59   H     H_    0.524011 0.096232 0.909963 0.169481
H60   H     H_    0.901666 0.523517 0.909602 0.169197
H61   H     H_    0.977011 0.402829 0.409198 0.167289
H62   H     H_    0.595072 0.976683 0.409535 0.167510
H63   H     H_    0.024030 0.596227 0.409963 0.169480
H64   H     H_    0.401672 0.023541 0.409602 0.169195
H65   H     H_    0.099175 0.523694 0.142595 0.164850
H66   H     H_    0.474577 0.097719 0.142005 0.164413
H67   H     H_    0.906581 0.476724 0.142132 0.163559
H68   H     H_    0.521521 0.905154 0.142667 0.164051
H69   H     H_    0.599171 0.023709 0.642595 0.164857
H70   H     H_    0.974554 0.597714 0.642004 0.164418
H71   H     H_    0.406585 0.976710 0.642132 0.163565
H72   H     H_    0.021543 0.405159 0.642667 0.164055
N1    N     N_R   0.003531 0.500716 0.176273 -0.372922
N2    N     N_R   0.497134 0.001931 0.176235 -0.372921
N3    N     N_R   0.503531 0.000717 0.676273 -0.372920
N4    N     N_R   0.997134 0.501931 0.676235 -0.372919
N5    N     N_R   0.501552 0.999226 0.823809 -0.357117
N6    N     N_R   0.996028 0.501813 0.823786 -0.357117
N7    N     N_R   0.001552 0.499225 0.323809 -0.357116
N8    N     N_R   0.496029 0.001813 0.323786 -0.357115
O1    O     O_R   0.999970 0.909590 0.023670 -0.610634
O2    O     O_R   0.090410 0.999970 0.023670 -0.614854
O3    O     O_R   0.000030 0.090410 0.023670 -0.620254
O4    O     O_R   0.909590 0.000030 0.023670 -0.615595
O5    O     O_R   0.499970 0.409590 0.523670 -0.610634
O6    O     O_R   0.590410 0.499970 0.523670 -0.614855
O7    O     O_R   0.500030 0.590410 0.523670 -0.620254
O8    O     O_R   0.409590 0.500030 0.523670 -0.615595
O9    O     O_R   0.000000 0.909590 0.976330 -0.620244
O10   O     O_R   0.090410 0.000000 0.976330 -0.615529
O11   O     O_R   0.000000 0.090410 0.976330 -0.610750
O12   O     O_R   0.909590 0.000000 0.976330 -0.615097
O13   O     O_R   0.500000 0.409590 0.476330 -0.620245
O14   O     O_R   0.590410 0.500000 0.476330 -0.615529
O15   O     O_R   0.500000 0.590410 0.476330 -0.610750
O16   O     O_R   0.409590 0.500000 0.476330 -0.615098
O17   O     O_R   0.500030 0.051130 0.958080 -0.620469
O18   O     O_R   0.948870 0.500030 0.958080 -0.620700
O19   O     O_R   0.499970 0.948870 0.958080 -0.624514
O20   O     O_R   0.051130 0.499970 0.958080 -0.624319
O21   O     O_R   0.000030 0.551130 0.458080 -0.620467
O22   O     O_R   0.448870 0.000030 0.458080 -0.620697
O23   O     O_R   0.999970 0.448870 0.458080 -0.624511
O24   O     O_R   0.551130 0.999970 0.458080 -0.624316
O25   O     O_R   0.590470 0.051110 0.000000 -0.613532
O26   O     O_R   0.948890 0.590470 0.000000 -0.613499
O27   O     O_R   0.409530 0.948890 0.000000 -0.612778
O28   O     O_R   0.051110 0.409530 0.000000 -0.612991
O29   O     O_R   0.090470 0.551110 0.500000 -0.613532
O30   O     O_R   0.448890 0.090470 0.500000 -0.613500
O31   O     O_R   0.909530 0.448890 0.500000 -0.612778
O32   O     O_R   0.551110 0.909530 0.500000 -0.612992
O33   O     O_R   0.590450 0.948970 0.000000 -0.617895
O34   O     O_R   0.051030 0.590450 0.000000 -0.617751
O35   O     O_R   0.409550 0.051030 0.000000 -0.618209
O36   O     O_R   0.948970 0.409550 0.000000 -0.618237
O37   O     O_R   0.090450 0.448970 0.500000 -0.617895
O38   O     O_R   0.551030 0.090450 0.500000 -0.617750
O39   O     O_R   0.909550 0.551030 0.500000 -0.618209
O40   O     O_R   0.448970 0.909550 0.500000 -0.618237
O41   O     O_R   0.499980 0.051120 0.041920 -0.624104
O42   O     O_R   0.948880 0.499980 0.041920 -0.623716
O43   O     O_R   0.500020 0.948880 0.041920 -0.619049
O44   O     O_R   0.051120 0.500020 0.041920 -0.619522
O45   O     O_R   0.999980 0.551120 0.541920 -0.624101
O46   O     O_R   0.448880 0.999980 0.541920 -0.623714
O47   O     O_R   0.000020 0.448880 0.541920 -0.619046
O48   O     O_R   0.551120 0.000020 0.541920 -0.619520
O49   O     O_2   0.070251 0.416847 0.175382 -0.458407
O50   O     O_2   0.581159 0.068534 0.176100 -0.459040
O51   O     O_2   0.937285 0.584944 0.174806 -0.458249
O52   O     O_2   0.413127 0.935382 0.174010 -0.457586
O53   O     O_2   0.570269 0.916863 0.675383 -0.458408
O54   O     O_2   0.081139 0.568559 0.676100 -0.459042
O55   O     O_2   0.437266 0.084929 0.674806 -0.458254
O56   O     O_2   0.913147 0.435355 0.674010 -0.457588
O57   O     O_2   0.419081 0.069283 0.823727 -0.540214
O58   O     O_2   0.925791 0.419459 0.823367 -0.539764
O59   O     O_2   0.583930 0.929070 0.824766 -0.540207
O60   O     O_2   0.065946 0.584437 0.825080 -0.540663
O61   O     O_2   0.919099 0.569304 0.323728 -0.540215
O62   O     O_2   0.425766 0.919481 0.323367 -0.539765
O63   O     O_2   0.083912 0.429048 0.324766 -0.540208
O64   O     O_2   0.565974 0.084414 0.325080 -0.540664
Zn1   Zn    Zn3+2 0.000000 0.000000 0.031610 0.997019
Zn2   Zn    Zn3+2 0.500000 0.500000 0.531610 0.997014
Zn3   Zn    Zn3+2 0.000000 0.000000 0.968400 0.997207
Zn4   Zn    Zn3+2 0.500000 0.500000 0.468400 0.997201
Zn5   Zn    Zn3+2 0.500010 0.068250 0.000000 0.983356
Zn6   Zn    Zn3+2 0.931750 0.500010 0.000000 0.983484
Zn7   Zn    Zn3+2 0.499990 0.931750 0.000000 0.984165
Zn8   Zn    Zn3+2 0.068250 0.499990 0.000000 0.984225
Zn9   Zn    Zn3+2 0.000010 0.568250 0.500000 0.983360
Zn10  Zn    Zn3+2 0.431750 0.000010 0.500000 0.983488
Zn11  Zn    Zn3+2 0.999990 0.431750 0.500000 0.984169
Zn12  Zn    Zn3+2 0.568250 0.999990 0.500000 0.984229
S1    S     S_3+6 0.857205 0.618555 0.219019 0.085704
O65   O     O_2   0.824237 0.579784 0.197071 -0.246386
O66   O     O_2   0.811559 0.639135 0.240736 -0.278575
O67   O     O_3   0.887062 0.681216 0.203622 -0.486019
H73   H     H_    0.851874 0.700904 0.193629 0.392859
S2    S     S_3+6 0.377892 0.856498 0.218433 0.086613
O68   O     O_2   0.417081 0.822876 0.197415 -0.244682
O69   O     O_2   0.356431 0.811431 0.240229 -0.278054
O70   O     O_3   0.315845 0.886322 0.201762 -0.485688
H74   H     H_    0.296230 0.851024 0.191778 0.393531
S3    S     S_3+6 0.149738 0.383235 0.220858 0.086706
O71   O     O_2   0.182821 0.422579 0.199869 -0.243861
O72   O     O_2   0.195078 0.362793 0.243294 -0.278122
O73   O     O_3   0.120792 0.320517 0.204378 -0.486495
H75   H     H_    0.156382 0.301234 0.194937 0.393462
S4    S     S_3+6 0.613104 0.149244 0.221342 0.085840
O74   O     O_2   0.574156 0.181604 0.199425 -0.245484
O75   O     O_2   0.632642 0.195179 0.243687 -0.278639
O76   O     O_3   0.676450 0.120395 0.206138 -0.486821
H76   H     H_    0.695783 0.155909 0.196682 0.392838
S5    S     S_3+6 0.357172 0.118512 0.719018 0.085704
O77   O     O_2   0.324218 0.079733 0.697069 -0.246390
O78   O     O_2   0.311518 0.139076 0.740735 -0.278568
O79   O     O_3   0.387010 0.181184 0.703623 -0.486023
H77   H     H_    0.351817 0.200860 0.693628 0.392860
S6    S     S_3+6 0.877940 0.356458 0.718433 0.086618
O80   O     O_2   0.917140 0.322850 0.697416 -0.244679
O81   O     O_2   0.856494 0.311384 0.740228 -0.278047
O82   O     O_3   0.815882 0.386260 0.701762 -0.485690
H78   H     H_    0.796279 0.350956 0.691778 0.393530
S7    S     S_3+6 0.649775 0.883285 0.720858 0.086708
O83   O     O_2   0.682840 0.922640 0.699867 -0.243861
O84   O     O_2   0.695126 0.862864 0.743294 -0.278117
O85   O     O_3   0.620853 0.820553 0.704381 -0.486499
H79   H     H_    0.656450 0.801281 0.694940 0.393462
S8    S     S_3+6 0.113054 0.649284 0.721342 0.085843
O86   O     O_2   0.074095 0.681629 0.699424 -0.245482
O87   O     O_2   0.132573 0.695227 0.743686 -0.278632
O88   O     O_3   0.176410 0.620456 0.706139 -0.486824
H80   H     H_    0.195731 0.655977 0.696682 0.392839

loop_
_geom_bond_atom_site_label_1
_geom_bond_atom_site_label_2
_ccdc_geom_bond_type
C101  C107  A    
S2    O69   D    
C148  O32   A    
C113  H17   S    
C34   C42   A    
C54   O62   S    
S5    O77   D    
C40   C46   A    
O3    Zn1   S    
C122  C130  D    
C68   H60   S    
C159  O55   S    
C160  O56   S    
C135  H39   S    
C152  O46   A    
S2    O70   S    
C21   C33   A    
C155  N1    A    
C72   H64   S    
C151  O45   A    
C93   H69   S    
C62   C70   A    
C83   C119  D    
C80   C116  D    
C95   C103  A    
C123  C131  D    
C76   C140  S    
C62   H54   S    
C99   C105  A    
C6    O6    A    
C118  H22   S    
C25   C29   A    
O10   Zn3   S    
C30   H42   S    
C138  O20   A    
O73   H75   S    
C16   C158  A    
C5    O5    A    
C146  O30   A    
O79   H77   S    
C4    O12   A    
C49   N5    A    
O18   Zn6   S    
C121  C129  D    
C60   C86   A    
S6    O80   D    
C157  N3    A    
C62   C88   A    
C8    O16   A    
S1    O67   S    
C84   H8    S    
C108  C151  S    
C15   C27   A    
O88   H80   S    
C118  C146  S    
C16   C20   A    
S8    O86   D    
C154  N2    A    
C2    C131  S    
C14   C26   A    
C49   O57   S    
C60   H52   S    
O28   Zn8   S    
C63   C71   A    
C120  C148  S    
C32   C40   A    
C96   C104  A    
C36   C44   A    
O25   Zn5   S    
C82   C118  D    
C37   C45   A    
S5    O79   S    
O27   Zn7   S    
S3    O72   D    
O8    Zn2   S    
C133  H37   S    
C100  C106  A    
C90   H66   S    
C145  O37   A    
C95   H71   S    
S6    O82   S    
C151  O47   A    
C152  O48   A    
C137  O17   A    
C21   S1    S    
C98   C106  A    
C144  O36   A    
C60   C68   A    
C61   C69   A    
C50   O58   S    
O24   Zn12  S    
C65   H57   S    
C9    C21   A    
C73   C137  S    
C10   C18   A    
O46   Zn10  S    
C11   C23   A    
C86   N6    S    
C57   C85   A    
O43   Zn7   S    
C7    O15   A    
O85   H79   S    
C136  H40   S    
O76   H76   S    
C23   S3    S    
C126  C134  D    
O40   Zn10  S    
C160  N4    A    
C89   C97   A    
C149  O41   A    
C103  C107  A    
C43   C47   A    
C44   C48   A    
C109  N1    S    
C84   C128  S    
C39   C51   A    
C138  O18   A    
C139  O23   A    
C100  H12   S    
O22   Zn10  S    
C101  H13   S    
C141  O33   A    
C26   S6    S    
C104  H16   S    
C30   C38   A    
C24   C36   A    
C12   C154  A    
C3    O11   A    
O37   Zn11  S    
O38   Zn12  S    
C1    O9    A    
C122  H26   S    
C68   C74   A    
C66   C74   A    
S8    O88   S    
C7    O7    A    
C124  C132  D    
C36   H48   S    
O47   Zn11  S    
C126  H30   S    
C61   C87   A    
C158  N4    A    
C116  C144  S    
C80   H4    S    
C156  N2    A    
C114  H18   S    
O14   Zn4   S    
C35   C43   A    
O33   Zn7   S    
C69   H61   S    
O34   Zn8   S    
C39   C45   A    
O35   Zn5   S    
C140  O22   A    
O20   Zn8   S    
C61   H53   S    
C58   C86   A    
O23   Zn11  S    
C59   H51   S    
C137  O19   A    
C149  O43   A    
C22   C34   A    
C87   N7    S    
S4    O74   D    
O36   Zn6   S    
C124  H28   S    
C119  H23   S    
C83   H7    S    
C127  H31   S    
C128  H32   S    
C59   C85   A    
C6    C135  S    
C2    O2    A    
C57   C65   A    
C41   C47   A    
C42   C48   A    
C120  H24   S    
C41   C53   A    
C43   C55   A    
C26   C30   A    
C139  O21   A    
C94   H70   S    
C22   S2    S    
O12   Zn3   S    
C81   C125  S    
C159  N3    A    
C142  O26   A    
C83   C127  S    
C18   C48   A    
C19   C45   A    
O7    Zn2   S    
C12   C24   A    
C52   O60   S    
C67   H59   S    
C97   C105  A    
C7    C136  S    
C75   C139  S    
O4    Zn1   S    
S7    O85   S    
C25   S5    S    
C92   C110  A    
C94   C112  A    
C113  C141  S    
O26   Zn6   S    
C38   C46   A    
C77   C121  S    
C11   C153  A    
C98   H10   S    
C9    C155  A    
C140  O24   A    
O48   Zn12  S    
C24   S4    S    
C91   C99   A    
C146  O38   A    
C13   C159  A    
C20   C46   A    
S4    O76   S    
C53   N7    A    
C51   O59   S    
O9    Zn3   S    
C144  O28   A    
C10   C22   A    
C15   C19   A    
C105  C150  S    
C74   C138  S    
O41   Zn5   S    
C79   C115  D    
C128  C136  D    
S6    O81   D    
O29   Zn9   S    
C119  C147  S    
C88   N8    S    
C156  O52   S    
C117  C145  S    
C157  O53   S    
S1    O66   D    
C82   C126  S    
C147  O31   A    
C153  O49   S    
S8    O87   D    
C111  N3    S    
C67   C73   A    
C28   S8    S    
C155  O51   S    
S2    O68   D    
C143  O35   A    
C78   C114  D    
O11   Zn3   S    
S5    O78   D    
C57   H49   S    
C77   H1    S    
C150  O42   A    
C29   H41   S    
C13   C19   A    
C3    C132  S    
C14   C20   A    
C8    O8    A    
C1    C130  S    
S7    O83   D    
C112  N4    S    
C27   C31   A    
C148  O40   A    
C32   H44   S    
C37   C49   A    
C44   C56   A    
C147  O39   A    
C28   C32   A    
C84   C120  D    
C33   H45   S    
C103  H15   S    
C153  N1    A    
C150  O44   A    
C93   C111  A    
O15   Zn4   S    
O6    Zn2   S    
C35   H47   S    
C23   C35   A    
C93   C101  A    
C104  C108  A    
C82   H6    S    
O39   Zn9   S    
C11   C17   A    
C91   H67   S    
C89   H65   S    
C130  H34   S    
C27   S7    S    
C4    C129  S    
O16   Zn4   S    
C33   C41   A    
S3    O71   D    
C66   H58   S    
C42   C54   A    
C55   O63   S    
C56   O64   S    
C70   H62   S    
C69   C75   A    
C85   N5    S    
O70   H74   S    
C80   C124  S    
C53   O61   S    
C92   H68   S    
C29   C37   A    
C63   H55   S    
C64   C88   A    
C110  N2    S    
C16   C28   A    
C17   C47   A    
C72   C76   A    
O44   Zn8   S    
C97   H9    S    
C34   H46   S    
C96   C112  A    
C114  C142  S    
S4    O75   D    
C15   C157  A    
C2    O10   A    
C56   N8    A    
C117  H21   S    
C99   H11   S    
C5    O13   A    
C89   C109  A    
C65   C73   A    
C6    O14   A    
C145  O29   A    
O32   Zn12  S    
O17   Zn5   S    
O19   Zn7   S    
C58   C66   A    
C31   C39   A    
C131  H35   S    
C102  C108  A    
C142  O34   A    
C31   H43   S    
C59   C67   A    
C64   C72   A    
C106  C149  S    
C13   C25   A    
C78   C122  S    
O42   Zn6   S    
C58   H50   S    
C5    C134  S    
O30   Zn10  S    
C115  C143  S    
C71   H63   S    
C50   N6    A    
C158  O54   S    
C10   C156  A    
C40   C52   A    
C79   C123  S    
C154  O50   S    
C14   C160  A    
C141  O25   A    
S7    O84   D    
O2    Zn1   S    
O13   Zn4   S    
C51   N5    A    
C3    O3    A    
C1    O1    A    
C107  C152  S    
C81   C117  D    
C9    C17   A    
C77   C113  D    
O45   Zn9   S    
C78   H2    S    
C70   C76   A    
C90   C110  A    
O5    Zn2   S    
C92   C100  A    
C125  C133  D    
C134  H38   S    
C63   C87   A    
C8    C133  S    
O31   Zn11  S    
C64   H56   S    
C79   H3    S    
S3    O73   S    
C129  H33   S    
C38   C50   A    
C52   N6    A    
C102  H14   S    
O21   Zn9   S    
O67   H73   S    
C91   C109  A    
C116  H20   S    
O1    Zn1   S    
C54   N8    A    
C95   C111  A    
C71   C75   A    
C4    O4    A    
C143  O27   A    
C96   H72   S    
C123  H27   S    
S1    O65   D    
C127  C135  D    
C121  H25   S    
C12   C18   A    
C132  H36   S    
C81   H5    S    
C125  H29   S    
C55   N7    A    
O82   H78   S    
C90   C98   A    
C115  H19   S    
C94   C102  A    
