data_mof_unit_12504.cif
_audit_creation_date              2012-12-11T14:49:54-0500
_audit_creation_method            fapswitch 2.2
_symmetry_space_group_name_H-M    P1
_symmetry_Int_Tables_number       1
_space_group_crystal_system       triclinic
_cell_length_a                    16.948826
_cell_length_b                    16.724228
_cell_length_c                    19.490986
_cell_angle_alpha                 117.758983
_cell_angle_beta                  63.31726
_cell_angle_gamma                 100.418984
_cell_volume                      4365.5635055

loop_
_atom_site_label
_atom_site_type_symbol
_atom_type_description
_atom_site_fract_x
_atom_site_fract_y
_atom_site_fract_z
_atom_type_partial_charge
C1    C     C_R   0.042074 0.759179 0.008546 -0.153609
C2    C     C_R   0.250340 0.522105 0.828634 -0.138640
C3    C     C_R   0.184218 0.488963 0.086739 -0.139093
C4    C     C_R   0.763915 0.421863 0.164743 -0.142118
C5    C     C_R   0.984632 0.341873 0.760985 -0.095598
C6    C     C_R   0.258542 0.537685 0.063011 0.066647
C7    C     C_R   0.929357 0.270439 0.764115 0.097707
C8    C     C_R   0.254350 0.463117 0.748581 0.103281
C9    C     C_R   0.031961 0.222221 0.999741 0.075078
C10   C     C_R   0.851168 0.133289 0.709001 -0.280690
C11   C     C_R   0.886511 0.214614 0.705940 0.103825
C12   C     C_R   0.768325 0.444249 0.240229 0.057724
C13   C     C_R   0.891543 0.233467 0.640137 -0.107397
C14   C     C_R   0.889282 0.160167 0.565144 0.030437
C15   C     C_R   0.866266 0.074357 0.564844 0.042572
C16   C     C_R   0.804982 0.560840 0.961327 -0.064272
C17   C     C_R   0.839901 0.063535 0.639541 0.142845
C18   C     C_R   0.913809 0.168033 0.489082 -0.219477
C19   C     C_R   0.926268 0.091074 0.412675 -0.147332
C20   C     C_R   0.911042 0.005451 0.411376 0.126915
C21   C     C_R   0.875245 0.997785 0.488632 0.035865
C22   C     C_R   0.855393 0.912330 0.488716 0.137134
C23   C     C_R   0.724573 0.548242 0.020482 0.043622
C24   C     C_R   0.819542 0.904405 0.565357 -0.208930
C25   C     C_R   0.812512 0.979751 0.640526 -0.202188
C26   C     C_R   0.936744 0.927082 0.334083 -0.247613
C27   C     C_R   0.926020 0.841859 0.334152 0.101098
C28   C     C_R   0.957727 0.672901 0.248328 -0.127289
C29   C     C_R   0.878846 0.835320 0.411693 -0.250143
C30   C     C_R   0.404598 0.396181 0.642151 0.130943
C31   C     C_R   0.330966 0.449967 0.671770 0.071972
C32   C     C_R   0.330727 0.500674 0.632410 -0.292772
C33   C     C_R   0.403519 0.498704 0.561688 0.129370
C34   C     C_R   0.968252 0.759902 0.255201 0.074309
C35   C     C_R   0.481256 0.452302 0.534604 -0.016372
C36   C     C_R   0.485110 0.408464 0.580493 0.020448
C37   C     C_R   0.399734 0.546322 0.520649 -0.276243
C38   C     C_R   0.472310 0.546199 0.448914 0.210997
C39   C     C_R   0.549246 0.495049 0.417630 0.074722
C40   C     C_R   0.739709 0.482928 0.038293 -0.118621
C41   C     C_R   0.554930 0.450837 0.462293 -0.013103
C42   C     C_R   0.634221 0.405885 0.435195 0.101462
C43   C     C_R   0.642017 0.378991 0.490382 -0.211634
C44   C     C_R   0.569688 0.384449 0.565531 0.156698
C45   C     C_R   0.250572 0.567188 0.010847 -0.135954
C46   C     C_R   0.621277 0.488408 0.343776 -0.238777
C47   C     C_R   0.697085 0.439714 0.313923 -0.003972
C48   C     C_R   0.705749 0.396780 0.357486 -0.099487
C49   C     C_R   0.638248 0.590654 0.054581 0.131310
C50   C     C_R   0.327065 0.563027 0.094954 0.128459
C51   C     C_R   0.409750 0.528093 0.151895 -0.238461
C52   C     C_R   0.025907 0.753420 0.174247 -0.138468
C53   C     C_R   0.333697 0.520626 0.139696 -0.164554
C54   C     C_R   0.392585 0.621856 0.071908 -0.277190
C55   C     C_R   0.471094 0.624938 0.078879 0.188368
C56   C     C_R   0.915138 0.266026 0.838040 -0.151470
C57   C     C_R   0.480560 0.575365 0.116849 0.188825
C58   C     C_R   0.563469 0.563624 0.109032 -0.276700
C59   C     C_R   0.627734 0.648296 0.024868 -0.162007
C60   C     C_R   0.543751 0.667159 0.038817 -0.220895
C61   C     C_R   0.798876 0.125820 0.053102 0.063676
C62   C     C_R   0.972449 0.856582 0.976205 0.024211
C63   C     C_R   0.947132 0.922933 0.900024 -0.227577
C64   C     C_R   0.842815 0.491742 0.240830 -0.149477
C65   C     C_R   0.983356 0.854561 0.899724 -0.163185
C66   C     C_R   0.928337 0.932150 0.055019 -0.091282
C67   C     C_R   0.170045 0.452382 0.752516 -0.164622
C68   C     C_R   0.887598 0.000269 0.055714 0.105632
C69   C     C_R   0.896660 0.993853 0.977168 0.181951
C70   C     C_R   0.852206 0.056585 0.976711 -0.266783
C71   C     C_R   0.789411 0.133277 0.130549 -0.157543
C72   C     C_R   0.832878 0.071265 0.132384 -0.133896
C73   C     C_R   0.964910 0.688414 0.931170 -0.140739
C74   C     C_R   0.993787 0.772195 0.972358 0.037521
C75   C     C_2   0.894081 0.328127 0.651860 0.473355
C76   C     C_3   0.393541 0.319029 0.666469 -0.363113
C77   C     C_3   0.315318 0.259779 0.656711 -0.884705
C78   C     C_R   0.052969 0.307449 0.050137 -0.126556
C79   C     C_3   0.465465 0.603775 0.410252 -0.358053
C80   C     C_3   0.442195 0.547565 0.334321 -0.924924
C81   C     C_2   0.787060 0.340255 0.318571 0.441380
C82   C     C_3   0.589717 0.382501 0.633784 -0.353669
C83   C     C_3   0.563922 0.472506 0.714142 -0.880377
C84   C     C_2   0.920779 0.935721 0.135350 0.438976
C85   C     C_R   0.975993 0.238678 0.972329 -0.114804
H1    H     H_    0.083590 0.808096 0.035579 0.105456
H2    H     H_    0.929578 0.231977 0.485823 0.126686
H3    H     H_    0.717274 0.377799 0.141695 0.098498
H4    H     H_    0.951408 0.098280 0.354045 0.175214
H5    H     H_    0.969368 0.932973 0.274619 0.156190
H6    H     H_    0.866129 0.770666 0.413712 0.117016
H7    H     H_    0.802748 0.839073 0.566180 0.130665
H8    H     H_    0.790714 0.971416 0.698227 0.129207
H9    H     H_    0.272583 0.541534 0.657020 0.141869
H10   H     H_    0.339642 0.583785 0.544689 0.134641
H11   H     H_    0.620173 0.521652 0.308047 0.150750
H12   H     H_    0.865819 0.227439 0.867650 0.092974
H13   H     H_    0.815761 0.603998 0.931104 0.090065
H14   H     H_    0.706075 0.360015 0.478754 0.172528
H15   H     H_    0.569405 0.523960 0.137251 0.120468
H16   H     H_    0.684005 0.673886 0.986170 0.118515
H17   H     H_    0.416472 0.489042 0.180472 0.139357
H18   H     H_    0.537014 0.706764 0.010672 0.129551
H19   H     H_    0.283519 0.476389 0.159886 0.117114
H20   H     H_    0.387490 0.658055 0.040321 0.117524
H21   H     H_    0.857715 0.051510 0.917242 0.114472
H22   H     H_    0.918362 0.651046 0.297299 0.094294
H23   H     H_    0.150861 0.414890 0.700188 0.108482
H24   H     H_    0.746656 0.186443 0.189408 0.154126
H25   H     H_    0.954982 0.917912 0.839793 0.128789
H26   H     H_    0.820472 0.078241 0.194339 0.200358
H27   H     H_    0.017474 0.797509 0.839222 0.128392
H28   H     H_    0.693228 0.454201 0.079742 0.092653
H29   H     H_    0.050707 0.808770 0.157583 0.096940
H30   H     H_    0.869066 0.512324 0.287737 0.084428
H31   H     H_    0.935672 0.671840 0.887252 0.101826
H32   H     H_    0.289248 0.616689 0.989684 0.088969
H33   H     H_    0.932787 0.345720 0.599374 -0.004602
H34   H     H_    0.093998 0.320934 0.083417 0.103821
H35   H     H_    0.251993 0.291766 0.711677 0.261909
H36   H     H_    0.312155 0.245790 0.596416 0.259954
H37   H     H_    0.323365 0.194253 0.654889 0.248890
H38   H     H_    0.451302 0.271342 0.621845 0.197161
H39   H     H_    0.386935 0.346051 0.732843 0.197624
H40   H     H_    0.493145 0.493357 0.282976 0.251673
H41   H     H_    0.377276 0.516398 0.354856 0.264750
H42   H     H_    0.437766 0.592449 0.308422 0.258099
H43   H     H_    0.413141 0.657852 0.458465 0.189249
H44   H     H_    0.527324 0.640069 0.391667 0.182317
H45   H     H_    0.946815 0.188545 0.931500 0.103015
H46   H     H_    0.849579 0.355085 0.276352 0.032980
H47   H     H_    0.596454 0.528913 0.697559 0.258666
H48   H     H_    0.491281 0.485098 0.746460 0.246378
H49   H     H_    0.585569 0.471045 0.759548 0.261224
H50   H     H_    0.559062 0.326655 0.650991 0.181247
H51   H     H_    0.661723 0.370589 0.609826 0.197837
H52   H     H_    0.905468 0.875537 0.146064 0.029617
H53   H     H_    0.305112 0.548807 0.846008 0.098295
H54   H     H_    0.162403 0.467174 0.136467 0.087838
H55   H     H_    0.004212 0.370682 0.716654 0.098259
H56   H     H_    0.840672 0.119711 0.761504 0.122152
N1    N     N_R   0.036080 0.671900 0.995420 -0.038401
N2    N     N_R   0.867430 0.509300 0.948100 -0.036547
N3    N     N_R   0.003360 0.617250 0.167070 -0.041564
N4    N     N_R   0.825450 0.461270 0.995400 -0.042108
N5    N     N_R   0.045340 0.665280 0.119770 -0.039432
N6    N     N_R   0.883740 0.497640 0.167070 -0.036643
N7    N     N_R   0.987050 0.628910 0.948110 -0.040972
N8    N     N_R   0.174550 0.538730 0.004600 -0.038945
N9    N     N_R   0.954660 0.334720 0.880230 -0.043771
N10   N     N_R   0.116260 0.502360 0.832930 -0.041954
N11   N     N_R   0.012950 0.371090 0.051890 -0.044329
N12   N     N_R   0.963920 0.328100 0.004580 -0.044406
N13   N     N_R   0.165290 0.545350 0.880240 -0.040826
N14   N     N_R   0.132570 0.490700 0.051900 -0.039059
N15   N     N_R   0.996640 0.382750 0.832930 -0.046003
N16   N     N_R   0.834710 0.454650 0.119760 -0.039588
Ni1   Ni    Ni4+2 0.104370 0.604370 0.000010 0.212363
Ni2   Ni    Ni4+2 0.895630 0.395630 0.999990 0.212857
Ni3   Ni    Ni4+2 0.991920 0.505780 0.891500 0.231922
Ni4   Ni    Ni4+2 0.008080 0.494220 0.108500 0.207777
O1    O     O_2   0.850934 0.388156 0.721605 -0.581588
O2    O     O_2   0.784350 0.273238 0.329204 -0.591740
O3    O     O_2   0.935316 0.005067 0.188679 -0.600374

loop_
_geom_bond_atom_site_label_1
_geom_bond_atom_site_label_2
_ccdc_geom_bond_type
C61   C70   A    
C66   C68   A    
C79   H43   S    
C63   C65   A    
C25   H8    S    
C6    C45   A    
N3    Ni4   S    
C27   C29   A    
C41   C42   A    
C14   C18   A    
C32   H9    S    
C35   C36   A    
C3    C6    A    
C78   N11   A    
N2    Ni3   S    
C39   C41   A    
N14   Ni4   S    
C51   H17   S    
C7    C11   S    
C26   C27   A    
C50   C54   A    
C73   H31   S    
C80   H41   S    
C40   N4    A    
C75   O1    D    
C1    C74   A    
C56   H12   S    
C22   C29   A    
C43   H14   S    
N13   Ni1   S    
C44   C82   S    
C30   C31   A    
N4    Ni2   S    
C67   H23   S    
C23   C49   S    
C38   C79   S    
C28   H22   S    
C23   C40   A    
C79   H44   S    
C48   C81   S    
C37   H10   S    
C15   C17   A    
C18   C19   A    
N7    Ni3   S    
N10   N13   A    
C82   H50   S    
C83   H49   S    
C1    N1    A    
C9    C85   A    
C46   C47   A    
C13   C75   S    
C68   C69   A    
C28   N3    A    
C4    C12   A    
C60   H18   S    
N8    Ni1   S    
N11   Ni4   S    
C62   C65   A    
C55   C60   A    
C61   C71   A    
C72   H26   S    
C28   C34   A    
C59   C60   A    
N16   Ni2   S    
C64   H30   S    
N9    N15   A    
C13   C14   A    
C81   O2    D    
C75   H33   S    
C7    C56   A    
N1    Ni1   S    
C12   C47   S    
C24   H7    S    
C27   C34   S    
C50   C53   A    
N9    Ni2   S    
C62   C66   A    
C73   N7    A    
C67   N10   A    
C2    H53   S    
C63   C69   A    
N15   Ni3   S    
C16   N2    A    
C58   H15   S    
C24   C25   A    
N3    N5    A    
C70   H21   S    
C5    C7    A    
C77   H36   S    
C42   C48   A    
C40   H28   S    
C33   C37   A    
C49   C58   A    
C51   C53   A    
C10   H56   S    
C59   H16   S    
N12   Ni2   S    
C43   C44   A    
C65   H27   S    
C37   C38   A    
C19   H4    S    
N1    N7    A    
C85   H45   S    
C30   C76   S    
C47   C48   A    
C14   C15   A    
C15   C21   A    
C68   C72   A    
C3    N14   A    
C85   N12   A    
C76   C77   S    
N5    Ni1   S    
C39   C46   A    
C51   C57   A    
C84   H52   S    
C16   C23   A    
C55   C57   A    
C64   N6    A    
N6    Ni4   S    
C22   C24   A    
C36   C44   A    
C3    H54   S    
C42   C43   A    
C56   N9    A    
C10   C17   A    
N6    N16   A    
C73   C74   A    
C29   H6    S    
C5    H55   S    
C45   H32   S    
C1    H1    S    
N2    N4    A    
C54   C55   A    
C52   N5    A    
C6    C50   S    
C54   H20   S    
C77   H37   S    
C8    C31   S    
C31   C32   A    
C2    C8    A    
C76   H38   S    
C84   O3    D    
C4    H3    S    
C80   H42   S    
C52   H29   S    
C26   H5    S    
C5    N15   A    
C34   C52   A    
C18   H2    S    
C49   C59   A    
C30   C36   A    
C17   C25   A    
C32   C33   A    
C19   C20   A    
C78   H34   S    
N8    N14   A    
C83   H47   S    
N10   Ni3   S    
C11   C13   A    
C16   H13   S    
C57   C58   A    
C38   C39   A    
C20   C26   A    
C63   H25   S    
C12   C64   A    
C71   H24   S    
C33   C35   A    
C4    N16   A    
C45   N8    A    
C9    C78   A    
C82   H51   S    
C69   C70   A    
C35   C41   A    
C83   H48   S    
C81   H46   S    
C10   C11   A    
C76   H39   S    
C66   C84   S    
C79   C80   S    
C71   C72   A    
C46   H11   S    
C20   C21   A    
C8    C67   A    
C2    N13   A    
C82   C83   S    
C80   H40   S    
C77   H35   S    
C62   C74   S    
N11   N12   A    
C53   H19   S    
C21   C22   A    
