data_mof_unit_12350.cif
_audit_creation_date              2012-12-10T17:54:27-0500
_audit_creation_method            fapswitch 2.2
_symmetry_space_group_name_H-M    P1
_symmetry_Int_Tables_number       1
_space_group_crystal_system       triclinic
_cell_length_a                    27.732379
_cell_length_b                    10.645121
_cell_length_c                    9.910973
_cell_angle_alpha                 89.739645
_cell_angle_beta                  89.492513
_cell_angle_gamma                 90.869892
_cell_volume                      2925.3792438

loop_
_atom_site_label
_atom_site_type_symbol
_atom_type_description
_atom_site_fract_x
_atom_site_fract_y
_atom_site_fract_z
_atom_type_partial_charge
C1    C     C_R   0.503594 0.260859 0.500438 0.964685
C2    C     C_R   0.973909 0.383434 0.529453 -0.045198
C3    C     C_R   0.975749 0.614237 0.500614 0.101471
C4    C     C_R   0.406105 0.499119 0.500712 0.846712
C5    C     C_R   0.949551 0.498848 0.515625 -0.006541
C6    C     C_R   0.946675 0.269599 0.519119 0.296211
C7    C     C_R   0.896019 0.270785 0.535046 0.384391
C8    C     C_R   0.871745 0.385844 0.528355 -0.133389
C9    C     C_R   0.898501 0.498796 0.511035 -0.135304
C10   C     C_R   0.874111 0.612271 0.488861 0.011428
C11   C     C_R   0.823797 0.612326 0.489584 0.548513
C12   C     C_R   0.278851 0.485538 0.631865 -0.095500
C13   C     C_R   0.821019 0.391535 0.531920 0.647475
C14   C     C_R   0.720998 0.543849 0.617462 -0.189285
C15   C     C_R   0.671094 0.541193 0.614552 -0.334898
C16   C     C_R   0.500700 0.739346 0.499598 0.860279
C17   C     C_R   0.673262 0.466176 0.382071 0.319117
C18   C     C_R   0.724190 0.463216 0.388231 0.388970
C19   C     C_R   0.747329 0.504715 0.505356 0.235716
C20   C     C_R   0.024819 0.385452 0.542931 0.113664
C21   C     C_R   0.050949 0.500576 0.528062 -0.013766
C22   C     C_R   0.026692 0.616564 0.514970 -0.008563
C23   C     C_R   0.253042 0.493992 0.511995 0.310043
C24   C     C_R   0.050562 0.276900 0.579346 -0.120573
C25   C     C_R   0.104810 0.726334 0.513248 -0.235549
C26   C     C_R   0.950127 0.722043 0.461661 -0.125043
C27   C     C_R   0.900275 0.722097 0.460335 -0.155598
C28   C     C_R   0.593968 0.501645 0.499159 0.981095
C29   C     C_R   0.054437 0.730406 0.522788 0.422430
C30   C     C_R   0.586866 0.124955 0.624767 0.443634
C31   C     C_R   0.623662 0.052818 0.682126 -0.199787
C32   C     C_R   0.621730 0.922892 0.677447 -0.170371
C33   C     C_R   0.583089 0.862542 0.616525 -0.193964
C34   C     C_R   0.101981 0.499499 0.529073 -0.059319
C35   C     C_R   0.544852 0.931712 0.560727 0.030362
C36   C     C_R   0.546420 0.063999 0.563460 0.052620
C37   C     C_R   0.507668 0.128142 0.500915 -0.090079
C38   C     C_R   0.470512 0.064709 0.435004 -0.224103
C39   C     C_R   0.469348 0.936635 0.433795 -0.173168
C40   C     C_R   0.176903 0.385836 0.539734 0.514021
C41   C     C_R   0.505361 0.871397 0.498555 -0.069856
C42   C     C_R   0.436433 0.337838 0.141840 -0.297582
C43   C     C_R   0.404381 0.258551 0.072502 0.467585
C44   C     C_R   0.404994 0.259219 0.932719 -0.186341
C45   C     C_R   0.126537 0.385809 0.546905 -0.001868
C46   C     C_R   0.436700 0.338067 0.862001 -0.270706
C47   C     C_R   0.468747 0.420171 0.928744 0.179438
C48   C     C_R   0.468704 0.420132 0.073219 0.137473
C49   C     C_R   0.529982 0.576119 0.070383 -0.070206
C50   C     C_R   0.529962 0.576110 0.927243 -0.102131
C51   C     C_R   0.178979 0.607875 0.505985 0.537109
C52   C     C_R   0.277105 0.502725 0.387679 -0.087554
C53   C     C_R   0.327252 0.503588 0.383275 -0.209306
C54   C     C_R   0.328858 0.486852 0.627942 -0.209982
C55   C     C_R   0.100494 0.275992 0.576477 -0.171469
C56   C     C_R   0.128609 0.612021 0.513448 -0.067737
C57   C     C_R   0.353435 0.496492 0.503635 -0.042833
C58   C     C_R   0.646842 0.502345 0.497965 -0.122116
H1    H     H_    0.348159 0.480571 0.722201 0.169415
H2    H     H_    0.256905 0.509140 0.294963 0.143961
H3    H     H_    0.125496 0.813528 0.512357 0.193749
H4    H     H_    0.967589 0.806749 0.425196 0.211454
H5    H     H_    0.669326 0.456161 0.186856 0.337005
H6    H     H_    0.882343 0.808427 0.433887 0.200504
H7    H     H_    0.733532 0.356084 0.232326 0.352164
H8    H     H_    0.057256 0.911688 0.555867 0.342840
H9    H     H_    0.441507 0.114891 0.387019 0.144769
H10   H     H_    0.620660 0.279567 0.674075 0.335170
H11   H     H_    0.584047 0.761255 0.612061 0.146309
H12   H     H_    0.654523 0.097729 0.728959 0.158082
H13   H     H_    0.439624 0.888001 0.385078 0.164462
H14   H     H_    0.435149 0.332082 0.248677 0.198238
H15   H     H_    0.375028 0.191977 0.237311 0.322914
H16   H     H_    0.434929 0.331805 0.755175 0.220620
H17   H     H_    0.554440 0.638358 0.872507 0.140711
H18   H     H_    0.739384 0.574633 0.707701 0.175323
H19   H     H_    0.890939 0.095980 0.592105 0.343836
H20   H     H_    0.945672 0.104942 0.432524 0.356914
H21   H     H_    0.032982 0.191925 0.615104 0.212484
H22   H     H_    0.260049 0.478878 0.727934 0.143055
H23   H     H_    0.650635 0.868536 0.719935 0.170754
H24   H     H_    0.554483 0.638325 0.123227 0.152721
H25   H     H_    0.380627 0.197910 0.877956 0.183585
H26   H     H_    0.118584 0.189176 0.599979 0.193273
H27   H     H_    0.651419 0.571124 0.703395 0.187320
H28   H     H_    0.345415 0.510582 0.286269 0.169585
N1    N     N_R   0.201771 0.495624 0.517244 -0.361906
N2    N     N_R   0.798627 0.503266 0.511715 -0.344218
N3    N     N_R   0.499540 0.498800 0.142780 -0.109018
N4    N     N_R   0.499520 0.498720 0.857170 -0.109680
O1    O     O_R   0.500000 0.316780 0.614690 -0.600699
O2    O     O_R   0.571250 0.499990 0.614680 -0.615595
O3    O     O_R   0.571240 0.499970 0.385350 -0.555360
O4    O     O_2   0.200917 0.277328 0.554466 -0.541895
O5    O     O_3   0.648857 0.433922 0.266061 -0.743706
O6    O     O_3   0.752441 0.418874 0.283877 -0.751251
O7    O     O_3   0.032672 0.843141 0.552332 -0.774951
O8    O     O_3   0.590988 0.253745 0.625663 -0.768434
O9    O     O_3   0.372134 0.179232 0.138663 -0.745455
O10   O     O_3   0.869906 0.159973 0.551110 -0.689159
O11   O     O_3   0.969216 0.161023 0.478054 -0.778397
O12   O     O_2   0.793942 0.286898 0.553849 -0.463317
O13   O     O_2   0.205083 0.714928 0.488790 -0.538944
O14   O     O_2   0.800030 0.720170 0.467495 -0.534301
O15   O     O_R   0.500000 0.316750 0.385360 -0.636599
O16   O     O_R   0.428760 0.500030 0.614650 -0.640258
O17   O     O_R   0.428750 0.500010 0.385320 -0.643991
O18   O     O_R   0.500000 0.683250 0.614640 -0.620684
O19   O     O_R   0.500000 0.683220 0.385310 -0.620449
Zn1   Zn    Zn3+2 0.500000 0.500020 0.653130 0.964254
Zn2   Zn    Zn3+2 0.500000 0.499980 0.346870 0.978040

loop_
_geom_bond_atom_site_label_1
_geom_bond_atom_site_label_2
_ccdc_geom_bond_type
C10   C27   A    
C34   C56   A    
C8    C13   A    
C22   C29   A    
C18   O6    S    
C35   C36   A    
C25   C56   A    
C44   H25   S    
C7    C8    A    
C39   C41   A    
C31   C32   A    
C24   C55   A    
C32   H23   S    
C12   C23   A    
C26   C27   A    
C40   N1    A    
C36   C37   A    
C43   O9    S    
C18   C19   A    
O19   Zn2   S    
C30   C31   A    
C51   O13   S    
H5    O5    S    
H19   O10   S    
C51   C56   A    
C6    O11   S    
C52   H2    S    
C50   N4    A    
C31   H12   S    
C20   C24   A    
C8    C9    A    
C30   C36   A    
C4    C57   S    
C53   H28   S    
C17   O5    S    
C40   O4    S    
C9    C10   A    
C33   H11   S    
C17   C58   A    
C15   H27   S    
O15   Zn2   S    
C1    O1    A    
C23   N1    S    
C21   C22   A    
H20   O11   S    
C2    C6    A    
O17   Zn2   S    
C44   C46   A    
C16   O19   A    
C54   H1    S    
H7    O6    S    
C25   C29   A    
C40   C45   A    
C4    O17   A    
C7    O10   S    
C2    C20   A    
C19   N2    S    
C27   H6    S    
C51   N1    A    
C53   C57   A    
C25   H3    S    
C21   C34   A    
C4    O16   A    
C28   O3    A    
C14   H18   S    
C49   H24   S    
C43   C44   A    
C5    C9    A    
C37   C38   A    
C24   H21   S    
C47   C48   A    
C11   N2    A    
C42   H14   S    
C17   C18   A    
C28   O2    A    
C34   C45   A    
C42   C48   A    
C38   H9    S    
C11   O14   S    
O3    Zn2   S    
C48   N3    A    
C15   C58   A    
C2    C5    A    
C42   C43   A    
N4    Zn1   S    
C46   H16   S    
C52   C53   A    
H8    O7    S    
O16   Zn1   S    
H15   O9    S    
C30   O8    S    
C46   C47   A    
O1    Zn1   S    
C14   C19   A    
C3    C26   A    
C49   N3    A    
C3    C5    A    
C13   O12   S    
C6    C7    A    
C28   C58   S    
N3    Zn2   S    
C29   O7    S    
C32   C33   A    
C26   H4    S    
C50   H17   S    
O2    Zn1   S    
C23   C52   A    
C38   C39   A    
C12   H22   S    
C13   N2    A    
C33   C35   A    
O18   Zn1   S    
C35   C41   A    
H10   O8    S    
C47   N4    A    
C10   C11   A    
C16   O18   A    
C20   C21   A    
C45   C55   A    
C49   C50   A    
C39   H13   S    
C14   C15   A    
C3    C22   A    
C55   H26   S    
C16   C41   S    
C12   C54   A    
C1    O15   A    
C1    C37   S    
C54   C57   A    
