data_mof_unit_37523.cif
_audit_creation_date              2012-12-10T17:46:21-0500
_audit_creation_method            fapswitch 2.2
_symmetry_space_group_name_H-M    P1
_symmetry_Int_Tables_number       1
_space_group_crystal_system       triclinic
_cell_length_a                    14.125125
_cell_length_b                    10.633548
_cell_length_c                    9.94483
_cell_angle_alpha                 90.05883
_cell_angle_beta                  88.814441
_cell_angle_gamma                 89.891403
_cell_volume                      1493.39211136

loop_
_atom_site_label
_atom_site_type_symbol
_atom_type_description
_atom_site_fract_x
_atom_site_fract_y
_atom_site_fract_z
_atom_type_partial_charge
C1    C     C_R   0.500908 0.260985 0.499953 0.882264
C2    C     C_R   0.589521 0.065858 0.504274 0.125959
C3    C     C_R   0.589527 0.934168 0.506304 0.127719
C4    C     C_R   0.329356 0.499478 0.501058 0.850725
C5    C     C_R   0.501560 0.871678 0.500651 -0.164560
C6    C     C_R   0.352345 0.380973 0.134280 -0.146682
C7    C     C_R   0.267306 0.360396 0.067201 0.160395
C8    C     C_R   0.252034 0.424770 0.946331 -0.231092
C9    C     C_R   0.325640 0.495230 0.886029 0.201663
C10   C     C_R   0.418017 0.478083 0.933796 0.104998
C11   C     C_R   0.424516 0.452421 0.072936 0.016865
C12   C     C_1   0.772174 0.499125 0.496650 -0.191583
C13   C     C_R   0.577371 0.537943 0.069485 0.505090
C14   C     C_R   0.578750 0.529959 0.925470 -0.244981
C15   C     C_R   0.501249 0.739053 0.500052 0.883949
C16   C     C_R   0.670656 0.499922 0.498792 0.887019
C17   C     C_1   0.227853 0.498230 0.502517 -0.240499
C18   C     C_1   0.142565 0.497598 0.501912 -0.037550
C19   C     C_1   0.042685 0.497431 0.500035 -0.005627
C20   C     C_1   0.957394 0.497714 0.498254 -0.003904
C21   C     C_1   0.857487 0.498402 0.496733 -0.023441
C22   C     C_3   0.682111 0.140401 0.505172 -0.407881
C23   C     C_R   0.326340 0.130970 0.490615 -0.160882
C24   C     C_3   0.711522 0.172011 0.648309 -0.857113
C25   C     C_3   0.298737 0.622454 0.829261 -0.373350
C26   C     C_3   0.265819 0.712661 0.940644 -0.903425
C27   C     C_3   0.681987 0.859457 0.513189 -0.436134
C28   C     C_3   0.720244 0.826432 0.372774 -0.831927
C29   C     C_3   0.189995 0.282728 0.132473 -0.421534
C30   C     C_3   0.216805 0.143588 0.133450 -0.844916
C31   C     C_R   0.240969 0.065773 0.486678 -0.142880
C32   C     C_R   0.241021 0.935105 0.487363 -0.137475
C33   C     C_R   0.326450 0.869639 0.491979 -0.148890
C34   C     C_R   0.413992 0.934657 0.495769 0.053314
C35   C     C_R   0.413922 0.065704 0.495314 0.052851
C36   C     C_R   0.501417 0.128451 0.499663 -0.163693
H1    H     H_    0.181261 0.430470 0.906729 0.143979
H2    H     H_    0.780384 0.222225 0.645029 0.247312
H3    H     H_    0.740477 0.089483 0.452632 0.213798
H4    H     H_    0.675994 0.228804 0.446887 0.197869
H5    H     H_    0.322330 0.724768 0.015649 0.269336
H6    H     H_    0.249543 0.805907 0.896432 0.257903
H7    H     H_    0.200835 0.676638 0.992114 0.266002
H8    H     H_    0.360180 0.667322 0.777654 0.251802
H9    H     H_    0.240758 0.611853 0.756456 0.207624
H10   H     H_    0.787852 0.773857 0.381046 0.250634
H11   H     H_    0.669116 0.766690 0.319114 0.309141
H12   H     H_    0.642170 0.554813 0.868887 0.152505
H13   H     H_    0.733453 0.912686 0.312627 0.247159
H14   H     H_    0.736983 0.910660 0.568856 0.216670
H15   H     H_    0.672125 0.771697 0.571940 0.203565
H16   H     H_    0.704741 0.606208 0.070425 0.306318
H17   H     H_    0.227918 0.108854 0.028897 0.264705
H18   H     H_    0.282543 0.128369 0.190638 0.265374
H19   H     H_    0.158865 0.088494 0.182082 0.249364
H20   H     H_    0.177155 0.315735 0.237407 0.211063
H21   H     H_    0.122561 0.293501 0.077908 0.208387
H22   H     H_    0.322896 0.232480 0.489691 0.119978
H23   H     H_    0.174710 0.116849 0.482755 0.141229
H24   H     H_    0.174773 0.884257 0.484354 0.137543
H25   H     H_    0.323076 0.768114 0.492782 0.118984
H26   H     H_    0.362331 0.337392 0.230650 0.191584
H27   H     H_    0.658282 0.233722 0.698636 0.285014
H28   H     H_    0.719377 0.085323 0.709086 0.250938
N1    N     N_R   0.499190 0.498800 0.142780 -0.114303
N2    N     N_R   0.499160 0.498720 0.857170 -0.123043
O1    O     O_R   0.500000 0.316780 0.614690 -0.596370
O2    O     O_R   0.499990 0.316750 0.385360 -0.636251
O3    O     O_R   0.373720 0.500010 0.614690 -0.615021
O4    O     O_R   0.373710 0.499990 0.385360 -0.610036
O5    O     O_R   0.500010 0.683250 0.614640 -0.632820
O6    O     O_R   0.500000 0.683220 0.385310 -0.585529
O7    O     O_R   0.626290 0.500010 0.614640 -0.613598
O8    O     O_R   0.626280 0.499990 0.385310 -0.529273
O9    O     O_3   0.654904 0.581561 0.136900 -0.756070
Zn1   Zn    Zn3+2 0.500010 0.500020 0.653130 0.921487
Zn2   Zn    Zn3+2 0.499990 0.499980 0.346870 0.972259

loop_
_geom_bond_atom_site_label_1
_geom_bond_atom_site_label_2
_ccdc_geom_bond_type
C23   H22   S    
C28   H11   S    
C7    C29   S    
C19   C20   T    
H16   O9    S    
C4    O4    A    
C9    C25   S    
C7    C8    A    
C13   N1    A    
C15   O6    A    
C30   H18   S    
C28   H10   S    
C29   C30   S    
C16   O8    A    
C18   C19   S    
O5    Zn1   S    
C1    O2    A    
O3    Zn1   S    
C34   C35   A    
C31   H23   S    
C12   C16   S    
C8    C9    A    
O8    Zn2   S    
C2    C22   S    
C24   H2    S    
C9    C10   A    
C27   H14   S    
C22   H4    S    
C24   H28   S    
C13   C14   A    
O4    Zn2   S    
C25   H8    S    
C4    O3    A    
C27   H15   S    
C26   H7    S    
C17   C18   T    
C10   N2    A    
C30   H17   S    
N1    Zn2   S    
C16   O7    A    
C13   O9    S    
C6    C11   A    
C14   H12   S    
C25   C26   S    
C12   C21   T    
C35   C36   A    
C23   C31   A    
O6    Zn2   S    
C28   H13   S    
C31   C32   A    
N2    Zn1   S    
C5    C34   A    
C33   C34   A    
C14   N2    A    
C4    C17   S    
C29   H21   S    
C24   H27   S    
C23   C35   A    
O7    Zn1   S    
C22   C24   S    
C8    H1    S    
C32   H24   S    
C25   H9    S    
C26   H6    S    
C2    C36   A    
O2    Zn2   S    
C3    C5    A    
C6    C7    A    
C29   H20   S    
C15   O5    A    
C30   H19   S    
C32   C33   A    
C6    H26   S    
C3    C27   S    
C2    C3    A    
C22   H3    S    
C1    O1    A    
C5    C15   S    
C10   C11   A    
C20   C21   S    
C1    C36   S    
C33   H25   S    
C27   C28   S    
O1    Zn1   S    
C11   N1    A    
C26   H5    S    
