data_mof_unit_8977.cif
_audit_creation_date              2012-12-10T17:47:43-0500
_audit_creation_method            fapswitch 2.2
_symmetry_space_group_name_H-M    P1
_symmetry_Int_Tables_number       1
_space_group_crystal_system       triclinic
_cell_length_a                    10.691758
_cell_length_b                    10.655038
_cell_length_c                    9.896578
_cell_angle_alpha                 91.310049
_cell_angle_beta                  90.887499
_cell_angle_gamma                 91.980875
_cell_volume                      1126.3111518

loop_
_atom_site_label
_atom_site_type_symbol
_atom_type_description
_atom_site_fract_x
_atom_site_fract_y
_atom_site_fract_z
_atom_type_partial_charge
C1    C     C_R   0.512277 0.260819 0.499171 0.926102
C2    C     C_3   0.877224 0.499063 0.503419 0.134483
C3    C     C_3   0.928568 0.618827 0.433649 -0.439540
C4    C     C_3   0.918070 0.378701 0.428476 -0.469816
C5    C     C_R   0.610920 0.122638 0.732487 -0.156225
C6    C     C_R   0.606700 0.068253 0.858920 -0.170158
C7    C     C_R   0.532662 0.960272 0.876476 -0.190611
C8    C     C_R   0.473469 0.899035 0.765136 0.204893
C9    C     C_R   0.495408 0.943218 0.632207 0.049486
C10   C     C_R   0.545648 0.065210 0.620691 0.054842
C11   C     C_R   0.524058 0.127244 0.498474 -0.098640
C12   C     C_R   0.257275 0.500037 0.499033 0.946783
C13   C     C_R   0.487325 0.060512 0.380994 -0.218785
C14   C     C_R   0.465875 0.933518 0.385625 -0.147361
C15   C     C_R   0.473400 0.873252 0.509360 -0.050120
C16   C     C_R   0.360528 0.312796 0.131648 -0.257511
C17   C     C_R   0.298471 0.215299 0.057326 -0.007173
C18   C     C_R   0.291812 0.222073 0.917224 -0.121321
C19   C     C_R   0.350928 0.321374 0.852576 -0.180954
C20   C     C_R   0.427992 0.410662 0.924048 0.169388
C21   C     C_R   0.430341 0.408659 0.068381 0.188785
C22   C     C_R   0.568532 0.586036 0.074911 -0.093665
C23   C     C_R   0.487941 0.739514 0.502392 0.899042
C24   C     C_R   0.569602 0.585107 0.931684 -0.093759
C25   C     C_R   0.741791 0.500187 0.501344 0.844123
C26   C     C_3   0.071303 0.480748 0.645481 -0.419084
C27   C     C_3   0.930396 0.496972 0.649915 -0.415871
C28   C     C_3   0.072740 0.626717 0.444940 -0.195982
C29   C     C_3   0.060420 0.387365 0.403611 0.121212
C30   C     C_3   0.119527 0.498358 0.497767 0.034991
H1    H     H_    0.117064 0.549246 0.718635 0.208183
H2    H     H_    0.864917 0.362752 0.331801 0.203343
H3    H     H_    0.110571 0.643863 0.342805 0.216763
H4    H     H_    0.899825 0.615896 0.324991 0.213453
H5    H     H_    0.474585 0.106239 0.285464 0.153668
H6    H     H_    0.664970 0.209699 0.722761 0.152984
H7    H     H_    0.653848 0.114504 0.944932 0.157393
H8    H     H_    0.517529 0.926812 0.977625 0.157104
H9    H     H_    0.444852 0.882359 0.291610 0.177010
H10   H     H_    0.624326 0.656405 0.131407 0.144565
H11   H     H_    0.093242 0.385780 0.681516 0.225490
H12   H     H_    0.344921 0.315836 0.237595 0.222080
H13   H     H_    0.238262 0.152123 0.857366 0.210192
H14   H     H_    0.332624 0.325748 0.746901 0.240180
H15   H     H_    0.626191 0.654783 0.880403 0.147667
H16   H     H_    0.887059 0.418158 0.706948 0.195435
H17   H     H_    0.909947 0.586128 0.704887 0.189520
H18   H     H_    0.886338 0.703825 0.479221 0.151285
H19   H     H_    0.892380 0.296224 0.491082 0.146119
N1    N     N_R   0.498810 0.498800 0.142780 -0.114324
N2    N     N_R   0.498760 0.498720 0.857170 -0.116928
O1    O     O_R   0.500000 0.316780 0.614690 -0.636007
O2    O     O_R   0.499990 0.316750 0.385360 -0.647510
O3    O     O_R   0.314800 0.499990 0.614670 -0.626729
O4    O     O_R   0.314790 0.499970 0.385330 -0.610537
O5    O     O_R   0.500010 0.683250 0.614640 -0.612366
O6    O     O_R   0.500000 0.683220 0.385310 -0.623829
O7    O     O_R   0.685210 0.500030 0.614670 -0.639200
O8    O     O_R   0.685200 0.500010 0.385330 -0.623851
Zn1   Zn    Zn3+2 0.500010 0.500020 0.653130 0.955456
Zn2   Zn    Zn3+2 0.499990 0.499980 0.346870 0.960539
I1    I     I_    0.319401 0.778557 0.816405 -0.313894
C31   C     C_2   0.235884 0.110219 0.127949 0.407095
H20   H     H_    0.244392 0.104535 0.236886 0.087784
O9    O     O_2   0.175253 0.028105 0.065519 -0.536892
C32   C     C_2   0.114882 0.739171 0.531891 0.401485
H21   H     H_    0.081103 0.750052 0.634066 0.110496
O10   O     O_2   0.183519 0.821202 0.486328 -0.558958
I2    I     I_    0.078023 0.420837 0.187933 -0.450226
C33   C     C_2   0.113382 0.258826 0.426476 0.323532
H22   H     H_    0.073049 0.178438 0.369962 0.112761
O11   O     O_2   0.198316 0.242154 0.507225 -0.607887

loop_
_geom_bond_atom_site_label_1
_geom_bond_atom_site_label_2
_ccdc_geom_bond_type
C4    C29   S    
C32   O10   D    
C31   O9    D    
O6    Zn2   S    
C16   C21   A    
C13   C14   A    
C4    H2    S    
C18   C19   A    
C9    C10   A    
C6    C7    A    
C28   C32   S    
C19   C20   A    
C1    C11   S    
C4    H19   S    
C22   N1    A    
C2    C27   S    
C22   H10   S    
C24   N2    A    
C15   C23   S    
C17   C18   A    
C9    C15   A    
C6    H7    S    
C23   O5    A    
O3    Zn1   S    
C18   H13   S    
C19   H14   S    
C11   C13   A    
C26   C27   S    
C29   C30   S    
O2    Zn2   S    
C12   O3    A    
C2    C4    S    
O4    Zn2   S    
C27   H16   S    
C28   C30   S    
C21   N1    A    
C16   C17   A    
C7    H8    S    
C28   H3    S    
C26   C30   S    
C2    C25   S    
C29   I2    S    
C5    C6    A    
C1    O1    A    
C22   C24   A    
O8    Zn2   S    
C12   O4    A    
C7    C8    A    
C25   O7    A    
C24   H15   S    
O7    Zn1   S    
C31   H20   S    
C5    H6    S    
C16   H12   S    
C3    H18   S    
C5    C10   A    
C33   H22   S    
C32   H21   S    
C20   C21   A    
O1    Zn1   S    
C29   C33   S    
C10   C11   A    
C27   H17   S    
C23   O6    A    
N1    Zn2   S    
C1    O2    A    
C20   N2    A    
C3    C28   S    
C2    C3    S    
N2    Zn1   S    
C25   O8    A    
C3    H4    S    
C12   C30   S    
C14   H9    S    
C14   C15   A    
C26   H1    S    
C33   O11   D    
C13   H5    S    
C17   C31   S    
O5    Zn1   S    
C26   H11   S    
C8    I1    S    
C8    C9    A    
