data_mof_unit_12148.cif
_audit_creation_date              2012-12-10T20:40:55-0500
_audit_creation_method            fapswitch 2.2
_symmetry_space_group_name_H-M    P1
_symmetry_Int_Tables_number       1
_space_group_crystal_system       triclinic
_cell_length_a                    27.734358
_cell_length_b                    10.669682
_cell_length_c                    9.839698
_cell_angle_alpha                 89.96373
_cell_angle_beta                  89.615781
_cell_angle_gamma                 89.920049
_cell_volume                      2911.66288211

loop_
_atom_site_label
_atom_site_type_symbol
_atom_type_description
_atom_site_fract_x
_atom_site_fract_y
_atom_site_fract_z
_atom_type_partial_charge
C1    C     C_R   0.501378 0.259873 0.500031 0.900110
C2    C     C_R   0.278703 0.452913 0.627394 0.153397
C3    C     C_R   0.253152 0.478984 0.507116 0.287488
C4    C     C_R   0.101909 0.479684 0.508325 -0.050592
C5    C     C_R   0.127493 0.371663 0.467906 -0.022292
C6    C     C_R   0.102377 0.264991 0.427716 -0.140484
C7    C     C_R   0.127570 0.587382 0.547704 -0.019010
C8    C     C_R   0.353396 0.491713 0.501993 -0.058040
C9    C     C_R   0.646401 0.504740 0.498868 -0.057868
C10   C     C_R   0.974378 0.369295 0.477077 0.045820
C11   C     C_R   0.974663 0.593458 0.540902 0.046543
C12   C     C_R   0.406011 0.498497 0.500407 0.896222
C13   C     C_R   0.949295 0.481907 0.508524 0.071025
C14   C     C_R   0.947219 0.259494 0.452360 -0.216394
C15   C     C_R   0.897235 0.261710 0.452246 -0.135791
C16   C     C_R   0.872361 0.372950 0.477982 -0.021774
C17   C     C_R   0.898192 0.483128 0.507176 -0.051394
C18   C     C_R   0.872786 0.594655 0.534743 -0.023123
C19   C     C_R   0.822407 0.594019 0.532624 0.508151
C20   C     C_R   0.821921 0.376751 0.475353 0.505062
C21   C     C_R   0.720101 0.423428 0.595519 -0.090064
C22   C     C_R   0.670185 0.430696 0.595468 -0.254860
C23   C     C_R   0.501496 0.740096 0.499941 0.916577
C24   C     C_R   0.673392 0.574417 0.401983 -0.029984
C25   C     C_R   0.723523 0.562807 0.400989 -0.191684
C26   C     C_R   0.746773 0.489065 0.498148 0.314048
C27   C     C_R   0.025482 0.369862 0.471834 0.045481
C28   C     C_R   0.050807 0.480184 0.509006 0.069581
C29   C     C_R   0.025683 0.591132 0.546612 0.045758
C30   C     C_R   0.052389 0.263945 0.429129 -0.216906
C31   C     C_R   0.102626 0.694357 0.589099 -0.139487
C32   C     C_R   0.947900 0.704350 0.565150 -0.216266
C33   C     C_R   0.897984 0.704491 0.562731 -0.136975
C34   C     C_R   0.593851 0.503097 0.499539 0.930086
C35   C     C_R   0.052697 0.696272 0.589339 -0.217617
C36   C     C_R   0.508483 0.063767 0.623331 0.142922
C37   C     C_R   0.508962 0.128498 0.500498 -0.101759
C38   C     C_R   0.518667 0.064793 0.378676 -0.219978
C39   C     C_R   0.518812 0.935247 0.378677 -0.156349
C40   C     C_R   0.509202 0.871380 0.500469 -0.093528
C41   C     C_R   0.508648 0.935969 0.623339 0.130133
C42   C     C_3   0.473850 0.928595 0.739824 -0.476001
C43   C     C_3   0.473574 0.070648 0.739578 -0.488622
C44   C     C_R   0.477348 0.406421 0.072075 0.114103
C45   C     C_R   0.177938 0.373337 0.468050 0.493309
C46   C     C_R   0.525952 0.585679 0.071472 -0.119797
C47   C     C_R   0.525982 0.585641 0.927337 -0.128900
C48   C     C_R   0.477143 0.406809 0.929119 0.211035
C49   C     C_3   0.424576 0.377553 0.925283 -0.615180
C50   C     C_3   0.424982 0.375951 0.079743 -0.226703
C51   C     C_R   0.177943 0.585157 0.545705 0.488459
C52   C     C_R   0.277346 0.509252 0.386435 -0.123009
C53   C     C_R   0.327246 0.515737 0.383676 -0.174172
C54   C     C_R   0.329156 0.459164 0.622457 -0.218010
H1    H     H_    0.350024 0.437899 0.711290 0.147919
H2    H     H_    0.257195 0.529338 0.295042 0.139192
H3    H     H_    0.121628 0.777529 0.622058 0.191845
H4    H     H_    0.964265 0.794013 0.583857 0.140185
H5    H     H_    0.879203 0.791849 0.582220 0.191377
H6    H     H_    0.744981 0.614883 0.327838 0.141206
H7    H     H_    0.036527 0.781609 0.626041 0.142410
H8    H     H_    0.522774 0.113909 0.282893 0.164916
H9    H     H_    0.523029 0.886241 0.282917 0.177654
H10   H     H_    0.438647 0.886875 0.710918 0.211134
H11   H     H_    0.490592 0.887762 0.832199 0.203930
H12   H     H_    0.438239 0.111494 0.710058 0.207784
H13   H     H_    0.490026 0.111998 0.831981 0.199692
H14   H     H_    0.546086 0.656375 0.125530 0.175274
H15   H     H_    0.546176 0.656232 0.872358 0.152135
H16   H     H_    0.403309 0.457113 0.884459 0.213060
H17   H     H_    0.417178 0.285504 0.876946 0.192218
H18   H     H_    0.403007 0.452180 0.126059 0.188405
H19   H     H_    0.121289 0.181413 0.394444 0.191917
H20   H     H_    0.650026 0.377155 0.670204 0.165507
H21   H     H_    0.738147 0.367222 0.671513 0.151122
H22   H     H_    0.878134 0.175279 0.431866 0.191485
H23   H     H_    0.963331 0.169111 0.434636 0.140244
H24   H     H_    0.036065 0.178787 0.393391 0.142515
H25   H     H_    0.345232 0.541010 0.289655 0.153217
N1    N     N_R   0.201795 0.478874 0.507322 -0.359494
N2    N     N_R   0.798181 0.486335 0.502134 -0.352496
N3    N     N_R   0.499670 0.499140 0.142800 -0.112916
N4    N     N_R   0.499670 0.499180 0.857150 -0.098688
O1    O     O_R   0.500010 0.316790 0.614690 -0.620798
O2    O     O_2   0.796759 0.272352 0.445005 -0.554215
O3    O     O_2   0.203056 0.688030 0.581978 -0.557787
O4    O     O_2   0.797695 0.699913 0.561644 -0.552178
O5    O     O_R   0.500000 0.316760 0.385350 -0.622535
O6    O     O_R   0.428760 0.500040 0.614660 -0.627897
O7    O     O_R   0.428750 0.500000 0.385310 -0.613999
O8    O     O_R   0.500000 0.683240 0.614650 -0.627147
O9    O     O_R   0.499990 0.683210 0.385310 -0.612010
O10   O     O_R   0.571250 0.500000 0.614690 -0.629637
O11   O     O_R   0.571240 0.499960 0.385340 -0.590897
O12   O     O_2   0.203046 0.270647 0.429755 -0.549391
Zn1   Zn    Zn3+2 0.500000 0.500020 0.653130 0.954074
Zn2   Zn    Zn3+2 0.500000 0.499980 0.346870 0.979604
C55   C     C_2   0.651807 0.665299 0.305627 0.403053
H26   H     H_    0.670921 0.688968 0.212463 0.062782
O13   O     O_2   0.614199 0.719915 0.331990 -0.586763
C56   C     C_3   0.251010 0.419545 0.756838 -0.412790
C57   C     C_3   0.281960 0.394132 0.883211 -0.385707
C58   C     C_3   0.250612 0.364244 0.007138 -0.795776
H27   H     H_    0.226500 0.444543 0.031250 0.252240
H28   H     H_    0.228437 0.279539 0.988001 0.269380
H29   H     H_    0.273996 0.346110 0.096253 0.271959
H30   H     H_    0.306289 0.313056 0.863939 0.236799
H31   H     H_    0.304023 0.478160 0.906924 0.225907
H32   H     H_    0.225992 0.497966 0.781089 0.222673
H33   H     H_    0.228905 0.334899 0.736195 0.218373
C59   C     C_2   0.416272 0.248698 0.140330 0.484909
H34   H     H_    0.436175 0.167681 0.103466 0.042138
O14   O     O_2   0.386823 0.235681 0.231930 -0.559812

loop_
_geom_bond_atom_site_label_1
_geom_bond_atom_site_label_2
_ccdc_geom_bond_type
C10   C27   A    
C44   C48   A    
C21   C26   A    
C56   C57   S    
C41   C42   S    
C59   H34   S    
C34   O10   A    
C32   H4    S    
C1    O1    A    
C28   C29   A    
C24   C55   S    
C12   O7    A    
C36   C37   A    
C53   H25   S    
C44   N3    A    
C5    C6    A    
C9    C22   A    
C56   H32   S    
C15   C16   A    
C18   C19   A    
O1    Zn1   S    
C14   H23   S    
C50   H18   S    
C51   N1    A    
C47   H15   S    
C20   N2    A    
O8    Zn1   S    
C46   C47   A    
C16   C17   A    
C42   H11   S    
C57   H31   S    
C25   H6    S    
C47   N4    A    
C58   H29   S    
O7    Zn2   S    
O5    Zn2   S    
C16   C20   A    
C1    O5    A    
C15   H22   S    
C33   H5    S    
C46   N3    A    
C21   C22   A    
C27   C30   A    
C36   C41   A    
C4    C7    A    
C3    N1    S    
C51   O3    S    
C4    C28   A    
O9    Zn2   S    
C7    C31   A    
C12   O6    A    
C24   C25   A    
C58   H28   S    
C10   C14   A    
C8    C54   A    
C39   C40   A    
O11   Zn2   S    
C56   H33   S    
C5    C45   A    
C46   H14   S    
C37   C38   A    
C8    C12   S    
C20   O2    S    
C17   C18   A    
C57   H30   S    
C59   O14   D    
C48   C49   S    
C6    C30   A    
C11   C32   A    
C55   H26   S    
C26   N2    S    
C55   O13   D    
C49   H16   S    
C2    C54   A    
C9    C34   S    
N3    Zn2   S    
C31   C35   A    
C42   C43   S    
C22   H20   S    
C45   O12   S    
C42   H10   S    
C58   H27   S    
C52   C53   A    
C6    H19   S    
C44   C50   S    
C29   C35   A    
C54   H1    S    
C40   C41   A    
C14   C15   A    
C34   O11   A    
C4    C5    A    
C10   C13   A    
C8    C53   A    
C3    C52   A    
C9    C24   A    
C1    C37   S    
O10   Zn1   S    
C39   H9    S    
C21   H21   S    
C19   O4    S    
C2    C56   S    
C48   N4    A    
C13   C17   A    
C32   C33   A    
C31   H3    S    
O6    Zn1   S    
C2    C3    A    
C25   C26   A    
C7    C51   A    
C11   C13   A    
C38   C39   A    
C35   H7    S    
C43   H12   S    
N4    Zn1   S    
C50   C59   S    
C45   N1    A    
C23   O8    A    
C57   C58   S    
C18   C33   A    
C30   H24   S    
C52   H2    S    
C11   C29   A    
C43   H13   S    
C49   C50   S    
C49   H17   S    
C27   C28   A    
C23   O9    A    
C36   C43   S    
C19   N2    A    
C23   C40   S    
C38   H8    S    
