data_mof_unit_46215.cif
_audit_creation_date              2012-12-10T18:13:34-0500
_audit_creation_method            fapswitch 2.2
_symmetry_space_group_name_H-M    P1
_symmetry_Int_Tables_number       1
_space_group_crystal_system       triclinic
_cell_length_a                    12.784226
_cell_length_b                    13.077194
_cell_length_c                    16.457581
_cell_angle_alpha                 88.159798
_cell_angle_beta                  98.19102
_cell_angle_gamma                 98.794126
_cell_volume                      2691.1742852

loop_
_atom_site_label
_atom_site_type_symbol
_atom_type_description
_atom_site_fract_x
_atom_site_fract_y
_atom_site_fract_z
_atom_type_partial_charge
C1    C     C_R   0.559625 0.690665 0.516728 0.829502
C2    C     C_R   0.496115 0.538371 0.737886 -0.169838
C3    C     C_R   0.274684 0.052751 0.524891 -0.223500
C4    C     C_R   0.513952 0.501210 0.348848 0.836599
C5    C     C_R   0.401129 0.197698 0.488765 -0.058265
C6    C     C_R   0.702936 0.846756 0.540028 0.047702
C7    C     C_R   0.718018 0.939641 0.495163 -0.195020
C8    C     C_R   0.633928 0.996183 0.475121 -0.219930
C9    C     C_R   0.534821 0.964194 0.504408 0.084193
C10   C     C_R   0.517198 0.864688 0.538756 0.060693
C11   C     C_R   0.453677 0.027155 0.501419 0.071390
C12   C     C_R   0.608663 0.488640 0.226849 -0.003640
C13   C     C_R   0.352691 0.987004 0.526447 0.117472
C14   C     C_R   0.335962 0.885108 0.558296 -0.037983
C15   C     C_R   0.421253 0.829177 0.569608 -0.227361
C16   C     C_R   0.439611 0.308553 0.490347 0.874715
C17   C     C_R   0.474424 0.131917 0.481270 -0.264894
C18   C     C_R   0.298658 0.157285 0.505561 -0.200304
C19   C     C_R   0.595598 0.800145 0.539587 -0.184623
C20   C     C_R   0.886001 0.327313 0.598701 -0.279083
C21   C     C_R   0.211756 0.626345 0.399586 0.035594
C22   C     C_R   0.109393 0.641553 0.366831 -0.304402
C23   C     C_R   0.613771 0.612069 0.857409 -0.153673
C24   C     C_R   0.022525 0.585922 0.398567 -0.119521
C25   C     C_R   0.037262 0.517448 0.466185 -0.037299
C26   C     C_R   0.142405 0.496012 0.492096 0.181170
C27   C     C_R   0.951798 0.467185 0.507236 -0.049836
C28   C     C_R   0.488906 0.506514 0.651764 0.846493
C29   C     C_R   0.968246 0.381987 0.560191 0.062545
C30   C     C_R   0.067869 0.353805 0.577723 -0.370243
C31   C     C_R   0.155571 0.412537 0.549144 0.444026
C32   C     C_R   0.851498 0.500131 0.501361 0.508605
C33   C     C_R   0.787983 0.360321 0.587568 -0.057770
C34   C     C_R   0.598428 0.560965 0.783178 -0.278118
C35   C     C_R   0.530929 0.528959 0.264362 -0.079534
C36   C     C_R   0.484327 0.612469 0.227428 -0.217789
C37   C     C_R   0.514597 0.656370 0.154802 -0.158301
C38   C     C_R   0.590844 0.616172 0.116989 0.181936
C39   C     C_R   0.638526 0.533644 0.153943 -0.218454
C40   C     C_R   0.231048 0.831456 0.577636 0.111294
C41   C     C_R   0.139842 0.826152 0.518224 -0.196743
C42   C     C_R   0.044473 0.765043 0.532130 -0.092995
C43   C     C_R   0.040321 0.705070 0.603673 -0.067529
C44   C     C_R   0.130073 0.710002 0.663354 -0.117464
C45   C     C_R   0.407344 0.564894 0.771079 0.421127
C46   C     C_R   0.224696 0.773688 0.650981 -0.129045
C47   C     C_R   0.788999 0.823049 0.607755 0.139253
C48   C     C_R   0.888261 0.889447 0.622937 -0.162463
C49   C     C_R   0.959953 0.878852 0.694086 -0.116404
C50   C     C_R   0.936252 0.800434 0.750745 -0.127172
C51   C     C_R   0.840495 0.732743 0.736607 -0.170012
C52   C     C_R   0.766885 0.744557 0.666712 -0.110354
C53   C     C_R   0.658312 0.398675 0.261383 0.141261
C54   C     C_R   0.769710 0.407700 0.282530 -0.136209
C55   C     C_R   0.816226 0.323358 0.316891 -0.133481
C56   C     C_R   0.423845 0.616457 0.845635 -0.198251
C57   C     C_R   0.752064 0.229047 0.328824 -0.112878
C58   C     C_R   0.641268 0.219135 0.306683 -0.147521
C59   C     C_R   0.594324 0.303794 0.273775 -0.133634
C60   C     C_R   0.526126 0.637932 0.890471 0.125475
C61   C     C_2   0.612816 0.647851 0.033918 -0.218502
C62   C     C_2   0.534159 0.670793 0.976326 -0.203939
H1    H     H_    0.427640 0.647062 0.256631 0.152161
H2    H     H_    0.668202 0.542152 0.760065 0.175249
H3    H     H_    0.079016 0.288535 0.618815 0.145378
H4    H     H_    0.897903 0.260632 0.637880 0.153875
H5    H     H_    0.279716 0.667834 0.374121 0.129888
H6    H     H_    0.944977 0.595577 0.366914 0.195235
H7    H     H_    0.097196 0.695091 0.316043 0.146867
H8    H     H_    0.461280 0.689368 0.995042 0.141232
H9    H     H_    0.695987 0.501040 0.123985 0.127910
H10   H     H_    0.694621 0.630189 0.888291 0.128394
H11   H     H_    0.684483 0.625354 0.016446 0.141730
H12   H     H_    0.354943 0.634132 0.870930 0.141800
H13   H     H_    0.478520 0.721849 0.128745 0.126703
H14   H     H_    0.143171 0.867174 0.460216 0.135134
H15   H     H_    0.974353 0.762690 0.486519 0.181909
H16   H     H_    0.966863 0.656427 0.613760 0.161171
H17   H     H_    0.126221 0.664609 0.719293 0.160633
H18   H     H_    0.293739 0.775985 0.697791 0.140257
H19   H     H_    0.911398 0.952120 0.581965 0.113075
H20   H     H_    0.034763 0.931076 0.704786 0.129422
H21   H     H_    0.992435 0.791734 0.805367 0.124499
H22   H     H_    0.822542 0.672273 0.781017 0.125904
H23   H     H_    0.239374 0.207064 0.509150 0.172263
H24   H     H_    0.691119 0.694419 0.661351 0.140758
H25   H     H_    0.758066 0.588990 0.444569 0.386713
H26   H     H_    0.248696 0.328702 0.618258 0.293804
H27   H     H_    0.296701 0.468766 0.713108 0.353977
H28   H     H_    0.820114 0.480274 0.273246 0.118030
H29   H     H_    0.901990 0.331057 0.334045 0.130739
H30   H     H_    0.788267 0.163593 0.354840 0.119681
H31   H     H_    0.591495 0.145886 0.314786 0.125011
H32   H     H_    0.508344 0.295314 0.257434 0.108904
H33   H     H_    0.197685 0.026263 0.544274 0.141913
H34   H     H_    0.551504 0.166556 0.466834 0.161101
H35   H     H_    0.651361 0.066625 0.441000 0.132937
H36   H     H_    0.795305 0.972766 0.479440 0.129108
H37   H     H_    0.411438 0.754774 0.600758 0.179577
H38   H     H_    0.722360 0.318557 0.615658 0.156328
N1    N     N_R   0.774070 0.445420 0.541180 -0.146857
N2    N     N_R   0.226730 0.554050 0.459240 -0.103989
O1    O     O_R   0.631480 0.627510 0.519670 -0.622619
O2    O     O_3   0.253335 0.386839 0.577990 -0.733739
O3    O     O_3   0.303582 0.539721 0.734102 -0.777176
O4    O     O_R   0.455770 0.662400 0.493360 -0.612510
O5    O     O_R   0.598240 0.480510 0.398910 -0.615641
O6    O     O_R   0.422540 0.515400 0.372600 -0.619089
O7    O     O_R   0.544230 0.337600 0.506640 -0.617122
O8    O     O_R   0.368520 0.372490 0.480330 -0.547919
O9    O     O_R   0.577460 0.484600 0.627400 -0.624843
O10   O     O_R   0.401760 0.519490 0.601090 -0.519623
O11   O     O_3   0.834868 0.591739 0.462322 -0.843485
Zn1   Zn    Zn3+2 0.617320 0.476700 0.517570 0.936986
Zn2   Zn    Zn3+2 0.382680 0.523300 0.482430 0.981286

loop_
_geom_bond_atom_site_label_1
_geom_bond_atom_site_label_2
_ccdc_geom_bond_type
C57   H30   S    
C27   C29   A    
C41   C42   A    
C35   C36   A    
C43   C44   A    
C53   C59   A    
C16   O8    A    
C7    C8    A    
C53   C54   A    
C28   O10   A    
C43   H16   S    
C40   C46   A    
C6    C19   A    
C4    O6    A    
C37   C38   A    
C33   N1    A    
O6    Zn2   S    
C20   H4    S    
C36   C37   A    
C7    H36   S    
C58   H31   S    
C54   H28   S    
C10   C15   A    
C30   C31   A    
C5    C17   A    
C48   H19   S    
C62   H8    S    
C3    C18   A    
C60   C62   S    
C5    C16   S    
C55   H29   S    
N2    Zn2   S    
C45   C56   A    
C45   O3    S    
C8    C9    A    
C50   H21   S    
C59   H32   S    
C32   O11   S    
C36   H1    S    
C9    C10   A    
C1    O1    A    
C22   H7    S    
C12   C53   S    
C3    C13   A    
C1    O4    A    
C38   C61   S    
C2    C34   A    
C37   H13   S    
C4    C35   S    
C26   C31   A    
C28   O9    A    
C13   C14   A    
C21   H5    S    
N1    Zn1   S    
H26   O2    S    
C44   C46   A    
C16   O7    A    
C20   C29   A    
C2    C45   A    
C23   C60   A    
C4    O5    A    
C1    C19   S    
C18   H23   S    
C56   H12   S    
C6    C47   S    
C51   C52   A    
O1    Zn1   S    
C24   C25   A    
C5    C18   A    
C61   H11   S    
C25   C26   A    
C56   C60   A    
C49   H20   S    
C8    H35   S    
O5    Zn1   S    
C29   C30   A    
C47   C48   A    
C10   C19   A    
C23   C34   A    
C34   H2    S    
C50   C51   A    
C17   H34   S    
C12   C35   A    
C9    C11   A    
C47   C52   A    
O7    Zn1   S    
C20   C33   A    
C40   C41   A    
C55   C57   A    
C22   C24   A    
C42   C43   A    
C21   N2    A    
C54   C55   A    
C11   C17   A    
C27   C32   A    
C14   C15   A    
C23   H10   S    
C44   H17   S    
C15   H37   S    
C3    H33   S    
C6    C7    A    
C25   C27   A    
O4    Zn2   S    
C33   H38   S    
C31   O2    S    
C12   C39   A    
C52   H24   S    
C58   C59   A    
C26   N2    A    
C41   H14   S    
C46   H18   S    
C11   C13   A    
C57   C58   A    
C38   C39   A    
C48   C49   A    
O8    Zn2   S    
O9    Zn1   S    
C61   C62   D    
H25   O11   S    
C30   H3    S    
C24   H6    S    
C14   C40   S    
C42   H15   S    
C49   C50   A    
H27   O3    S    
C39   H9    S    
C32   N1    A    
C2    C28   S    
C21   C22   A    
C51   H22   S    
O10   Zn2   S    
