data_mof_unit_39249.cif
_audit_creation_date              2012-12-10T18:59:11-0500
_audit_creation_method            fapswitch 2.2
_symmetry_space_group_name_H-M    P1
_symmetry_Int_Tables_number       1
_space_group_crystal_system       triclinic
_cell_length_a                    9.810398
_cell_length_b                    10.720316
_cell_length_c                    16.893348
_cell_angle_alpha                 89.307636
_cell_angle_beta                  95.379977
_cell_angle_gamma                 90.217513
_cell_volume                      1768.72084722

loop_
_atom_site_label
_atom_site_type_symbol
_atom_type_description
_atom_site_fract_x
_atom_site_fract_y
_atom_site_fract_z
_atom_type_partial_charge
C1    C     C_R   0.499794 0.259775 0.500016 0.867064
C2    C     C_R   0.500189 0.740224 0.499874 0.867098
C3    C     C_R   0.379355 0.935418 0.511769 -0.211404
C4    C     C_R   0.620527 0.064589 0.487724 -0.211600
C5    C     C_R   0.500193 0.872618 0.499797 -0.015579
C6    C     C_R   0.499727 0.127382 0.499805 -0.015318
C7    C     C_R   0.066012 0.587972 0.457711 -0.321389
C8    C     C_R   0.933910 0.411938 0.542239 -0.341556
C9    C     C_R   0.920571 0.587240 0.456187 0.547007
C10   C     C_R   0.079481 0.412123 0.543428 0.553783
C11   C     C_R   0.519308 0.500896 0.653708 0.887314
C12   C     C_R   0.480842 0.498150 0.346452 0.902343
C13   C     C_R   0.532575 0.508187 0.740507 -0.153047
C14   C     C_R   0.467280 0.480061 0.260578 -0.112311
C15   C     C_R   0.411131 0.512674 0.777993 -0.271622
C16   C     C_R   0.586860 0.457218 0.223899 -0.289919
C17   C     C_R   0.415108 0.513013 0.859590 -0.245300
C18   C     C_R   0.580659 0.440132 0.143071 -0.241813
C19   C     C_R   0.541403 0.510996 0.905875 0.175284
C20   C     C_R   0.454066 0.444916 0.097096 0.192612
C21   C     C_R   0.663801 0.518832 0.869850 0.475129
C22   C     C_R   0.332153 0.454501 0.133551 0.419713
C23   C     C_R   0.661082 0.512852 0.787132 -0.021964
C24   C     C_R   0.338224 0.477629 0.215291 -0.008853
C25   C     C_R   0.379118 0.063149 0.511720 -0.190363
C26   C     C_R   0.620738 0.936840 0.487701 -0.190470
H1    H     H_    0.686465 0.454278 0.257398 0.185355
H2    H     H_    0.311607 0.513572 0.744400 0.189816
H3    H     H_    0.675270 0.426944 0.115916 0.181807
H4    H     H_    0.319187 0.513572 0.886582 0.187430
H5    H     H_    0.285200 0.111085 0.521342 0.197388
H6    H     H_    0.714595 0.888870 0.477952 0.196008
H7    H     H_    0.285535 0.886286 0.521520 0.161159
H8    H     H_    0.714338 0.113743 0.477983 0.161433
H9    H     H_    0.118065 0.659019 0.425953 0.164082
H10   H     H_    0.881400 0.340961 0.573744 0.157640
N1    N     N_2   0.548683 0.501894 0.989142 -0.162045
N2    N     N_2   0.447041 0.449569 0.013720 -0.166486
N3    N     N_R   0.857210 0.499970 0.500020 -0.122881
N4    N     N_R   0.142790 0.500030 0.499980 -0.122302
O1    O     O_R   0.614620 0.316750 0.500010 -0.637715
O2    O     O_R   0.385380 0.683250 0.499990 -0.637699
O3    O     O_R   0.385290 0.316780 0.500000 -0.570219
O4    O     O_R   0.614710 0.683220 0.500000 -0.572912
O5    O     O_R   0.627460 0.498830 0.616130 -0.636295
O6    O     O_R   0.372540 0.501170 0.383870 -0.593241
O7    O     O_R   0.398130 0.498850 0.616130 -0.591750
O8    O     O_R   0.601870 0.501150 0.383870 -0.601419
Zn1   Zn    Zn3+2 0.653130 0.499980 0.500000 0.970849
Zn2   Zn    Zn3+2 0.346870 0.500020 0.500000 0.989022
O9    O     O_3   0.787748 0.522256 0.916147 -0.604006
C27   C     C_3   0.822203 0.648406 0.931065 0.067968
H11   H     H_    0.742789 0.695032 0.963306 0.139870
H12   H     H_    0.833972 0.700128 0.874468 0.144685
C28   C     C_3   0.957649 0.655160 0.982652 -0.764439
H13   H     H_    0.039806 0.610501 0.952032 0.267987
H14   H     H_    0.985766 0.754194 0.994034 0.194420
H15   H     H_    0.948522 0.607043 0.040500 0.266999
O10   O     O_3   0.207094 0.454568 0.088258 -0.621349
C29   C     C_3   0.168093 0.329494 0.072981 0.044494
H16   H     H_    0.161872 0.275925 0.129506 0.130695
H17   H     H_    0.241731 0.282635 0.036806 0.154010
C30   C     C_3   0.027592 0.326628 0.026572 -0.757498
H18   H     H_    0.031236 0.375615 0.968528 0.279530
H19   H     H_    0.995534 0.228464 0.015423 0.196502
H20   H     H_    0.951118 0.372430 0.060992 0.257357
N5    N     N_3   0.789859 0.511229 0.753350 -0.434398
H21   H     H_    0.797957 0.428517 0.722018 0.198742
H22   H     H_    0.795930 0.588539 0.715543 0.198989
N6    N     N_3   0.214156 0.500399 0.251437 -0.428731
H23   H     H_    0.150436 0.422429 0.242862 0.189251
H24   H     H_    0.164594 0.576794 0.222599 0.197939
O11   O     O_3   0.841012 0.678826 0.416152 -0.591590
C31   C     C_3   0.870162 0.689352 0.335990 0.077827
H25   H     H_    0.877843 0.596123 0.308181 0.127909
H26   H     H_    0.966775 0.742288 0.331444 0.131627
C32   C     C_3   0.755440 0.761598 0.289253 -0.800357
H27   H     H_    0.748765 0.856931 0.313618 0.245096
H28   H     H_    0.775871 0.768947 0.225808 0.204592
H29   H     H_    0.656075 0.713217 0.293172 0.260177
O12   O     O_3   0.159399 0.319109 0.581843 -0.590749
C33   C     C_3   0.125087 0.298068 0.660279 0.065479
H30   H     H_    0.030271 0.241022 0.660109 0.134068
H31   H     H_    0.111681 0.387359 0.691783 0.131472
C34   C     C_3   0.239864 0.224689 0.706154 -0.800647
H32   H     H_    0.338642 0.275009 0.704632 0.262899
H33   H     H_    0.217498 0.212198 0.768998 0.207785
H34   H     H_    0.249178 0.131479 0.679192 0.243537

loop_
_geom_bond_atom_site_label_1
_geom_bond_atom_site_label_2
_ccdc_geom_bond_type
O4    Zn1   S    
C25   H5    S    
C28   H13   S    
C30   H19   S    
C26   H6    S    
C5    C26   A    
O11   C31   S    
C11   O7    A    
C12   O8    A    
O12   C33   S    
C24   N6    S    
C34   H32   S    
C31   H26   S    
C29   C30   S    
C10   N4    A    
C19   C21   A    
C34   H34   S    
C6    C25   A    
C3    H7    S    
C14   C24   A    
C9    N3    A    
C13   C23   A    
C29   H17   S    
C8    H10   S    
C23   N5    S    
C19   N1    S    
C1    O3    A    
C2    O4    A    
C31   C32   S    
C7    N4    A    
N6    H23   S    
C8    N3    A    
C18   C20   A    
C27   C28   S    
C16   H1    S    
C34   H33   S    
C30   H20   S    
O10   C29   S    
C17   H4    S    
C9    O11   S    
O1    Zn1   S    
C27   H12   S    
O7    Zn2   S    
C32   H28   S    
C21   C23   A    
C4    H8    S    
C31   H25   S    
N5    H21   S    
C3    C25   A    
C12   O6    A    
C22   O10   S    
C32   H27   S    
O9    C27   S    
C29   H16   S    
N5    H22   S    
N1    N2    D    
C20   N2    S    
O5    Zn1   S    
C18   H3    S    
O2    Zn2   S    
C1    O1    A    
O8    Zn1   S    
N3    Zn1   S    
C20   C22   A    
C33   H31   S    
C28   H14   S    
C22   C24   A    
C11   O5    A    
C4    C6    A    
C21   O9    S    
C27   H11   S    
C32   H29   S    
C7    C9    A    
C7    H9    S    
C16   C18   A    
C12   C14   S    
C3    C5    A    
C4    C26   A    
O3    Zn2   S    
C15   C17   A    
C33   C34   S    
O6    Zn2   S    
C10   O12   S    
C13   C15   A    
C11   C13   S    
C15   H2    S    
C2    O2    A    
N4    Zn2   S    
C17   C19   A    
C14   C16   A    
C30   H18   S    
C2    C5    S    
C8    C10   A    
C33   H30   S    
C28   H15   S    
C1    C6    S    
N6    H24   S    
