data_mof_unit_18415.cif
_audit_creation_date              2012-12-10T17:03:56-0500
_audit_creation_method            fapswitch 2.2
_symmetry_space_group_name_H-M    P1
_symmetry_Int_Tables_number       1
_space_group_crystal_system       triclinic
_cell_length_a                    9.81278
_cell_length_b                    11.090768
_cell_length_c                    15.873711
_cell_angle_alpha                 95.052618
_cell_angle_beta                  79.076744
_cell_angle_gamma                 111.999553
_cell_volume                      1572.46911755

loop_
_atom_site_label
_atom_site_type_symbol
_atom_type_description
_atom_site_fract_x
_atom_site_fract_y
_atom_site_fract_z
_atom_type_partial_charge
C1    C     C_R   0.557298 0.745867 0.506362 0.816144
C2    C     C_R   0.442700 0.254131 0.493640 0.815883
C3    C     C_R   0.328506 0.499629 0.078054 -0.215540
C4    C     C_R   0.685055 0.564102 0.924616 -0.215886
C5    C     C_R   0.228262 0.484860 0.023374 -0.231151
C6    C     C_R   0.786042 0.582496 0.979463 -0.232482
C7    C     C_2   0.591935 0.885996 0.510376 -0.191948
C8    C     C_2   0.408056 0.113997 0.489635 -0.192256
C9    C     C_2   0.487635 0.930642 0.498575 -0.202552
C10   C     C_2   0.512286 0.069343 0.501556 -0.202656
C11   C     C_2   0.922921 0.490233 0.492529 -0.062267
C12   C     C_2   0.077080 0.509764 0.507477 -0.061988
C13   C     C_R   0.411345 0.487326 0.662841 0.800525
C14   C     C_R   0.588918 0.513780 0.337203 0.799978
C15   C     C_R   0.360197 0.484580 0.756234 -0.056305
C16   C     C_R   0.642667 0.527749 0.244232 -0.056888
C17   C     C_R   0.169661 0.468621 0.880713 -0.197004
C18   C     C_R   0.841038 0.581629 0.121393 -0.199093
C19   C     C_R   0.212886 0.468742 0.791847 -0.188702
C20   C     C_R   0.794229 0.564215 0.209519 -0.188208
C21   C     C_R   0.463568 0.501179 0.810383 -0.242496
C22   C     C_R   0.538894 0.508556 0.189915 -0.241729
C23   C     C_R   0.424584 0.506661 0.900071 0.087364
C24   C     C_R   0.583577 0.530811 0.101419 0.088050
C25   C     C_R   0.273833 0.486700 0.934892 0.166692
C26   C     C_R   0.737207 0.564882 0.067237 0.167085
C27   C     C_R   0.530305 0.528897 0.955849 0.067333
C28   C     C_R   0.479921 0.518588 0.046088 0.067441
Cu1   Cu    Cu3+1 0.362980 0.479380 0.485080 0.957078
Cu2   Cu    Cu3+1 0.637020 0.520620 0.514920 0.956561
H1    H     H_    0.619738 0.137735 0.513970 0.189478
H2    H     H_    0.380127 0.862244 0.486255 0.189356
H3    H     H_    0.123031 0.577684 0.557512 0.156331
H4    H     H_    0.876968 0.422302 0.442501 0.157209
H5    H     H_    0.110790 0.384499 0.415534 0.196652
H6    H     H_    0.889212 0.615510 0.584461 0.196254
N1    N     N_2   0.842890 0.551600 0.537350 -0.280428
N2    N     N_2   0.157110 0.448400 0.462650 -0.280159
O1    O     O_R   0.426810 0.668300 0.492040 -0.583863
O2    O     O_R   0.573190 0.331700 0.507960 -0.583723
O3    O     O_R   0.658240 0.703130 0.517240 -0.558148
O4    O     O_R   0.341760 0.296870 0.482760 -0.557937
O5    O     O_R   0.319390 0.472820 0.610170 -0.578075
O6    O     O_R   0.680610 0.527180 0.389830 -0.578618
O7    O     O_R   0.550820 0.507640 0.635370 -0.579224
O8    O     O_R   0.449180 0.492360 0.364630 -0.578754
H7    H     H_    0.113530 0.470669 0.050729 0.140264
H8    H     H_    0.903546 0.610240 0.952744 0.140845
H9    H     H_    0.422838 0.473967 0.218222 0.153892
H10   H     H_    0.573782 0.506892 0.780876 0.154894
H11   H     H_    0.876336 0.579639 0.250322 0.157860
H12   H     H_    0.131217 0.455894 0.751205 0.156027
H13   H     H_    0.054625 0.454512 0.907194 0.133699
H14   H     H_    0.958784 0.609395 0.095560 0.131944
H15   H     H_    0.283872 0.499517 0.145455 0.142901
H16   H     H_    0.733422 0.582546 0.858043 0.142443
C29   C     C_1   0.262290 0.027864 0.472699 0.270725
N3    N     N_1   0.146132 0.959147 0.459156 -0.267368
C30   C     C_1   0.737785 0.972135 0.527170 0.271049
N4    N     N_1   0.854014 0.040854 0.540599 -0.266511

loop_
_geom_bond_atom_site_label_1
_geom_bond_atom_site_label_2
_ccdc_geom_bond_type
Cu1   N2    S    
C15   C19   A    
C11   C12   S    
C14   O6    A    
Cu1   Cu2   S    
C14   C16   S    
C23   C27   A    
Cu1   O4    S    
C9    C10   S    
Cu2   O7    S    
C18   C26   A    
C13   C15   S    
C13   O5    A    
Cu1   O8    S    
C16   C20   A    
C17   C25   A    
C7    C9    D    
Cu1   O1    S    
C23   C25   A    
C17   H13   S    
Cu2   O2    S    
C30   N4    T    
C14   O8    A    
C4    H16   S    
C13   O7    A    
C5    H7    S    
Cu2   O6    S    
C29   N3    T    
C6    C26   A    
C6    H8    S    
C2    O4    A    
C22   H9    S    
C5    C25   A    
C19   H12   S    
C1    O3    A    
H6    N1    S    
C17   C19   A    
C24   C26   A    
C20   H11   S    
C18   C20   A    
C21   C23   A    
C12   N2    D    
C8    C29   S    
C22   C24   A    
Cu2   O3    S    
C18   H14   S    
C2    O2    A    
C15   C21   A    
C4    C27   A    
C8    C10   D    
C4    C6    A    
C7    C30   S    
C27   C28   A    
C11   N1    D    
C1    O1    A    
H5    N2    S    
C3    C28   A    
C16   C22   A    
C21   H10   S    
C9    H2    S    
C2    C8    S    
C12   H3    S    
C1    C7    S    
C3    H15   S    
C10   H1    S    
C11   H4    S    
Cu1   O5    S    
C24   C28   A    
Cu2   N1    S    
C3    C5    A    
