data_mof_unit_55124.cif
_audit_creation_date              2012-10-26T19:04:18-0400
_audit_creation_method            fapswitch 2.2
_symmetry_space_group_name_H-M    P1
_symmetry_Int_Tables_number       1
_space_group_crystal_system       triclinic
_cell_length_a                    15.092226
_cell_length_b                    15.725869
_cell_length_c                    9.549751
_cell_angle_alpha                 88.927715
_cell_angle_beta                  90.415607
_cell_angle_gamma                 90.152732
_cell_volume                      2266.05854391

loop_
_atom_site_label
_atom_site_type_symbol
_atom_type_description
_atom_site_fract_x
_atom_site_fract_y
_atom_site_fract_z
_atom_type_partial_charge
C1    C     C_R   0.386405 0.876225 0.501698 0.553471
C2    C     C_R   0.733755 0.201901 0.383541 -0.129121
C3    C     C_R   0.209901 0.278899 0.380141 -0.132646
C4    C     C_R   0.233756 0.701900 0.383541 -0.129121
C5    C     C_R   0.680292 0.808804 0.508018 -0.049252
C6    C     C_R   0.680359 0.190966 0.501299 -0.044897
C7    C     C_R   0.180293 0.308804 0.508018 -0.049252
C8    C     C_R   0.180359 0.690966 0.501299 -0.044897
C9    C     C_R   0.663267 0.003664 0.146036 -0.100384
C10   C     C_R   0.163267 0.503664 0.146036 -0.100384
C11   C     C_R   0.742860 0.006189 0.074234 -0.176119
C12   C     C_R   0.386146 0.123571 0.498694 0.549622
C13   C     C_R   0.242860 0.506189 0.074234 -0.176119
C14   C     C_R   0.742770 0.005715 0.930053 -0.157579
C15   C     C_R   0.242771 0.505715 0.930053 -0.157579
C16   C     C_R   0.663091 0.002682 0.856969 -0.083098
C17   C     C_R   0.163091 0.502682 0.856969 -0.083098
C18   C     C_R   0.580244 0.001867 0.925814 0.142660
C19   C     C_R   0.080244 0.501867 0.925814 0.142660
C20   C     C_R   0.580248 0.002185 0.075701 0.152333
C21   C     C_R   0.080248 0.502185 0.075701 0.152333
C22   C     C_R   0.423885 0.996145 0.073225 -0.023773
C23   C     C_R   0.886405 0.376225 0.501698 0.553471
C24   C     C_R   0.923885 0.496145 0.073225 -0.023773
C25   C     C_R   0.615124 0.122155 0.499835 0.529973
C26   C     C_R   0.615495 0.878050 0.502332 0.527706
C27   C     C_R   0.115124 0.622155 0.499835 0.529973
C28   C     C_R   0.115496 0.378050 0.502332 0.527705
C29   C     C_R   0.423816 0.996933 0.925043 -0.022875
C30   C     C_R   0.923816 0.496932 0.925043 -0.022875
C31   C     C_R   0.357626 0.232442 0.746496 -0.096370
C32   C     C_R   0.311087 0.801446 0.770341 -0.099144
C33   C     C_R   0.857626 0.732442 0.746496 -0.096370
C34   C     C_R   0.886146 0.623571 0.498694 0.549622
C35   C     C_R   0.811088 0.301444 0.770341 -0.099144
C36   C     C_R   0.326664 0.257110 0.876431 -0.124436
C37   C     C_R   0.255778 0.795072 0.886200 -0.125214
C38   C     C_R   0.826663 0.757109 0.876432 -0.124436
C39   C     C_R   0.755779 0.295071 0.886200 -0.125214
C40   C     C_R   0.739833 0.784278 0.889278 -0.125145
C41   C     C_R   0.669403 0.266644 0.870028 -0.117428
C42   C     C_R   0.239834 0.284278 0.889278 -0.125145
C43   C     C_R   0.169402 0.766645 0.870027 -0.117428
C44   C     C_R   0.687267 0.795365 0.769913 -0.103102
C45   C     C_R   0.279035 0.221753 0.372872 0.112683
C46   C     C_R   0.641235 0.237152 0.740707 -0.085950
C47   C     C_R   0.187267 0.295366 0.769913 -0.103102
C48   C     C_R   0.141234 0.737153 0.740707 -0.085950
C49   C     C_R   0.721705 0.780446 0.634601 0.016332
C50   C     C_R   0.699253 0.236283 0.624778 0.015870
C51   C     C_R   0.221706 0.280446 0.634601 0.016332
C52   C     C_R   0.199253 0.736284 0.624778 0.015869
C53   C     C_R   0.302418 0.235954 0.625843 0.001397
C54   C     C_R   0.279940 0.781024 0.634147 0.000117
C55   C     C_R   0.802417 0.735954 0.625843 0.001397
C56   C     C_R   0.304487 0.758063 0.383725 0.103441
C57   C     C_R   0.779941 0.281023 0.634147 0.000117
C58   C     C_R   0.325094 0.197001 0.497358 -0.010752
C59   C     C_R   0.325684 0.802471 0.507618 -0.007231
C60   C     C_R   0.825093 0.697001 0.497358 -0.010752
C61   C     C_R   0.825684 0.302471 0.507617 -0.007231
C62   C     C_3   0.244426 0.130059 0.178735 -0.301717
C63   C     C_3   0.441642 0.724011 0.266077 -0.287916
C64   C     C_3   0.744426 0.630059 0.178735 -0.301717
C65   C     C_3   0.941641 0.224012 0.266074 -0.287915
C66   C     C_R   0.779035 0.721753 0.372872 0.112683
C67   C     C_R   0.804487 0.258063 0.383725 0.103441
C68   C     C_R   0.709901 0.778899 0.380141 -0.132646
Cu1   Cu    Cu3+1 0.499990 0.000000 0.640660 0.895203
Cu2   Cu    Cu3+1 0.999990 0.500000 0.640660 0.895203
Cu3   Cu    Cu3+1 0.500010 0.000000 0.359340 0.903235
Cu4   Cu    Cu3+1 0.000010 0.500000 0.359340 0.903235
H1    H     H_    0.804952 0.006422 0.874140 0.125510
H2    H     H_    0.879056 0.318157 0.792007 0.144007
H3    H     H_    0.369428 0.252722 0.967673 0.119767
H4    H     H_    0.279729 0.813277 0.988242 0.110217
H5    H     H_    0.869427 0.752721 0.967673 0.119768
H6    H     H_    0.779731 0.313275 0.988242 0.110218
H7    H     H_    0.713651 0.798599 0.991421 0.132068
H8    H     H_    0.625074 0.264740 0.958674 0.110299
H9    H     H_    0.213652 0.298599 0.991421 0.132068
H10   H     H_    0.125073 0.764741 0.958673 0.110299
H11   H     H_    0.619315 0.812920 0.787274 0.145331
H12   H     H_    0.304952 0.506422 0.874140 0.125510
H13   H     H_    0.573595 0.216101 0.732790 0.129026
H14   H     H_    0.119315 0.312920 0.787275 0.145331
H15   H     H_    0.073594 0.716101 0.732789 0.129026
H16   H     H_    0.679062 0.800005 0.282669 0.147545
H17   H     H_    0.721265 0.165855 0.289759 0.152756
H18   H     H_    0.179062 0.300005 0.282669 0.147545
H19   H     H_    0.221266 0.665854 0.289759 0.152756
H20   H     H_    0.361795 0.991621 0.128234 0.106663
H21   H     H_    0.861795 0.491621 0.128234 0.106663
H22   H     H_    0.671417 0.002259 0.256365 0.187501
H23   H     H_    0.670879 0.999602 0.746969 0.193776
H24   H     H_    0.171417 0.502259 0.256365 0.187501
H25   H     H_    0.805127 0.007591 0.131264 0.120243
H26   H     H_    0.305127 0.507591 0.131264 0.120243
H27   H     H_    0.368485 0.189547 0.213407 0.273866
H28   H     H_    0.265555 0.115652 0.070682 0.132850
H29   H     H_    0.175092 0.153525 0.173485 0.136754
H30   H     H_    0.246893 0.070959 0.244165 0.156849
H31   H     H_    0.353701 0.822009 0.206846 0.265994
H32   H     H_    0.473009 0.727574 0.161303 0.130135
H33   H     H_    0.434445 0.655939 0.297310 0.141875
H34   H     H_    0.170879 0.499602 0.746969 0.193776
H35   H     H_    0.485491 0.756324 0.342369 0.160816
H36   H     H_    0.868484 0.689547 0.213407 0.273866
H37   H     H_    0.765555 0.615652 0.070683 0.132850
H38   H     H_    0.675092 0.653524 0.173485 0.136754
H39   H     H_    0.746893 0.570958 0.244165 0.156849
H40   H     H_    0.853700 0.322010 0.206846 0.265994
H41   H     H_    0.973007 0.227575 0.161300 0.130135
H42   H     H_    0.934444 0.155940 0.297307 0.141875
H43   H     H_    0.985490 0.256325 0.342366 0.160817
H44   H     H_    0.361424 0.994407 0.868786 0.125145
H45   H     H_    0.861424 0.494407 0.868786 0.125145
H46   H     H_    0.425680 0.212737 0.741685 0.129022
H47   H     H_    0.379055 0.818158 0.792008 0.144007
H48   H     H_    0.925679 0.712736 0.741685 0.129022
N1    N     N_R   0.501200 1.000000 0.147910 -0.243686
N2    N     N_R   0.001200 0.500000 0.147910 -0.243686
N3    N     N_R   0.501270 1.000000 0.852040 -0.254379
N4    N     N_R   0.001270 0.500000 0.852040 -0.254379
N5    N     N_2   0.302232 0.194046 0.236976 -0.522821
N6    N     N_2   0.355620 0.764282 0.259287 -0.520748
N7    N     N_2   0.802232 0.694046 0.236976 -0.522820
N8    N     N_2   0.855619 0.264283 0.259286 -0.520748
O1    O     O_R   0.409820 0.909830 0.618810 -0.515806
O2    O     O_R   0.590170 0.909830 0.618760 -0.533044
O3    O     O_R   0.090170 0.590170 0.618760 -0.528540
O4    O     O_R   0.090170 0.409830 0.618760 -0.533044
O5    O     O_R   0.590190 0.090180 0.381190 -0.526165
O6    O     O_R   0.590190 0.909820 0.381190 -0.530722
O7    O     O_R   0.090190 0.590180 0.381190 -0.526165
O8    O     O_R   0.090190 0.409820 0.381190 -0.530722
O9    O     O_R   0.409820 0.090170 0.618810 -0.508860
O10   O     O_R   0.909820 0.409830 0.618810 -0.515806
O11   O     O_R   0.909820 0.590170 0.618810 -0.508860
O12   O     O_R   0.409840 0.909830 0.381240 -0.499392
O13   O     O_R   0.409840 0.090170 0.381240 -0.493748
O14   O     O_R   0.909840 0.409830 0.381240 -0.499393
O15   O     O_R   0.909840 0.590170 0.381240 -0.493748
O16   O     O_R   0.590170 0.090170 0.618760 -0.528540

loop_
_geom_bond_atom_site_label_1
_geom_bond_atom_site_label_2
_ccdc_geom_bond_type
C44   C49   A    
C33   C55   A    
Cu4   O15   S    
C66   C68   A    
C35   H2    S    
C22   C29   A    
C27   O3    A    
C65   H42   S    
C23   O10   A    
C36   C42   A    
C4    C8    A    
C44   H11   S    
Cu3   O6    S    
H27   N5    S    
C66   N7    S    
Cu1   O16   S    
Cu4   O14   S    
C17   H34   S    
C3    H18   S    
C19   C21   A    
C3    C7    A    
C1    C59   S    
C11   C14   A    
Cu4   O8    S    
C6    C25   S    
Cu1   N3    S    
C34   O11   A    
C13   H26   S    
C12   O13   A    
C21   N2    A    
Cu1   Cu3   S    
H31   N6    S    
C65   N8    S    
C45   N5    S    
Cu1   O2    S    
C41   C46   A    
C23   O14   A    
C56   N6    S    
C63   H33   S    
C25   O5    A    
C43   C48   A    
C8    C52   A    
C40   C44   A    
C26   O2    A    
C18   N3    A    
Cu3   O13   S    
C62   H29   S    
C12   C58   S    
C60   C66   A    
Cu2   O11   S    
C55   C60   A    
C4    C56   A    
C34   C60   S    
C65   H43   S    
C5    C49   A    
C2    C6    A    
C42   H9    S    
C41   H8    S    
C5    C68   A    
C32   C54   A    
C52   C54   A    
C54   C59   A    
C10   C21   A    
Cu1   O9    S    
C34   O15   A    
C19   N4    A    
C48   H15   S    
C14   H1    S    
C39   C41   A    
C2    C67   A    
C64   H39   S    
C47   C51   A    
C49   C55   A    
C3    C45   A    
C31   C53   A    
C7    C28   S    
C28   O4    A    
C37   C43   A    
C2    H17   S    
C35   C39   A    
C47   H14   S    
C31   H46   S    
C26   O6    A    
C36   H3    S    
C61   C67   A    
C9    C20   A    
C64   H38   S    
C10   H24   S    
C64   N7    S    
Cu2   O4    S    
C40   H7    S    
C32   C37   A    
C6    C50   A    
C9    C11   A    
C20   N1    A    
Cu3   O12   S    
C1    O12   A    
C46   H13   S    
C62   H28   S    
C16   C18   A    
C30   H45   S    
C29   H44   S    
C30   N4    A    
Cu2   O10   S    
C13   C15   A    
C68   H16   S    
C14   C16   A    
C25   O16   A    
C32   H47   S    
C63   H35   S    
C45   C58   A    
C22   N1    A    
C23   C61   S    
C15   C17   A    
C16   H23   S    
Cu4   N2    S    
C28   O8    A    
C50   C57   A    
C65   H41   S    
C37   H4    S    
C63   H32   S    
Cu4   O7    S    
C10   C13   A    
Cu3   O5    S    
C62   N5    S    
Cu2   Cu4   S    
C53   C58   A    
C57   C61   A    
C15   H12   S    
C38   H5    S    
C24   N2    A    
C46   C50   A    
C1    O1    A    
C33   C38   A    
C56   C59   A    
C11   H25   S    
C35   C57   A    
C27   O7    A    
C4    H19   S    
C7    C51   A    
C24   H21   S    
C38   C40   A    
C64   H37   S    
C29   N3    A    
Cu2   O3    S    
C17   C19   A    
C18   C20   A    
C42   C47   A    
H36   N7    S    
C24   C30   A    
H40   N8    S    
C63   N6    S    
C5    C26   S    
Cu2   N4    S    
C48   C52   A    
C33   H48   S    
Cu1   O1    S    
Cu3   N1    S    
C8    C27   S    
C22   H20   S    
C12   O9    A    
C31   C36   A    
C51   C53   A    
C39   H6    S    
C67   N8    S    
C9    H22   S    
C43   H10   S    
C62   H30   S    
