data_mof_unit_53529.cif
_audit_creation_date              2013-03-05T16:08:21-0500
_audit_creation_method            fapswitch 2.2
_symmetry_space_group_name_H-M    P1
_symmetry_Int_Tables_number       1
_space_group_crystal_system       triclinic
_cell_length_a                    6.96317
_cell_length_b                    14.522315
_cell_length_c                    16.089447
_cell_angle_alpha                 89.993807
_cell_angle_beta                  90.001794
_cell_angle_gamma                 90.016365
_cell_volume                      1626.98649478

loop_
_atom_site_label
_atom_site_type_symbol
_atom_site_description
_atom_site_fract_x
_atom_site_fract_y
_atom_site_fract_z
_atom_type_partial_charge
O1    O     O_R   0.505700 0.583890 0.413310 -0.589903
O2    O     O_R   0.175960 0.594920 0.586080 -0.599129
O3    O     O_R   0.005660 0.416110 0.586690 -0.591338
C1    C     C_R   0.344747 0.616838 0.614903 0.936016
O4    O     O_R   0.175980 0.594920 0.413930 -0.597703
O5    O     O_R   0.005680 0.416110 0.413310 -0.594938
C2    C     C_R   0.344743 0.616881 0.385172 0.944418
O6    O     O_R   0.505680 0.583890 0.586690 -0.592089
O7    O     O_3   0.339200 0.441330 0.500000 -0.278712
V1    V     V_3+5 0.064350 0.510880 0.500000 1.139217
O8    O     O_R   0.675960 0.405080 0.413920 -0.593522
C3    C     C_R   0.844979 0.383271 0.384991 0.941096
O9    O     O_R   0.675940 0.405080 0.586070 -0.598630
C4    C     C_R   0.844703 0.383106 0.614845 0.936709
V2    V     V_3+5 0.564340 0.489120 0.500000 1.140578
O10   O     O_3   0.839360 0.558670 0.500000 -0.279068
C5    C     C_R   0.007514 0.317140 0.741215 0.176150
C6    C     C_R   0.852637 0.317711 0.685572 -0.231812
C7    C     C_R   0.700595 0.256200 0.701576 -0.159602
H1    H     H_    0.577723 0.254189 0.660613 0.138745
C8    C     C_R   0.711781 0.192028 0.767110 -0.158864
H2    H     H_    0.596518 0.142842 0.774838 0.131035
C9    C     C_R   0.875715 0.187145 0.818418 -0.225354
C10   C     C_R   0.019066 0.253350 0.805800 0.182523
C11   C     C_3   0.229412 0.240544 0.793531 -0.480791
C12   C     C_3   0.216965 0.310450 0.723485 -0.461487
H3    H     H_    0.264499 0.169903 0.771732 0.183744
H4    H     H_    0.314318 0.265275 0.847618 0.203481
H5    H     H_    0.245661 0.280591 0.661089 0.190014
H6    H     H_    0.293898 0.375797 0.737218 0.194631
C13   C     C_R   0.727231 0.183014 0.241136 0.155275
C14   C     C_R   0.881916 0.182537 0.185404 -0.223451
C15   C     C_R   0.033597 0.244300 0.201197 -0.148744
H7    H     H_    0.156232 0.246427 0.160130 0.142242
C16   C     C_R   0.022363 0.308505 0.266700 -0.139941
H8    H     H_    0.137331 0.357856 0.274289 0.137399
C17   C     C_R   0.858776 0.313140 0.318215 -0.226429
C18   C     C_R   0.715669 0.246812 0.305717 0.159446
C19   C     C_3   0.505270 0.259499 0.293524 -0.468921
C20   C     C_3   0.517720 0.189606 0.223493 -0.456121
H9    H     H_    0.469895 0.330112 0.271738 0.195675
H10   H     H_    0.420556 0.234718 0.347644 0.189772
H11   H     H_    0.488741 0.219443 0.161114 0.198777
H12   H     H_    0.440952 0.124231 0.237274 0.180081
C21   C     C_R   0.506589 0.682240 0.741826 0.172360
C22   C     C_R   0.352658 0.682187 0.685681 -0.231821
C23   C     C_R   0.201179 0.744082 0.701326 -0.160662
H13   H     H_    0.078814 0.746382 0.660104 0.137132
C24   C     C_R   0.212356 0.808252 0.766860 -0.150593
H14   H     H_    0.097683 0.857766 0.774260 0.129508
C25   C     C_R   0.375651 0.812706 0.818576 -0.232924
C26   C     C_R   0.518058 0.745973 0.806450 0.211467
C27   C     C_3   0.728947 0.757795 0.795117 -0.465339
C28   C     C_3   0.716581 0.687983 0.724978 -0.475670
H15   H     H_    0.812013 0.732630 0.849571 0.228003
H16   H     H_    0.766097 0.828269 0.773527 0.177485
H17   H     H_    0.791838 0.622292 0.739013 0.199368
H18   H     H_    0.747317 0.717727 0.662725 0.191030
C29   C     C_R   0.499726 0.679049 0.255379 0.154784
C30   C     C_R   0.352281 0.682366 0.314571 -0.208957
C31   C     C_R   0.204415 0.747034 0.301230 -0.179662
H19   H     H_    0.084747 0.751109 0.343923 0.124300
C32   C     C_R   0.216195 0.811547 0.235867 -0.074032
H20   H     H_    0.105097 0.863283 0.230372 0.115725
C33   C     C_R   0.375280 0.812798 0.181448 -0.255970
C34   C     C_R   0.509996 0.741886 0.190153 0.112329
C35   C     C_3   0.724154 0.744283 0.193831 0.195105
C36   C     C_3   0.712626 0.675713 0.265628 -0.594592
H21   H     H_    0.782127 0.812930 0.211323 0.053166
H22   H     H_    0.758892 0.705292 0.326077 0.176713
H23   H     H_    0.772298 0.606416 0.251641 0.228098
O11   O     O_R   0.229000 0.916070 0.913330 -0.587432
O12   O     O_R   0.558770 0.905070 0.086080 -0.596891
O13   O     O_R   0.729000 0.083900 0.086690 -0.596487
C37   C     C_R   0.389666 0.882992 0.114792 0.960851
O14   O     O_R   0.558720 0.905070 0.913930 -0.592996
O15   O     O_R   0.728960 0.083900 0.913310 -0.600073
C38   C     C_R   0.389639 0.883055 0.885162 0.950500
O16   O     O_R   0.229050 0.916070 0.086710 -0.564460
O17   O     O_3   0.395460 0.058650 0.000020 -0.289529
V3    V     V_3+5 0.670340 0.989120 0.000000 1.178841
O18   O     O_R   0.058670 0.094960 0.913900 -0.600657
C39   C     C_R   0.889616 0.116860 0.885065 0.925324
O19   O     O_R   0.058720 0.094960 0.086050 -0.606349
C40   C     C_R   0.889938 0.116996 0.114781 0.928873
V4    V     V_3+5 0.170330 0.010930 0.999970 1.169152
O20   O     O_3   0.895340 0.941350 0.999980 -0.235748
N1    N     N_R   0.811699 0.705403 0.118925 0.259963
O21   O     O_R   0.752099 0.627491 0.088221 -0.398182
O22   O     O_R   0.947089 0.750392 0.080865 -0.381527

loop_
_geom_bond_atom_site_label_1
_geom_bond_atom_site_label_2
_geom_bond_distance
_ccdc_geom_bond_type
C32   C33   1.412124 A    
C4    C6    1.483140 S    
C7    H1    1.080376 S    
C1    O6    1.300432 A    
C23   C24   1.409408 A    
C1    C22   1.483476 S    
C21   C22   1.401727 A    
C11   H4    1.111636 S    
C35   N1    1.464007 S    
C9    C39   1.483528 S    
C5    C12   1.489288 S    
C7    C8    1.409301 A    
O14   C38   1.304747 A    
C29   C34   1.392453 A    
O5    C3    1.298800 A    
C18   C19   1.489607 S    
O15   C39   1.298750 A    
V2    O10   2.164790 S    
C13   C20   1.489316 S    
C6    C7    1.408726 A    
C3    C17   1.483613 S    
C31   C32   1.410738 A    
O11   C38   1.298783 A    
O8    V2    2.003183 S    
C20   H11   1.111631 S    
C23   H13   1.080261 S    
C24   C25   1.410443 A    
O17   V4    1.713787 S    
C9    C10   1.400496 A    
O1    V2    2.001548 S    
O7    V1    2.164254 S    
C34   C35   1.492782 S    
C29   C30   1.401254 A    
O9    C4    1.302782 A    
O12   C37   1.304802 A    
O12   V3    2.002681 S    
C5    C6    1.401618 A    
C19   H10   1.111550 S    
C27   H15   1.111637 S    
C5    C10   1.394378 A    
C35   C36   1.527164 S    
C10   C11   1.489632 S    
C19   H9    1.111385 S    
C19   C20   1.519097 S    
O4    C2    1.302498 A    
V4    O20   2.164809 S    
C21   C26   1.394377 A    
C11   C12   1.519231 S    
O18   V4    2.002876 S    
C25   C26   1.400406 A    
C30   C31   1.410186 A    
C35   H21   1.111680 S    
C16   H8    1.081246 S    
O2    C1    1.302872 A    
C17   C18   1.400253 A    
C29   C36   1.492400 S    
C13   C14   1.401532 A    
O15   V3    2.001477 S    
C15   H7    1.080163 S    
O19   C40   1.302921 A    
V3    O20   1.713613 S    
O3    C4    1.300284 A    
N1    O22   1.300082 A    
C21   C28   1.489448 S    
C12   H6    1.111811 S    
O6    V2    2.001799 S    
O9    V2    2.002800 S    
C24   H14   1.081276 S    
O13   V3    2.001722 S    
O2    V1    2.002850 S    
C2    C30   1.482312 S    
C26   C27   1.489611 S    
C28   H18   1.111522 S    
C27   H16   1.111224 S    
C22   C23   1.408706 A    
C16   C17   1.410374 A    
O1    C2    1.300329 A    
O19   V4    2.003065 S    
O17   V3    2.164303 S    
O14   V3    2.002856 S    
O5    V1    2.001638 S    
O11   V4    2.002154 S    
O8    C3    1.304736 A    
C27   C28   1.519527 S    
C11   H3    1.111462 S    
C33   C37   1.482910 S    
C13   C18   1.394554 A    
C14   C15   1.408579 A    
C8    C9    1.410505 A    
O7    V2    1.714261 S    
C25   C38   1.483616 S    
O4    V1    2.002645 S    
O3    V1    2.001476 S    
V1    O10   1.713668 S    
C36   H23   1.111895 S    
C14   C40   1.483408 S    
C15   C16   1.409427 A    
C33   C34   1.400207 A    
O13   C40   1.300314 A    
C31   H19   1.081555 S    
C32   H20   1.082162 S    
C20   H12   1.111721 S    
N1    O21   1.302415 A    
C12   H5    1.111731 S    
C36   H22   1.110967 S    
O18   C39   1.304689 A    
C8    H2    1.081435 S    
C37   O16   1.298438 A    
O16   V4    2.003121 S    
C28   H17   1.111721 S    
