data_mof_unit_16167.cif
_audit_creation_date              2012-12-11T15:32:00-0500
_audit_creation_method            fapswitch 2.2
_symmetry_space_group_name_H-M    P1
_symmetry_Int_Tables_number       1
_space_group_crystal_system       triclinic
_cell_length_a                    13.578915
_cell_length_b                    13.580039
_cell_length_c                    27.646633
_cell_angle_alpha                 90.365664
_cell_angle_beta                  90.126774
_cell_angle_gamma                 119.931524
_cell_volume                      4417.9515955

loop_
_atom_site_label
_atom_site_type_symbol
_atom_type_description
_atom_site_fract_x
_atom_site_fract_y
_atom_site_fract_z
_atom_type_partial_charge
C1    C     C_R   0.619661 0.898262 0.431375 0.548555
C2    C     C_R   0.601511 0.364792 0.217417 0.158637
C3    C     C_R   0.594164 0.349524 0.267696 -0.088400
C4    C     C_R   0.666488 0.320219 0.291767 0.014645
C5    C     C_R   0.680793 0.347837 0.191088 0.062850
C6    C     C_1   0.691709 0.366286 0.139645 -0.023606
C7    C     C_1   0.651534 0.295907 0.342618 -0.039884
C8    C     C_1   0.701079 0.391010 0.097481 -0.003838
C9    C     C_1   0.230546 0.861611 0.383037 0.029798
C10   C     C_R   0.132943 0.900724 0.267358 0.390709
C11   C     C_R   0.117888 0.894199 0.217037 -0.077016
C12   C     C_R   0.599831 0.218772 0.431405 0.547016
C13   C     C_R   0.194092 0.766697 0.211632 -0.114689
C14   C     C_R   0.208614 0.772682 0.261828 -0.129644
C15   C     C_R   0.178225 0.839597 0.289892 0.045016
C16   C     C_R   0.149062 0.827678 0.189048 -0.024134
C17   C     C_1   0.125299 0.813481 0.137875 -0.051668
C18   C     C_1   0.201738 0.850600 0.341126 0.031628
C19   C     C_1   0.097135 0.794469 0.095907 -0.007370
C20   C     C_1   0.635640 0.865104 0.384011 0.022633
C21   C     C_R   0.564327 0.819075 0.260084 0.393222
C22   C     C_R   0.573132 0.809550 0.210050 -0.074659
C23   C     C_R   0.279227 0.878723 0.430611 0.555462
C24   C     C_R   0.753006 0.815434 0.221904 -0.132011
C25   C     C_R   0.744145 0.824590 0.271915 -0.162821
C26   C     C_R   0.649935 0.826692 0.291157 0.040601
C27   C     C_R   0.667844 0.808459 0.190854 -0.033063
C28   C     C_1   0.678195 0.798019 0.139534 -0.062591
C29   C     C_1   0.644043 0.844496 0.342237 0.013739
C30   C     C_1   0.693797 0.787227 0.097408 -0.010230
C31   C     C_R   0.634912 0.276395 0.616158 -0.017988
C32   C     C_R   0.733369 0.289299 0.638631 -0.151418
C33   C     C_R   0.749154 0.310815 0.687950 -0.152675
C34   C     C_R   0.620287 0.901204 0.569098 0.527488
C35   C     C_R   0.666710 0.319271 0.714848 0.030879
C36   C     C_R   0.570129 0.312148 0.692349 0.147756
C37   C     C_R   0.556292 0.292659 0.642842 -0.087238
C38   C     C_R   0.713324 0.454866 0.780518 -0.098675
C39   C     C_R   0.719858 0.479921 0.829108 0.371618
C40   C     C_R   0.675628 0.287338 0.848595 -0.201901
C41   C     C_R   0.669337 0.262270 0.799363 -0.124780
C42   C     C_R   0.686816 0.346139 0.765698 -0.043157
C43   C     C_R   0.698661 0.395575 0.863081 0.045097
C44   C     C_R   0.248290 0.873326 0.618895 -0.016874
C45   C     C_R   0.600832 0.222162 0.568769 0.531261
C46   C     C_R   0.164320 0.897211 0.634466 0.347532
C47   C     C_R   0.141192 0.893898 0.683758 -0.147163
C48   C     C_R   0.205015 0.871233 0.717273 0.031863
C49   C     C_R   0.293015 0.853765 0.701619 0.399788
C50   C     C_R   0.313245 0.853161 0.652662 -0.146551
C51   C     C_R   0.120706 0.733651 0.783246 0.145941
C52   C     C_R   0.088640 0.708275 0.831122 -0.136464
C53   C     C_R   0.154586 0.907769 0.849043 0.133955
C54   C     C_R   0.188102 0.934509 0.800321 0.130659
C55   C     C_R   0.168455 0.846569 0.767530 0.096247
C56   C     C_R   0.281731 0.882316 0.568658 0.591144
C57   C     C_R   0.101214 0.793088 0.863760 0.006927
C58   C     C_R   0.629254 0.877166 0.619631 0.034788
C59   C     C_R   0.624143 0.776021 0.635540 0.130798
C60   C     C_R   0.620872 0.757018 0.685616 -0.033190
C61   C     C_R   0.621751 0.836089 0.718917 0.090880
C62   C     C_R   0.624053 0.934067 0.702264 -0.030389
C63   C     C_R   0.629212 0.954970 0.653208 -0.149569
C64   C     C_R   0.717943 0.912046 0.797867 0.311339
C65   C     C_R   0.738340 0.895569 0.845422 -0.104827
C66   C     C_R   0.583403 0.700801 0.841386 -0.070476
C67   C     C_1   0.632235 0.267076 0.384235 0.004178
C68   C     C_R   0.561238 0.717542 0.793722 0.345318
C69   C     C_R   0.631398 0.822067 0.771080 0.056056
C70   C     C_R   0.675062 0.788551 0.866857 -0.073862
C71   C     C_R   0.049214 0.761086 0.048263 0.536339
C72   C     C_R   0.714185 0.435612 0.049667 0.534422
C73   C     C_R   0.723601 0.770792 0.049533 0.536942
C74   C     C_R   0.044484 0.756028 0.910594 0.580700
C75   C     C_R   0.707645 0.427970 0.912995 0.568834
C76   C     C_R   0.716982 0.765923 0.912039 0.593102
C77   C     C_R   0.745846 0.304601 0.265556 -0.107770
C78   C     C_R   0.753125 0.318589 0.215379 -0.137131
Cr1   Cr    Cr6+3 0.417720 0.831920 0.499820 1.046785
Cr2   Cr    Cr6+3 0.668190 0.085770 0.500360 1.043067
Cr3   Cr    Cr6+3 0.414060 0.082260 0.499840 1.080348
Cr4   Cr    Cr6+3 0.908000 0.821090 0.979770 1.058183
Cr5   Cr    Cr6+3 0.912420 0.571130 0.979880 1.042387
Cr6   Cr    Cr6+3 0.657970 0.566940 0.980940 1.050583
H1    H     H_    0.800989 0.280170 0.283813 0.131939
H2    H     H_    0.506708 0.803778 0.186383 0.131614
H3    H     H_    0.826395 0.814022 0.207414 0.135674
H4    H     H_    0.811245 0.831439 0.295442 0.160782
H5    H     H_    0.794932 0.276842 0.618699 0.147834
H6    H     H_    0.727451 0.519604 0.754310 0.123983
H7    H     H_    0.824500 0.318998 0.705355 0.137645
H8    H     H_    0.647957 0.177662 0.787502 0.160335
H9    H     H_    0.661167 0.223031 0.875033 0.117145
H10   H     H_    0.815054 0.306518 0.195521 0.120667
H11   H     H_    0.478856 0.280932 0.626150 0.158410
H12   H     H_    0.048067 0.620114 0.842050 0.147798
H13   H     H_    0.071132 0.904558 0.695610 0.140637
H14   H     H_    0.380992 0.838410 0.641036 0.158044
H15   H     H_    0.809045 0.965090 0.864338 0.171100
H16   H     H_    0.618983 0.681488 0.698893 0.136002
H17   H     H_    0.532836 0.617739 0.857336 0.172544
H18   H     H_    0.622594 0.995001 0.727322 0.175102
H19   H     H_    0.629507 0.030994 0.641232 0.128450
H20   H     H_    0.531807 0.360264 0.287927 0.120256
H21   H     H_    0.081155 0.940163 0.199985 0.134326
H22   H     H_    0.216864 0.713614 0.190510 0.134617
H23   H     H_    0.243989 0.725385 0.278778 0.181698
O1    O     O_R   0.302900 0.805360 0.446400 -0.501665
O2    O     O_R   0.657980 0.180990 0.549630 -0.506197
O3    O     O_R   0.503420 0.197810 0.553190 -0.517362
O4    O     O_R   0.320350 0.978840 0.548910 -0.459010
O5    O     O_3   0.499990 0.999990 0.500010 -0.268138
O6    O     O_R   0.819150 0.845650 0.033320 -0.508744
O7    O     O_R   0.006060 0.815720 0.028680 -0.499736
O8    O     O_R   0.028100 0.664460 0.032550 -0.509509
O9    O     O_R   0.811290 0.477490 0.029660 -0.502107
O10   O     O_R   0.638120 0.455970 0.034270 -0.507904
O11   O     O_R   0.667540 0.672320 0.030160 -0.503720
O12   O     O_R   0.522090 0.841370 0.450730 -0.489901
O13   O     O_R   0.814460 0.840990 0.926980 -0.510033
O14   O     O_R   0.001710 0.811400 0.930110 -0.451139
O15   O     O_R   0.023410 0.659800 0.926210 -0.522925
O16   O     O_R   0.806940 0.473170 0.931090 -0.488362
O17   O     O_R   0.633420 0.451310 0.927930 -0.490843
O18   O     O_R   0.663190 0.668000 0.931580 -0.471507
O19   O     O_3   0.826130 0.653050 0.980200 -0.245130
O20   O     O_R   0.693280 0.995650 0.447220 -0.497492
O21   O     O_R   0.657260 0.178740 0.451050 -0.492540
O22   O     O_R   0.502640 0.195380 0.446850 -0.498718
O23   O     O_R   0.319630 0.976590 0.450330 -0.480090
O24   O     O_R   0.303680 0.807790 0.552740 -0.521040
O25   O     O_R   0.522820 0.843620 0.549310 -0.506513
O26   O     O_R   0.694060 0.998080 0.553560 -0.501202
F1    F     F_    0.747118 0.586628 0.843187 -0.644417
N1    N     N_2   0.481554 0.313848 0.719406 -0.531587
H24   H     H_    0.477123 0.292933 0.755423 0.266706
C79   C     C_3   0.467199 0.411000 0.711177 -0.267869
H25   H     H_    0.391659 0.400106 0.731207 0.196060
H26   H     H_    0.453742 0.419528 0.672145 0.161833
H27   H     H_    0.543111 0.489527 0.724402 0.170675
F2    F     F_    0.102918 0.919657 0.602116 -0.622428
N2    N     N_2   0.107004 0.645355 0.750972 -0.469346
H28   H     H_    0.120522 0.584679 0.767024 0.275928
C80   C     C_3   0.002945 0.594825 0.722945 -0.308231
H29   H     H_    0.004324 0.534783 0.695885 0.156016
H30   H     H_    0.993401 0.660719 0.703380 0.154252
H31   H     H_    0.929242 0.547339 0.747077 0.143070
N3    N     N_2   0.248421 0.049628 0.784815 -0.522897
H32   H     H_    0.313300 0.104721 0.807516 0.257157
C81   C     C_3   0.179811 0.095266 0.766030 -0.291988
H33   H     H_    0.210973 0.130823 0.729588 0.186194
H34   H     H_    0.187294 0.164611 0.790051 0.141293
H35   H     H_    0.088439 0.029321 0.763148 0.167908
N4    N     N_2   0.172785 0.994853 0.882974 -0.497878
H36   H     H_    0.170310 0.063463 0.868666 0.260234
C82   C     C_3   0.268457 0.027833 0.915226 -0.296932
H37   H     H_    0.272708 0.091432 0.941844 0.145917
H38   H     H_    0.348948 0.066194 0.894418 0.136329
H39   H     H_    0.259011 0.953190 0.935437 0.153333
F3    F     F_    0.355728 0.832345 0.733731 -0.612702
N5    N     N_2   0.619766 0.693229 0.602023 -0.518057
H40   H     H_    0.608530 0.706158 0.566233 0.260775
C83   C     C_3   0.704260 0.658926 0.608586 -0.300596
H41   H     H_    0.695562 0.598784 0.579245 0.151139
H42   H     H_    0.692102 0.614255 0.643413 0.138430
H43   H     H_    0.791121 0.734223 0.607196 0.182965
N6    N     N_2   0.527936 0.395457 0.193476 -0.511620
H44   H     H_    0.448514 0.360759 0.208910 0.256467
C84   C     C_3   0.577430 0.516240 0.185837 -0.289321
H45   H     H_    0.594922 0.561650 0.221162 0.146338
H46   H     H_    0.517217 0.532470 0.164859 0.156283
H47   H     H_    0.657659 0.550132 0.165074 0.163136
F4    F     F_    0.789017 0.013421 0.777036 -0.656040
F5    F     F_    0.473764 0.630930 0.769308 -0.643073
F6    F     F_    0.103752 0.966579 0.293910 -0.633344
F7    F     F_    0.473402 0.822834 0.278156 -0.655173

loop_
_geom_bond_atom_site_label_1
_geom_bond_atom_site_label_2
_ccdc_geom_bond_type
C3    H20   S    
C48   C55   S    
C66   C68   A    
C21   C26   A    
C15   C18   S    
C41   C42   A    
C54   C55   A    
C19   C71   S    
C35   C36   A    
C24   C27   A    
Cr4   O13   S    
C40   H9    S    
Cr3   O3    S    
N5    H40   S    
N1    H24   S    
N6    C84   S    
C66   C70   A    
C77   C78   A    
C79   H26   S    
C76   O13   A    
Cr1   O5    S    
C75   O16   A    
C36   C37   A    
C83   H42   S    
N3    C81   S    
C38   C42   A    
C10   C15   A    
C4    C7    S    
C1    O12   A    
C38   C39   A    
C45   O2    A    
C23   O1    A    
C44   C50   A    
C65   C70   A    
Cr6   O18   S    
C73   O6    A    
C37   H11   S    
C51   C55   A    
C84   H45   S    
C35   C42   S    
Cr4   O19   S    
C77   H1    S    
C33   C35   A    
C68   C69   A    
C40   C43   A    
C83   H41   S    
Cr6   O10   S    
C81   H35   S    
Cr1   O12   S    
C72   O10   A    
C11   H21   S    
C49   F3    S    
Cr4   O14   S    
N4    C82   S    
C34   O25   A    
C53   N4    S    
Cr3   O4    S    
C21   C22   A    
Cr6   O19   S    
C76   O18   A    
C84   H46   S    
C66   H17   S    
C1    O20   A    
C80   H31   S    
N5    C83   S    
C44   C46   A    
C46   F2    S    
C20   C29   T    
C82   H39   S    
C43   C75   S    
C79   H27   S    
C50   H14   S    
C8    C72   S    
C12   O22   A    
C75   O17   A    
Cr5   O8    S    
C83   H43   S    
N3    H32   S    
C65   H15   S    
C80   H30   S    
C52   C57   A    
N6    H44   S    
C30   C73   S    
C53   C57   A    
C45   O3    A    
C16   C17   S    
C6    C8    T    
C12   C67   S    
Cr2   O21   S    
C34   O26   A    
C58   C59   A    
C53   C54   A    
C25   H4    S    
Cr2   O26   S    
C51   C52   A    
C23   O23   A    
C60   C61   A    
C57   C74   S    
Cr2   O2    S    
C62   C63   A    
C59   N5    S    
C11   C16   A    
C44   C56   S    
Cr3   O22   S    
C47   C48   A    
C14   C15   A    
Cr3   O5    S    
C21   F7    S    
Cr1   O24   S    
Cr2   O5    S    
C71   O8    A    
C64   C69   A    
C24   C25   A    
Cr4   O7    S    
N4    H36   S    
C63   H19   S    
C40   C41   A    
C74   O15   A    
C22   C27   A    
C32   H5    S    
C70   C76   S    
C84   H47   S    
C81   H34   S    
C2    C5    A    
Cr5   O19   S    
C3    C4    A    
C36   N1    S    
C14   H23   S    
C54   N3    S    
C51   N2    S    
C61   C69   S    
C10   F6    S    
N1    C79   S    
C38   H6    S    
C46   C47   A    
C82   H37   S    
C1    C20   S    
C68   F5    S    
C73   O11   A    
C56   O4    A    
C81   H33   S    
Cr5   O9    S    
C31   C32   A    
C9    C23   S    
C58   C63   A    
Cr4   O6    S    
C13   H22   S    
C60   H16   S    
C39   C43   A    
C12   O21   A    
Cr2   O20   S    
Cr6   O17   S    
C79   H25   S    
C72   O9    A    
C47   H13   S    
C80   H29   S    
C32   C33   A    
C33   H7    S    
C2    C3    A    
C25   C26   A    
C4    C77   A    
C64   C65   A    
Cr3   O23   S    
C5    C6    S    
C78   H10   S    
C48   C49   A    
Cr1   O25   S    
C82   H38   S    
C17   C19   T    
C28   C30   T    
Cr1   O1    S    
C52   H12   S    
N2    C80   S    
C22   H2    S    
Cr5   O15   S    
C61   C62   A    
C24   H3    S    
C56   O24   A    
C10   C11   A    
C7    C67   T    
C5    C78   A    
C31   C37   A    
C9    C18   T    
C59   C60   A    
C74   O14   A    
C41   H8    S    
C71   O7    A    
C26   C29   S    
Cr6   O11   S    
C49   C50   A    
C31   C45   S    
C13   C16   A    
C27   C28   S    
C34   C58   S    
N2    H28   S    
Cr5   O16   S    
C64   F4    S    
C13   C14   A    
C2    N6    S    
C62   H18   S    
C39   F1    S    
