data_mof_unit_45099.cif
_audit_creation_date              2012-12-10T17:33:09-0500
_audit_creation_method            fapswitch 2.2
_symmetry_space_group_name_H-M    P1
_symmetry_Int_Tables_number       1
_space_group_crystal_system       triclinic
_cell_length_a                    12.085868
_cell_length_b                    12.759251
_cell_length_c                    13.555396
_cell_angle_alpha                 91.553115
_cell_angle_beta                  77.81359
_cell_angle_gamma                 94.219092
_cell_volume                      2037.54756039

loop_
_atom_site_label
_atom_site_type_symbol
_atom_type_description
_atom_site_fract_x
_atom_site_fract_y
_atom_site_fract_z
_atom_type_partial_charge
C1    C     C_R   0.522480 0.700185 0.502532 0.914394
C2    C     C_R   0.149752 0.461740 0.455754 -0.098770
C3    C     C_R   0.969345 0.533321 0.536697 0.009256
C4    C     C_R   0.030654 0.466679 0.463302 0.009265
C5    C     C_R   0.479088 0.503181 0.687192 0.905928
C6    C     C_R   0.520910 0.496812 0.312808 0.905959
C7    C     C_1   0.536292 0.485509 0.207799 -0.180277
C8    C     C_1   0.463701 0.514473 0.792201 -0.180333
C9    C     C_2   0.537213 0.470935 0.015988 -0.023292
C10   C     C_2   0.462765 0.529029 0.984015 -0.023280
C11   C     C_1   0.457872 0.523723 0.880445 -0.058018
C12   C     C_R   0.477520 0.299811 0.497447 0.914451
C13   C     C_1   0.542114 0.476249 0.119557 -0.058074
C14   C     C_R   0.463495 0.188053 0.488550 -0.103574
C15   C     C_R   0.536472 0.811933 0.511485 -0.103304
C16   C     C_R   0.559925 0.967432 0.612810 0.216485
C17   C     C_R   0.439743 0.032497 0.387393 0.216412
C18   C     C_R   0.578581 0.860662 0.591901 0.177376
C19   C     C_R   0.421087 0.139267 0.408305 0.177610
C20   C     C_R   0.489111 0.867565 0.446689 -0.334926
C21   C     C_R   0.510941 0.132431 0.553303 -0.334819
C22   C     C_R   0.386566 0.599250 0.051575 0.142359
C23   C     C_R   0.482766 0.974961 0.457712 0.060522
C24   C     C_R   0.397164 0.708024 0.034906 -0.176941
C25   C     C_R   0.327188 0.774640 0.099438 -0.154616
C26   C     C_R   0.245985 0.733128 0.180647 -0.111943
C27   C     C_R   0.234094 0.624841 0.197138 -0.125876
C28   C     C_R   0.303740 0.557942 0.132694 -0.143301
C29   C     C_R   0.613390 0.400694 0.948431 0.142345
C30   C     C_R   0.602750 0.291920 0.965102 -0.176919
C31   C     C_R   0.672681 0.225279 0.900559 -0.154723
C32   C     C_R   0.753882 0.266766 0.819335 -0.111769
C33   C     C_R   0.765820 0.375055 0.802845 -0.125872
C34   C     C_R   0.517006 0.024996 0.542443 0.060882
C35   C     C_R   0.696217 0.441978 0.867302 -0.143321
C36   C     C_3   0.361047 0.202744 0.345007 -0.906338
C37   C     C_3   0.638158 0.797074 0.655486 -0.906356
C38   C     C_3   0.575675 0.016802 0.712769 -0.959958
C39   C     C_3   0.423853 0.982957 0.287538 -0.959364
C40   C     C_R   0.206949 0.647832 0.658365 0.188750
C41   C     C_R   0.205024 0.610331 0.755225 -0.133099
C42   C     C_R   0.247647 0.674735 0.825636 -0.153424
C43   C     C_R   0.290776 0.777416 0.800531 -0.129328
C44   C     C_R   0.288522 0.816741 0.705836 -0.151970
C45   C     C_R   0.971672 0.406436 0.399277 0.090410
C46   C     C_R   0.245090 0.752846 0.635515 -0.127086
C47   C     C_R   0.793046 0.352160 0.341641 0.188735
C48   C     C_R   0.794982 0.389655 0.244777 -0.133103
C49   C     C_R   0.752324 0.325260 0.174379 -0.153413
C50   C     C_R   0.709139 0.222599 0.199506 -0.129243
C51   C     C_R   0.711380 0.183279 0.294204 -0.152024
C52   C     C_R   0.754866 0.247158 0.364505 -0.127081
C53   C     C_3   0.036593 0.334092 0.319996 -0.963344
C54   C     C_3   0.963399 0.665885 0.680022 -0.963335
C55   C     C_R   0.028325 0.593555 0.600729 0.090418
C56   C     C_R   0.852560 0.414874 0.410224 0.099115
C57   C     C_R   0.147437 0.585118 0.589782 0.099121
C58   C     C_R   0.850248 0.538266 0.544240 -0.098684
H1    H     H_    0.546482 0.175663 0.610576 0.180516
H2    H     H_    0.539755 0.258793 0.027482 0.128264
H3    H     H_    0.663700 0.141423 0.913344 0.133293
H4    H     H_    0.807670 0.215024 0.769284 0.124261
H5    H     H_    0.828960 0.407116 0.740113 0.137504
H6    H     H_    0.706399 0.525769 0.853812 0.126397
H7    H     H_    0.316965 0.154205 0.294237 0.241314
H8    H     H_    0.292567 0.243985 0.394934 0.246942
H9    H     H_    0.422475 0.261079 0.299694 0.233448
H10   H     H_    0.681671 0.845507 0.706733 0.241510
H11   H     H_    0.576542 0.738595 0.700386 0.233424
H12   H     H_    0.453883 0.824368 0.389215 0.180523
H13   H     H_    0.706930 0.755980 0.605791 0.246873
H14   H     H_    0.562145 0.958211 0.773779 0.243951
H15   H     H_    0.661552 0.057421 0.703805 0.245456
H16   H     H_    0.510191 0.072954 0.741657 0.238732
H17   H     H_    0.435576 0.041520 0.226632 0.244023
H18   H     H_    0.490438 0.927968 0.258139 0.238530
H19   H     H_    0.338637 0.940830 0.297059 0.245318
H20   H     H_    0.169693 0.531616 0.776262 0.129169
H21   H     H_    0.246128 0.645201 0.899962 0.156543
H22   H     H_    0.323944 0.827114 0.855059 0.133693
H23   H     H_    0.199118 0.411832 0.400479 0.159791
H24   H     H_    0.318912 0.897184 0.687412 0.150350
H25   H     H_    0.240690 0.785132 0.563452 0.137505
H26   H     H_    0.830342 0.468359 0.223729 0.129156
H27   H     H_    0.753851 0.354789 0.100051 0.156522
H28   H     H_    0.675935 0.172912 0.144991 0.133763
H29   H     H_    0.680934 0.102852 0.312649 0.150245
H30   H     H_    0.759257 0.214875 0.436571 0.137522
H31   H     H_    0.984220 0.289397 0.273338 0.257718
H32   H     H_    0.103432 0.381096 0.267164 0.236749
H33   H     H_    0.076413 0.275126 0.357483 0.243674
H34   H     H_    0.800885 0.588187 0.599504 0.159761
H35   H     H_    0.896554 0.618870 0.732839 0.236745
H36   H     H_    0.015765 0.710562 0.726697 0.257726
H37   H     H_    0.923587 0.724864 0.642545 0.243656
H38   H     H_    0.460156 0.741168 0.972532 0.128255
H39   H     H_    0.336136 0.858496 0.086653 0.133276
H40   H     H_    0.192159 0.784851 0.230687 0.124251
H41   H     H_    0.170952 0.592761 0.259860 0.137506
H42   H     H_    0.293590 0.474150 0.146180 0.126369
N1    N     N_R   0.206090 0.519450 0.517820 -0.132175
N2    N     N_R   0.793910 0.480550 0.482180 -0.132181
O1    O     O_R   0.421240 0.658850 0.504760 -0.616598
O2    O     O_R   0.578760 0.341150 0.495240 -0.616644
O3    O     O_R   0.609960 0.646370 0.493320 -0.619708
O4    O     O_R   0.390040 0.353630 0.506680 -0.619737
O5    O     O_R   0.392060 0.507120 0.646890 -0.609221
O6    O     O_R   0.607940 0.492880 0.353110 -0.609227
O7    O     O_R   0.580780 0.494630 0.635450 -0.613694
O8    O     O_R   0.419220 0.505370 0.364550 -0.613723
Zn1   Zn    Zn3+2 0.373990 0.508340 0.507630 0.936983
Zn2   Zn    Zn3+2 0.626010 0.491660 0.492370 0.937002

loop_
_geom_bond_atom_site_label_1
_geom_bond_atom_site_label_2
_ccdc_geom_bond_type
C15   C18   A    
C37   H11   S    
C41   C42   A    
C31   H3    S    
N2    Zn2   S    
C36   H9    S    
C10   C22   S    
C40   C46   A    
C27   H41   S    
C26   C27   A    
C17   C23   A    
C39   H19   S    
C14   C21   A    
C18   C37   S    
C21   H1    S    
C44   H24   S    
C19   C36   S    
C24   H38   S    
C5    O5    A    
C30   C31   A    
C36   H8    S    
C37   H10   S    
O1    Zn1   S    
C17   C39   S    
C9    C13   S    
O8    Zn1   S    
C54   H35   S    
C16   C34   A    
C3    C55   A    
C47   C48   A    
C45   C56   A    
C30   H2    S    
C53   H33   S    
C35   H6    S    
C58   N2    A    
C39   H17   S    
C9    C10   D    
C1    O1    A    
C9    C29   S    
C4    C45   A    
C28   H42   S    
C45   C53   S    
C42   H21   S    
C22   C28   A    
C6    O8    A    
C20   H12   S    
C44   C46   A    
O4    Zn1   S    
C15   C20   A    
C38   H14   S    
C51   C52   A    
C49   H27   S    
C52   H30   S    
C24   C25   A    
O7    Zn2   S    
C51   H29   S    
C41   H20   S    
O2    Zn2   S    
C36   H7    S    
C17   C19   A    
C21   C34   A    
C2    N1    A    
C43   H22   S    
C48   H26   S    
C2    C4    A    
C43   C44   A    
C29   C30   A    
C31   C32   A    
C20   C23   A    
C33   H5    S    
C23   C34   A    
C50   C51   A    
C39   H18   S    
C54   H37   S    
C47   C52   A    
C26   H40   S    
C1    C15   S    
C25   H39   S    
C48   C49   A    
O3    Zn2   S    
C12   C14   S    
C37   H13   S    
C53   H31   S    
C22   C24   A    
C42   C43   A    
C3    C4    A    
C53   H32   S    
C38   H16   S    
C54   C55   S    
C40   C41   A    
C40   C57   S    
O5    Zn1   S    
C14   C19   A    
C5    C8    S    
C12   O2    A    
C6    C7    S    
N1    Zn1   S    
C57   N1    A    
C29   C35   A    
C32   C33   A    
C55   C57   A    
C25   C26   A    
C32   H4    S    
C12   O4    A    
C5    O7    A    
C8    C11   T    
C33   C35   A    
C54   H36   S    
C10   C11   S    
C50   H28   S    
C56   N2    A    
C46   H25   S    
C3    C58   A    
O6    Zn2   S    
C7    C13   T    
C16   C18   A    
C49   C50   A    
C1    O3    A    
C27   C28   A    
C6    O6    A    
C2    H23   S    
C58   H34   S    
C16   C38   S    
C47   C56   S    
C38   H15   S    
