data_mof_unit_49141.cif
_audit_creation_date              2013-03-05T16:11:38-0500
_audit_creation_method            fapswitch 2.2
_symmetry_space_group_name_H-M    P1
_symmetry_Int_Tables_number       1
_space_group_crystal_system       triclinic
_cell_length_a                    18.105878
_cell_length_b                    18.106202
_cell_length_c                    42.956354
_cell_angle_alpha                 90.105921
_cell_angle_beta                  90.003643
_cell_angle_gamma                 90.001535
_cell_volume                      14082.3009235

loop_
_atom_site_label
_atom_site_type_symbol
_atom_site_description
_atom_site_fract_x
_atom_site_fract_y
_atom_site_fract_z
_atom_type_partial_charge
Zn1   Zn    Zn3+2 0.499980 0.087890 0.224030 1.022838
Zn2   Zn    Zn3+2 0.500020 0.912110 0.775970 1.019756
Zn3   Zn    Zn3+2 0.912110 0.499980 0.224030 1.023911
Zn4   Zn    Zn3+2 0.087890 0.500020 0.775970 1.022997
Zn5   Zn    Zn3+2 0.500020 0.912110 0.224030 1.026420
Zn6   Zn    Zn3+2 0.499980 0.087890 0.775970 1.024019
Zn7   Zn    Zn3+2 0.087890 0.500020 0.224030 1.020016
Zn8   Zn    Zn3+2 0.912110 0.499980 0.775970 1.026407
Zn9   Zn    Zn3+2 0.999980 0.587890 0.724030 1.019756
Zn10  Zn    Zn3+2 0.000020 0.412110 0.275970 1.022838
Zn11  Zn    Zn3+2 0.412110 0.999980 0.724030 1.022997
Zn12  Zn    Zn3+2 0.587890 0.000020 0.275970 1.023911
Zn13  Zn    Zn3+2 0.000020 0.412110 0.724030 1.024018
Zn14  Zn    Zn3+2 0.999980 0.587890 0.275970 1.026421
Zn15  Zn    Zn3+2 0.587890 0.000020 0.724030 1.026406
Zn16  Zn    Zn3+2 0.412110 0.999980 0.275970 1.020017
O1    O     O_3   0.500000 0.000000 0.250000 -0.534514
O2    O     O_3   0.500000 1.000000 0.750000 -0.534512
O3    O     O_3   1.000000 0.500000 0.250000 -0.534515
O4    O     O_3   0.000000 0.500000 0.750000 -0.534512
O5    O     O_R   0.438450 0.000020 0.319320 -0.639872
O6    O     O_R   0.561550 0.999980 0.680680 -0.638924
O7    O     O_R   0.999980 0.438450 0.319320 -0.638177
O8    O     O_R   0.000020 0.561550 0.680680 -0.639819
O9    O     O_R   0.561550 0.999980 0.319320 -0.640305
O10   O     O_R   0.438450 0.000020 0.680680 -0.638396
O11   O     O_R   0.000020 0.561550 0.319320 -0.638940
O12   O     O_R   0.999980 0.438450 0.680680 -0.640140
O13   O     O_R   0.938450 0.500020 0.819320 -0.638923
O14   O     O_R   0.061550 0.499980 0.180680 -0.639872
O15   O     O_R   0.499980 0.938450 0.819320 -0.639819
O16   O     O_R   0.500020 0.061550 0.180680 -0.638177
O17   O     O_R   0.061550 0.499980 0.819320 -0.638397
O18   O     O_R   0.938450 0.500020 0.180680 -0.640304
O19   O     O_R   0.500020 0.061550 0.819320 -0.640140
O20   O     O_R   0.499980 0.938450 0.180680 -0.638941
O21   O     O_R   0.648010 0.086580 0.268180 -0.612936
O22   O     O_R   0.351990 0.913420 0.731820 -0.613688
O23   O     O_R   0.913420 0.648010 0.268180 -0.611689
O24   O     O_R   0.086580 0.351990 0.731820 -0.613296
O25   O     O_R   0.351990 0.913420 0.268180 -0.617979
O26   O     O_R   0.648010 0.086580 0.731820 -0.611324
O27   O     O_R   0.086580 0.351990 0.268180 -0.613365
O28   O     O_R   0.913420 0.648010 0.731820 -0.617939
O29   O     O_R   0.148010 0.586580 0.768180 -0.613688
O30   O     O_R   0.851990 0.413420 0.231820 -0.612935
O31   O     O_R   0.413420 0.148010 0.768180 -0.613296
O32   O     O_R   0.586580 0.851990 0.231820 -0.611690
O33   O     O_R   0.851990 0.413420 0.768180 -0.611323
O34   O     O_R   0.148010 0.586580 0.231820 -0.617979
O35   O     O_R   0.586580 0.851990 0.768180 -0.617939
O36   O     O_R   0.413420 0.148010 0.231820 -0.613366
O37   O     O_R   0.413460 0.851950 0.231830 -0.614202
O38   O     O_R   0.586540 0.148050 0.768170 -0.618725
O39   O     O_R   0.148050 0.413460 0.231830 -0.621102
O40   O     O_R   0.851950 0.586540 0.768170 -0.613810
O41   O     O_R   0.586540 0.148050 0.231830 -0.619232
O42   O     O_R   0.413460 0.851950 0.768170 -0.620843
O43   O     O_R   0.851950 0.586540 0.231830 -0.618410
O44   O     O_R   0.148050 0.413460 0.768170 -0.619314
O45   O     O_R   0.913460 0.351950 0.731830 -0.618725
O46   O     O_R   0.086540 0.648050 0.268170 -0.614202
O47   O     O_R   0.648050 0.913460 0.731830 -0.613810
O48   O     O_R   0.351950 0.086540 0.268170 -0.621101
O49   O     O_R   0.086540 0.648050 0.731830 -0.620843
O50   O     O_R   0.913460 0.351950 0.268170 -0.619232
O51   O     O_R   0.351950 0.086540 0.731830 -0.619313
O52   O     O_R   0.648050 0.913460 0.268170 -0.618409
C1    C     C_R   0.500001 0.999991 0.334246 0.846133
C2    C     C_R   0.499998 0.000007 0.665754 0.834475
C3    C     C_R   0.999995 0.500054 0.334246 0.834406
C4    C     C_R   0.999994 0.499945 0.665754 0.846065
C5    C     C_R   0.000002 0.499993 0.834246 0.834476
C6    C     C_R   0.999999 0.500009 0.165754 0.846134
C7    C     C_R   0.500006 0.000055 0.834246 0.846065
C8    C     C_R   0.500005 0.999946 0.165754 0.834406
C9    C     C_R   0.641569 0.141503 0.250070 0.964657
C10   C     C_R   0.358581 0.858359 0.749855 0.967758
C11   C     C_R   0.858416 0.641521 0.250104 0.960555
C12   C     C_R   0.141532 0.358427 0.749924 0.965752
C13   C     C_R   0.358525 0.858380 0.249949 0.963827
C14   C     C_R   0.641531 0.141571 0.749929 0.960466
C15   C     C_R   0.141664 0.358605 0.250130 0.967669
C16   C     C_R   0.858405 0.641467 0.750055 0.962675
C17   C     C_R   0.141419 0.641641 0.750145 0.967758
C18   C     C_R   0.858431 0.358497 0.249930 0.964657
C19   C     C_R   0.358468 0.141572 0.750076 0.965752
C20   C     C_R   0.641584 0.858479 0.249895 0.960556
C21   C     C_R   0.858469 0.358429 0.750070 0.960466
C22   C     C_R   0.141475 0.641620 0.250051 0.963827
C23   C     C_R   0.641595 0.858533 0.749945 0.962675
C24   C     C_R   0.358336 0.141395 0.249870 0.967669
C25   C     C_3   0.218169 0.184418 0.243920 0.307345
C26   C     C_3   0.772132 0.804781 0.731055 0.334197
C27   C     C_3   0.815121 0.219086 0.242389 0.310526
C28   C     C_3   0.184423 0.781830 0.756051 0.307354
C29   C     C_3   0.781523 0.815532 0.243588 0.318196
C30   C     C_3   0.218971 0.184806 0.757346 0.310934
C31   C     C_3   0.195052 0.772310 0.268883 0.334277
C32   C     C_3   0.815228 0.218901 0.757283 0.316897
C33   C     C_3   0.727868 0.695219 0.768945 0.334196
C34   C     C_3   0.281831 0.315582 0.256080 0.307345
C35   C     C_3   0.315576 0.718170 0.743949 0.307354
C36   C     C_3   0.684879 0.280914 0.257611 0.310525
C37   C     C_3   0.281029 0.315194 0.742654 0.310934
C38   C     C_3   0.718477 0.684468 0.256412 0.318197
C39   C     C_3   0.684772 0.281099 0.742717 0.316898
C40   C     C_3   0.304948 0.727691 0.231117 0.334276
C41   C     C_3   0.216917 0.251607 0.221988 0.298761
C42   C     C_3   0.813568 0.779467 0.760439 0.307619
C43   C     C_3   0.745974 0.219436 0.221495 0.300613
C44   C     C_3   0.251691 0.783292 0.777991 0.298764
C45   C     C_3   0.782495 0.747753 0.221866 0.297857
C46   C     C_3   0.219111 0.253719 0.778428 0.300599
C47   C     C_3   0.220636 0.813480 0.239489 0.307526
C48   C     C_3   0.746495 0.219152 0.778415 0.298397
C49   C     C_3   0.686432 0.720533 0.739561 0.307620
C50   C     C_3   0.283083 0.248393 0.278012 0.298762
C51   C     C_3   0.248309 0.716708 0.722009 0.298764
C52   C     C_3   0.754026 0.280564 0.278505 0.300612
C53   C     C_3   0.280888 0.246281 0.721572 0.300600
C54   C     C_3   0.717505 0.752247 0.278133 0.297857
C55   C     C_3   0.753505 0.280848 0.721584 0.298395
C56   C     C_3   0.279365 0.686520 0.260511 0.307525
C57   C     C_3   0.198502 0.301465 0.250301 -0.344889
C58   C     C_3   0.801197 0.698241 0.750215 -0.345602
C59   C     C_3   0.698835 0.198237 0.250240 -0.343992
C60   C     C_3   0.301423 0.801539 0.749671 -0.344858
C61   C     C_3   0.801651 0.698734 0.250285 -0.345890
C62   C     C_3   0.198264 0.301180 0.749753 -0.344515
C63   C     C_3   0.301766 0.801178 0.249791 -0.345972
C64   C     C_3   0.698746 0.198332 0.749769 -0.345641
C65   C     C_3   0.698803 0.801759 0.749785 -0.345601
C66   C     C_3   0.301498 0.198535 0.249699 -0.344888
C67   C     C_3   0.198577 0.698461 0.750329 -0.344858
C68   C     C_3   0.801165 0.301763 0.249760 -0.343991
C69   C     C_3   0.301736 0.198820 0.750247 -0.344515
C70   C     C_3   0.698349 0.801266 0.249715 -0.345890
C71   C     C_3   0.801254 0.301668 0.750230 -0.345640
C72   C     C_3   0.198234 0.698822 0.250209 -0.345972
C73   C     C_3   0.200508 0.233424 0.272265 0.333701
C74   C     C_3   0.758908 0.724319 0.720852 0.299593
C75   C     C_3   0.768839 0.198652 0.271160 0.333803
C76   C     C_3   0.233309 0.799318 0.727702 0.333591
C77   C     C_3   0.799907 0.767368 0.272035 0.330503
C78   C     C_3   0.198887 0.231412 0.728643 0.333633
C79   C     C_3   0.275418 0.759154 0.279164 0.299809
C80   C     C_3   0.768340 0.198843 0.728606 0.331023
C81   C     C_3   0.741092 0.775681 0.779147 0.299592
C82   C     C_3   0.299492 0.266575 0.227735 0.333699
C83   C     C_3   0.266691 0.700682 0.772298 0.333591
C84   C     C_3   0.731161 0.301349 0.228840 0.333803
C85   C     C_3   0.301113 0.268588 0.771357 0.333633
C86   C     C_3   0.700093 0.732632 0.227965 0.330501
C87   C     C_3   0.731659 0.301157 0.771394 0.331023
C88   C     C_3   0.224582 0.740846 0.220836 0.299811
C89   C     C_R   0.500268 0.066632 0.114963 -0.228043
C90   C     C_R   0.499875 0.933370 0.885037 -0.224243
C91   C     C_R   0.933236 0.500189 0.114916 -0.230427
C92   C     C_R   0.066772 0.499776 0.885083 -0.228093
C93   C     C_R   0.499810 0.933107 0.114872 -0.234679
C94   C     C_R   0.500229 0.066895 0.885127 -0.230184
C95   C     C_R   0.066763 0.499897 0.114920 -0.224234
C96   C     C_R   0.933245 0.500178 0.885082 -0.234883
C97   C     C_R   0.000131 0.566630 0.614963 -0.224243
C98   C     C_R   0.999717 0.433368 0.385037 -0.228041
C99   C     C_R   0.433228 0.000203 0.614916 -0.228096
C100  C     C_R   0.566765 0.999831 0.385084 -0.230428
C101  C     C_R   0.999766 0.433105 0.614873 -0.230183
C102  C     C_R   0.000205 0.566892 0.385128 -0.234680
C103  C     C_R   0.566756 0.999843 0.614918 -0.234881
C104  C     C_R   0.433238 0.000083 0.385080 -0.224233
H1    H     H_    0.501467 0.118536 0.127534 0.209797
H2    H     H_    0.498704 0.881464 0.872467 0.206989
H3    H     H_    0.881340 0.501321 0.127453 0.209096
H4    H     H_    0.118666 0.498596 0.872544 0.209652
H5    H     H_    0.498609 0.881224 0.127377 0.211452
H6    H     H_    0.501376 0.118778 0.872621 0.209339
H7    H     H_    0.118659 0.498763 0.127460 0.206990
H8    H     H_    0.881349 0.501353 0.872545 0.211413
H9    H     H_    0.001306 0.618535 0.627533 0.206989
H10   H     H_    0.998505 0.381465 0.372466 0.209800
H11   H     H_    0.381334 0.001365 0.627455 0.209651
H12   H     H_    0.618662 0.998714 0.372547 0.209098
H13   H     H_    0.998615 0.381222 0.627379 0.209338
H14   H     H_    0.001418 0.618775 0.372623 0.211452
H15   H     H_    0.618652 0.998684 0.627455 0.211415
H16   H     H_    0.381341 0.001200 0.372541 0.206989
C105  C     C_R   0.501391 0.067568 0.082364 0.281496
C106  C     C_R   0.498797 0.932435 0.917636 0.282054
C107  C     C_R   0.932296 0.501306 0.082313 0.282602
C108  C     C_R   0.067718 0.498671 0.917686 0.281630
C109  C     C_R   0.498718 0.932160 0.082264 0.281865
C110  C     C_R   0.501366 0.067846 0.917734 0.282577
C111  C     C_R   0.067709 0.498802 0.082317 0.282135
C112  C     C_R   0.932306 0.501286 0.917686 0.281809
C113  C     C_R   0.001209 0.567564 0.582364 0.282056
C114  C     C_R   0.998592 0.432432 0.417636 0.281494
C115  C     C_R   0.432283 0.001308 0.582314 0.281629
C116  C     C_R   0.567707 0.998715 0.417687 0.282597
C117  C     C_R   0.998628 0.432155 0.582266 0.282581
C118  C     C_R   0.001297 0.567839 0.417736 0.281865
C119  C     C_R   0.567696 0.998736 0.582314 0.281805
C120  C     C_R   0.432292 0.001178 0.417684 0.282133
C121  C     C_R   0.500053 0.999866 0.065753 -0.180294
C122  C     C_R   0.500100 0.000140 0.934247 -0.180927
C123  C     C_R   0.000004 0.500052 0.065753 -0.180913
C124  C     C_R   0.000013 0.499984 0.934247 -0.180285
C125  C     C_R   0.999900 0.499860 0.565753 -0.180928
C126  C     C_R   0.999947 0.500134 0.434247 -0.180295
C127  C     C_R   0.499988 0.000018 0.565752 -0.180288
C128  C     C_R   0.499999 0.999949 0.434247 -0.180915
C129  C     C_R   0.500025 0.999876 0.131389 -0.123041
C130  C     C_R   0.500035 0.000125 0.868610 -0.121422
C131  C     C_R   0.999998 0.500030 0.131390 -0.121339
C132  C     C_R   0.000007 0.499982 0.868611 -0.122969
C133  C     C_R   0.999966 0.499875 0.631390 -0.121425
C134  C     C_R   0.999975 0.500124 0.368611 -0.123045
C135  C     C_R   0.499993 0.000018 0.631389 -0.122966
C136  C     C_R   0.500002 0.999969 0.368610 -0.121337
N1    N     N_R   0.551602 0.960985 0.015451 -0.094153
N2    N     N_R   0.448562 0.039026 0.984549 -0.094992
N3    N     N_R   0.038955 0.551583 0.015528 -0.094150
N4    N     N_R   0.961066 0.448454 0.984472 -0.094372
N5    N     N_R   0.448529 0.038926 0.015531 -0.095264
N6    N     N_R   0.551635 0.961087 0.984469 -0.094025
N7    N     N_R   0.961062 0.448472 0.015454 -0.094869
N8    N     N_R   0.038960 0.551564 0.984545 -0.095062
N9    N     N_R   0.051431 0.460965 0.515451 -0.094992
N10   N     N_R   0.948405 0.539024 0.484548 -0.094155
N11   N     N_R   0.538910 0.051569 0.515528 -0.094379
N12   N     N_R   0.461073 0.948399 0.484472 -0.094158
N13   N     N_R   0.948372 0.538923 0.515531 -0.094023
N14   N     N_R   0.051464 0.461065 0.484469 -0.095265
N15   N     N_R   0.461068 0.948418 0.515455 -0.095069
N16   N     N_R   0.538914 0.051551 0.484546 -0.094875
C137  C     C_R   0.999957 0.500102 0.468500 0.418321
C138  C     C_R   0.999880 0.499887 0.531500 0.418611
C139  C     C_R   0.499996 0.999965 0.468500 0.418630
C140  C     C_R   0.499987 0.000003 0.531500 0.418325
C141  C     C_R   0.500120 0.000113 0.968500 0.418613
C142  C     C_R   0.500043 0.999898 0.031500 0.418314
C143  C     C_R   0.000015 0.499999 0.968500 0.418307
C144  C     C_R   0.000006 0.500037 0.031500 0.418610
O53   O     O_3   0.177589 0.257295 0.193712 -0.610469
C145  C     C_3   0.210695 0.211961 0.170900 -0.211544
H17   H     H_    0.226885 0.156690 0.179917 0.176573
H18   H     H_    0.259390 0.239744 0.160554 0.203481
H19   H     H_    0.170202 0.202829 0.151905 0.181775
O54   O     O_3   0.883089 0.805094 0.770734 -0.590212
C146  C     C_3   0.876639 0.878238 0.781834 -0.256088
H20   H     H_    0.854667 0.878901 0.805912 0.194362
H21   H     H_    0.841890 0.913861 0.766648 0.177140
H22   H     H_    0.932482 0.903239 0.782611 0.162002
O55   O     O_3   0.737803 0.182653 0.192690 -0.609683
C147  C     C_3   0.780833 0.218043 0.169754 -0.207925
H23   H     H_    0.836792 0.233868 0.178173 0.175473
H24   H     H_    0.751838 0.267386 0.160631 0.203516
H25   H     H_    0.788479 0.179282 0.149993 0.182927
O56   O     O_3   0.257452 0.822847 0.806243 -0.610523
C148  C     C_3   0.212230 0.789881 0.829070 -0.211709
H26   H     H_    0.240088 0.741286 0.839448 0.203465
H27   H     H_    0.156934 0.773583 0.820057 0.176615
H28   H     H_    0.203144 0.830510 0.848040 0.181723
O57   O     O_3   0.821245 0.741368 0.193466 -0.611769
C149  C     C_3   0.787585 0.786016 0.170622 -0.210276
H29   H     H_    0.771223 0.841416 0.179529 0.175976
H30   H     H_    0.738890 0.757745 0.160461 0.203727
H31   H     H_    0.827768 0.794928 0.151504 0.181965
O58   O     O_3   0.181992 0.261583 0.807148 -0.609580
C150  C     C_3   0.217096 0.218291 0.830069 -0.208148
H32   H     H_    0.266303 0.247204 0.839434 0.203450
H33   H     H_    0.233064 0.162443 0.821540 0.175336
H34   H     H_    0.178076 0.210384 0.849685 0.182773
O59   O     O_3   0.195139 0.882924 0.229120 -0.590420
C151  C     C_3   0.122076 0.876426 0.217978 -0.255928
H35   H     H_    0.086288 0.841910 0.233189 0.176840
H36   H     H_    0.121575 0.854151 0.193931 0.194591
H37   H     H_    0.097152 0.932291 0.217106 0.162125
O60   O     O_3   0.738826 0.182095 0.807125 -0.611462
C152  C     C_3   0.782401 0.217155 0.830025 -0.207844
H38   H     H_    0.753705 0.266472 0.839415 0.203904
H39   H     H_    0.838224 0.232937 0.821462 0.176052
H40   H     H_    0.790355 0.178178 0.849629 0.182659
O61   O     O_3   0.616911 0.694906 0.729266 -0.590212
C153  C     C_3   0.623361 0.621762 0.718166 -0.256091
H41   H     H_    0.658110 0.586139 0.733353 0.177141
H42   H     H_    0.645334 0.621099 0.694088 0.194363
H43   H     H_    0.567518 0.596761 0.717389 0.162003
O62   O     O_3   0.322411 0.242705 0.306288 -0.610466
C154  C     C_3   0.289305 0.288039 0.329100 -0.211554
H44   H     H_    0.240610 0.260256 0.339446 0.203479
H45   H     H_    0.273116 0.343310 0.320083 0.176574
H46   H     H_    0.329798 0.297170 0.348095 0.181774
O63   O     O_3   0.242548 0.677153 0.693757 -0.610524
C155  C     C_3   0.287769 0.710119 0.670930 -0.211702
H47   H     H_    0.343066 0.726417 0.679943 0.176614
H48   H     H_    0.259912 0.758714 0.660552 0.203467
H49   H     H_    0.296856 0.669490 0.651960 0.181724
O64   O     O_3   0.762197 0.317347 0.307310 -0.609685
C156  C     C_3   0.719167 0.281957 0.330246 -0.207919
H50   H     H_    0.748163 0.232614 0.339369 0.203519
H51   H     H_    0.663209 0.266132 0.321827 0.175471
H52   H     H_    0.711521 0.320718 0.350007 0.182929
O65   O     O_3   0.318007 0.238417 0.692852 -0.609579
C157  C     C_3   0.282904 0.281709 0.669930 -0.208152
H53   H     H_    0.266936 0.337557 0.678460 0.175336
H54   H     H_    0.233697 0.252796 0.660566 0.203448
H55   H     H_    0.321924 0.289616 0.650315 0.182772
O66   O     O_3   0.678755 0.758632 0.306534 -0.611767
C158  C     C_3   0.712415 0.713984 0.329377 -0.210283
H56   H     H_    0.761111 0.742254 0.339539 0.203725
H57   H     H_    0.728776 0.658584 0.320471 0.175978
H58   H     H_    0.672232 0.705072 0.348496 0.181964
O67   O     O_3   0.761174 0.317905 0.692875 -0.611463
C159  C     C_3   0.717599 0.282845 0.669975 -0.207832
H59   H     H_    0.661777 0.267061 0.678538 0.176049
H60   H     H_    0.746296 0.233528 0.660584 0.203905
H61   H     H_    0.709643 0.321822 0.650371 0.182659
O68   O     O_3   0.304862 0.617076 0.270879 -0.590419
C160  C     C_3   0.377925 0.623574 0.282021 -0.255922
H62   H     H_    0.378425 0.645846 0.306069 0.194588
H63   H     H_    0.413711 0.658093 0.266811 0.176840
H64   H     H_    0.402850 0.567709 0.282892 0.162123
O69   O     O_3   0.190077 0.112952 0.238122 -0.592292
C161  C     C_3   0.114382 0.117214 0.230446 -0.233302
H65   H     H_    0.107318 0.129737 0.205371 0.190476
H66   H     H_    0.083426 0.158312 0.244674 0.195046
H67   H     H_    0.088820 0.062573 0.234804 0.152575
O70   O     O_3   0.789989 0.864584 0.711372 -0.583289
C162  C     C_3   0.862964 0.856984 0.700273 -0.211190
H68   H     H_    0.876869 0.799399 0.693304 0.193732
H69   H     H_    0.903155 0.876948 0.717843 0.183519
H70   H     H_    0.869341 0.892149 0.679332 0.183130
O71   O     O_3   0.886325 0.192418 0.235026 -0.607259
C163  C     C_3   0.882248 0.117463 0.226117 -0.262939
H71   H     H_    0.864974 0.112341 0.201453 0.197893
H72   H     H_    0.844746 0.084334 0.241145 0.202123
H73   H     H_    0.938189 0.092956 0.228090 0.148128
O72   O     O_3   0.112965 0.809924 0.761826 -0.592221
C164  C     C_3   0.117218 0.885679 0.769457 -0.232904
H74   H     H_    0.158322 0.916535 0.755249 0.195150
H75   H     H_    0.129725 0.892935 0.794540 0.190312
H76   H     H_    0.062580 0.911201 0.765033 0.152580
O73   O     O_3   0.808861 0.887114 0.237451 -0.600082
C165  C     C_3   0.884419 0.883425 0.229501 -0.286450
H77   H     H_    0.891241 0.867982 0.204687 0.194918
H78   H     H_    0.916370 0.844695 0.244427 0.192015
H79   H     H_    0.908962 0.939102 0.232588 0.154146
O74   O     O_3   0.192183 0.113532 0.764437 -0.607040
C166  C     C_3   0.117128 0.117542 0.773147 -0.262785
H80   H     H_    0.084195 0.155287 0.758152 0.201841
H81   H     H_    0.111741 0.134460 0.797853 0.197846
H82   H     H_    0.092592 0.061651 0.770918 0.147895
O75   O     O_3   0.135061 0.790345 0.288495 -0.583720
C167  C     C_3   0.142593 0.863399 0.299563 -0.212471
H83   H     H_    0.122923 0.903481 0.281937 0.183554
H84   H     H_    0.200099 0.877288 0.306622 0.194021
H85   H     H_    0.107142 0.869986 0.320440 0.183228
O76   O     O_3   0.886525 0.192003 0.764305 -0.601106
C168  C     C_3   0.882481 0.116951 0.772965 -0.286318
H86   H     H_    0.844573 0.084066 0.757969 0.190565
H87   H     H_    0.865737 0.111597 0.797677 0.196212
H88   H     H_    0.938323 0.092329 0.770689 0.154151
O77   O     O_3   0.710011 0.635416 0.788627 -0.583288
C169  C     C_3   0.637036 0.643016 0.799727 -0.211193
H89   H     H_    0.596845 0.623055 0.782157 0.183521
H90   H     H_    0.623132 0.700600 0.806697 0.193732
H91   H     H_    0.630658 0.607849 0.820667 0.183133
O78   O     O_3   0.309923 0.387048 0.261878 -0.592291
C170  C     C_3   0.385618 0.382786 0.269554 -0.233303
H92   H     H_    0.416574 0.341688 0.255326 0.195046
H93   H     H_    0.392682 0.370263 0.294629 0.190477
H94   H     H_    0.411180 0.437427 0.265196 0.152575
O79   O     O_3   0.387035 0.690076 0.738174 -0.592221
C171  C     C_3   0.382782 0.614321 0.730542 -0.232905
H95   H     H_    0.370275 0.607065 0.705460 0.190312
H96   H     H_    0.341678 0.583465 0.744751 0.195150
H97   H     H_    0.437420 0.588799 0.734967 0.152581
O80   O     O_3   0.613674 0.307581 0.264974 -0.607258
C172  C     C_3   0.617752 0.382536 0.273883 -0.262939
H98   H     H_    0.655254 0.415666 0.258855 0.202123
H99   H     H_    0.635026 0.387658 0.298547 0.197893
H100  H     H_    0.561810 0.407044 0.271910 0.148128
O81   O     O_3   0.307818 0.386468 0.735563 -0.607040
C173  C     C_3   0.382872 0.382458 0.726853 -0.262785
H101  H     H_    0.388259 0.365541 0.702147 0.197845
H102  H     H_    0.415805 0.344712 0.741848 0.201841
H103  H     H_    0.407408 0.438348 0.729082 0.147895
O82   O     O_3   0.691138 0.612886 0.262549 -0.600082
C174  C     C_3   0.615581 0.616575 0.270498 -0.286452
H104  H     H_    0.583630 0.655304 0.255572 0.192016
H105  H     H_    0.608757 0.632020 0.295312 0.194919
H106  H     H_    0.591038 0.560898 0.267412 0.154147
O83   O     O_3   0.613475 0.307997 0.735695 -0.601107
C175  C     C_3   0.617519 0.383049 0.727035 -0.286317
H107  H     H_    0.634262 0.388402 0.702323 0.196212
H108  H     H_    0.655427 0.415933 0.742031 0.190565
H109  H     H_    0.561677 0.407671 0.729311 0.154151
O84   O     O_3   0.364939 0.709655 0.211505 -0.583721
C176  C     C_3   0.357407 0.636600 0.200438 -0.212462
H110  H     H_    0.299900 0.622707 0.193382 0.194019
H111  H     H_    0.377086 0.596520 0.218061 0.183548
H112  H     H_    0.392852 0.630016 0.179558 0.183226
O85   O     O_3   0.146265 0.221425 0.295337 -0.587159
C177  C     C_3   0.156838 0.151689 0.309258 -0.211735
H113  H     H_    0.215907 0.139064 0.314074 0.192758
H114  H     H_    0.132457 0.107439 0.294649 0.182399
H115  H     H_    0.127379 0.151139 0.331892 0.187761
O86   O     O_3   0.772057 0.692604 0.691315 -0.609380
C178  C     C_3   0.733024 0.732032 0.668278 -0.199631
H116  H     H_    0.763550 0.782604 0.661544 0.203384
H117  H     H_    0.675811 0.746749 0.675464 0.174766
H118  H     H_    0.728667 0.696739 0.647229 0.185017
O87   O     O_3   0.783209 0.142413 0.293084 -0.588097
C179  C     C_3   0.854039 0.152277 0.306162 -0.203738
H119  H     H_    0.866643 0.210947 0.311835 0.195613
H120  H     H_    0.897202 0.129724 0.290510 0.183799
H121  H     H_    0.856773 0.120699 0.328231 0.184854
O88   O     O_3   0.221201 0.853386 0.704598 -0.587256
C180  C     C_3   0.151416 0.842673 0.690674 -0.211376
H122  H     H_    0.107207 0.867122 0.705267 0.182467
H123  H     H_    0.138811 0.783564 0.685882 0.192701
H124  H     H_    0.150760 0.871978 0.668026 0.187740
O89   O     O_3   0.854612 0.780167 0.294860 -0.585326
C181  C     C_3   0.843932 0.850120 0.308688 -0.187635
H125  H     H_    0.784905 0.862509 0.313714 0.191501
H126  H     H_    0.867705 0.894250 0.293903 0.184840
H127  H     H_    0.873888 0.851298 0.331207 0.187711
O90   O     O_3   0.142899 0.217319 0.706518 -0.588589
C182  C     C_3   0.152873 0.146630 0.693276 -0.203893
H128  H     H_    0.130050 0.103316 0.708735 0.183899
H129  H     H_    0.211609 0.134025 0.687762 0.195590
H130  H     H_    0.121604 0.144178 0.671096 0.185237
O91   O     O_3   0.306872 0.772560 0.308718 -0.609227
C183  C     C_3   0.267251 0.733708 0.331749 -0.199463
H131  H     H_    0.252711 0.676397 0.324606 0.174763
H132  H     H_    0.216550 0.764214 0.338391 0.203393
H133  H     H_    0.302318 0.729635 0.352846 0.185215
O92   O     O_3   0.782181 0.142816 0.706439 -0.584647
C184  C     C_3   0.852756 0.152716 0.693141 -0.190349
H134  H     H_    0.896204 0.129935 0.708561 0.184047
H135  H     H_    0.865332 0.211425 0.687624 0.192265
H136  H     H_    0.854992 0.121365 0.670956 0.186922
O93   O     O_3   0.727944 0.807395 0.808685 -0.609381
C185  C     C_3   0.766977 0.767968 0.831721 -0.199626
H137  H     H_    0.824190 0.753252 0.824536 0.174764
H138  H     H_    0.736451 0.717396 0.838456 0.203385
H139  H     H_    0.771333 0.803261 0.852771 0.185019
O94   O     O_3   0.353735 0.278575 0.204662 -0.587160
C186  C     C_3   0.343162 0.348311 0.190742 -0.211731
H140  H     H_    0.367542 0.392561 0.205351 0.182398
H141  H     H_    0.284093 0.360936 0.185926 0.192759
H142  H     H_    0.372621 0.348861 0.168108 0.187764
O95   O     O_3   0.278799 0.646614 0.795402 -0.587255
C187  C     C_3   0.348584 0.657327 0.809326 -0.211380
H143  H     H_    0.361188 0.716436 0.814118 0.192701
H144  H     H_    0.392793 0.632879 0.794733 0.182468
H145  H     H_    0.349240 0.628021 0.831973 0.187739
O96   O     O_3   0.716791 0.357588 0.206916 -0.588095
C188  C     C_3   0.645961 0.347723 0.193838 -0.203744
H146  H     H_    0.602798 0.370276 0.209490 0.183800
H147  H     H_    0.633357 0.289053 0.188165 0.195613
H148  H     H_    0.643227 0.379301 0.171769 0.184852
O97   O     O_3   0.357101 0.282681 0.793482 -0.588590
C189  C     C_3   0.347127 0.353370 0.806724 -0.203890
H149  H     H_    0.288391 0.365976 0.812238 0.195591
H150  H     H_    0.369951 0.396684 0.791265 0.183898
H151  H     H_    0.378396 0.355821 0.828904 0.185239
O98   O     O_3   0.645388 0.719833 0.205139 -0.585326
C190  C     C_3   0.656069 0.649880 0.191312 -0.187632
H152  H     H_    0.632296 0.605750 0.206097 0.184839
H153  H     H_    0.715095 0.637492 0.186285 0.191501
H154  H     H_    0.626112 0.648702 0.168792 0.187713
O99   O     O_3   0.717819 0.357184 0.793561 -0.584647
C191  C     C_3   0.647244 0.347285 0.806859 -0.190352
H155  H     H_    0.634669 0.288575 0.812376 0.192265
H156  H     H_    0.603796 0.370065 0.791439 0.184048
H157  H     H_    0.645008 0.378636 0.829044 0.186922
O100  O     O_3   0.193127 0.727440 0.191282 -0.609227
C192  C     C_3   0.232750 0.766290 0.168251 -0.199464
H158  H     H_    0.283449 0.735782 0.161609 0.203391
H159  H     H_    0.247292 0.823601 0.175394 0.174765
H160  H     H_    0.197682 0.770365 0.147154 0.185209
N17   N     N_R   0.506335 0.137561 0.066653 0.225546
O101  O     O_R   0.475121 0.195785 0.078638 -0.340862
O102  O     O_R   0.550257 0.145764 0.042929 -0.311337
N18   N     N_R   0.493931 0.862440 0.933348 0.225341
O103  O     O_R   0.525209 0.804249 0.921365 -0.341020
O104  O     O_R   0.450013 0.854191 0.957072 -0.312046
N19   N     N_R   0.862297 0.506153 0.066550 0.225711
O105  O     O_R   0.804101 0.474905 0.078475 -0.340602
O106  O     O_R   0.854052 0.550016 0.042834 -0.311109
N20   N     N_R   0.137717 0.493779 0.933447 0.225551
O107  O     O_R   0.195937 0.524964 0.921514 -0.340718
O108  O     O_R   0.145929 0.449938 0.957172 -0.311426
N21   N     N_R   0.493820 0.862163 0.066445 0.225156
O109  O     O_R   0.524951 0.803930 0.078372 -0.337982
O110  O     O_R   0.450026 0.853970 0.042662 -0.312621
N22   N     N_R   0.506241 0.137847 0.933550 0.225774
O111  O     O_R   0.475055 0.196059 0.921631 -0.340373
O112  O     O_R   0.550064 0.146069 0.957322 -0.310962
N23   N     N_R   0.137713 0.493977 0.066552 0.225355
O113  O     O_R   0.195893 0.525253 0.078529 -0.340964
O114  O     O_R   0.145980 0.450104 0.042773 -0.311888
N24   N     N_R   0.862309 0.506176 0.933454 0.225145
O115  O     O_R   0.804095 0.474965 0.921476 -0.338280
O116  O     O_R   0.854091 0.550041 0.957237 -0.312484
N25   N     N_R   0.006082 0.637559 0.566652 0.225343
O117  O     O_R   0.974809 0.695752 0.578635 -0.341024
O118  O     O_R   0.050002 0.645804 0.542929 -0.312044
N26   N     N_R   0.993631 0.362440 0.433346 0.225548
O119  O     O_R   0.024824 0.304207 0.421361 -0.340862
O120  O     O_R   0.949710 0.354250 0.457072 -0.311341
N27   N     N_R   0.362282 0.006175 0.566552 0.225552
O121  O     O_R   0.304073 0.974971 0.578485 -0.340720
O122  O     O_R   0.354056 0.050011 0.542827 -0.311422
N28   N     N_R   0.637709 0.993892 0.433450 0.225712
O123  O     O_R   0.695896 0.025151 0.421522 -0.340608
O124  O     O_R   0.645967 0.950041 0.457168 -0.311103
N29   N     N_R   0.993747 0.362155 0.566449 0.225776
O125  O     O_R   0.024932 0.303942 0.578367 -0.340373
O126  O     O_R   0.949919 0.353936 0.542680 -0.310962
N30   N     N_R   0.006213 0.637835 0.433555 0.225156
O127  O     O_R   0.975097 0.696076 0.421628 -0.337981
O128  O     O_R   0.050007 0.646016 0.457338 -0.312625
N31   N     N_R   0.637695 0.993871 0.566546 0.225146
O129  O     O_R   0.695899 0.025099 0.578525 -0.338285
O130  O     O_R   0.645927 0.950015 0.542761 -0.312479
N32   N     N_R   0.362287 0.005980 0.433449 0.225353
O131  O     O_R   0.304117 0.974684 0.421473 -0.340962
O132  O     O_R   0.354007 0.049848 0.457228 -0.311886

loop_
_geom_bond_atom_site_label_1
_geom_bond_atom_site_label_2
_geom_bond_distance
_ccdc_geom_bond_type
C174  H106  1.109406 S    
C105  N17   1.439683 S    
C178  H117  1.113141 S    
C92   H4    1.083234 S    
O89   C181  1.411276 S    
C154  H44   1.108495 S    
Zn7   O39   1.938314 S    
C34   C57   1.550154 S    
C49   C65   1.550350 S    
O100  C192  1.410986 S    
Zn8   O40   1.938314 S    
C191  H156  1.108458 S    
C156  H50   1.108462 S    
C74   O86   1.411980 S    
C152  H40   1.109103 S    
C119  N31   1.439680 S    
O88   C180  1.411132 S    
C175  H108  1.113128 S    
C6    C131  1.476153 S    
C30   C46   1.540395 S    
C62   C78   1.553674 S    
C150  H32   1.108498 S    
C147  H25   1.109086 S    
Zn6   O19   1.923114 S    
N32   O131  1.301489 A    
C99   C135  1.400684 A    
N9    N14   1.330891 A    
C52   O64   1.411890 S    
C40   C63   1.553478 S    
C185  H139  1.109075 S    
C109  N21   1.439681 S    
C8    C129  1.476176 S    
O34   C22   1.271839 A    
Zn11  O51   1.937336 S    
C185  H138  1.108404 S    
Zn3   O3    1.943349 S    
N11   N16   1.330899 A    
C36   O80   1.412375 S    
C61   C77   1.553689 S    
Zn13  O4    1.941742 S    
C171  H97   1.108443 S    
C70   C86   1.553685 S    
Zn10  O50   1.937400 S    
O53   C145  1.410805 S    
N19   O106  1.301454 A    
Zn6   O38   1.938131 S    
Zn6   O2    1.941738 S    
C68   C84   1.553713 S    
C28   C67   1.550256 S    
N23   O114  1.301448 A    
C39   O83   1.412481 S    
C56   C79   1.540393 S    
O70   C162  1.411341 S    
C38   O82   1.412659 S    
C91   C131  1.400672 A    
O72   C164  1.411772 S    
N25   O118  1.301438 A    
C184  H136  1.109099 S    
O22   C10   1.269320 A    
Zn3   O18   1.922288 S    
N27   O122  1.301445 A    
N24   O115  1.301488 A    
C115  N27   1.439688 S    
C167  H85   1.109131 S    
C42   O54   1.412248 S    
C159  H59   1.113083 S    
N14   C137  1.357046 A    
C173  H102  1.113154 S    
C98   C114  1.400613 A    
C28   C76   1.538900 S    
O75   C167  1.411348 S    
C86   O98   1.412503 S    
N26   O119  1.301479 A    
C120  C128  1.417552 A    
C161  H67   1.108468 S    
C166  H81   1.108371 S    
C157  H53   1.113096 S    
C44   C83   1.539321 S    
C69   C85   1.553675 S    
C59   C75   1.553711 S    
C100  C136  1.400677 A    
C60   C76   1.553316 S    
C20   C70   1.459296 S    
C72   C88   1.549897 S    
O17   C5    1.285703 A    
C155  H47   1.113043 S    
Zn7   O3    1.943465 S    
C172  H98   1.113130 S    
C177  H114  1.108460 S    
C173  H103  1.109149 S    
O9    C1    1.285712 A    
O39   C15   1.273073 A    
C110  N22   1.439678 S    
O11   C3    1.285891 A    
O64   C156  1.410928 S    
C156  H52   1.109086 S    
C31   C79   1.539302 S    
C53   O65   1.411894 S    
C153  H43   1.108253 S    
C29   C77   1.538965 S    
Zn14  O3    1.941738 S    
Zn15  O26   1.936782 S    
C163  H71   1.108366 S    
C22   C72   1.459025 S    
O79   C171  1.411774 S    
N28   O123  1.301494 A    
Zn3   O30   1.937807 S    
C179  H119  1.113078 S    
C36   C84   1.538953 S    
C79   O91   1.411991 S    
C49   C74   1.540413 S    
C113  N25   1.439669 S    
O77   C169  1.411341 S    
C153  H42   1.108236 S    
N18   O103  1.301484 A    
N12   N15   1.330899 A    
O93   C185  1.410982 S    
Zn9   O49   1.937400 S    
C102  C118  1.400915 A    
C128  C139  1.471371 S    
O71   C163  1.411327 S    
Zn4   O4    1.943345 S    
C189  H149  1.113095 S    
O47   C23   1.269301 A    
O85   C177  1.411134 S    
C39   C87   1.538906 S    
O80   C172  1.411327 S    
C11   C61   1.459296 S    
Zn15  O2    1.943465 S    
C37   C85   1.538938 S    
Zn5   O20   1.923114 S    
Zn11  O2    1.943349 S    
Zn16  O5    1.922227 S    
C1    C136  1.476162 S    
O27   C15   1.269111 A    
N15   C140  1.357022 A    
C166  H80   1.113154 S    
C98   H10   1.083229 S    
C124  C143  1.471353 S    
C80   O92   1.412473 S    
C192  H160  1.109088 S    
C176  H110  1.113080 S    
C166  H82   1.109150 S    
C182  H129  1.113096 S    
C188  H146  1.108444 S    
Zn12  O52   1.937336 S    
C3    C134  1.476172 S    
C159  H61   1.109103 S    
Zn8   O13   1.922227 S    
C159  H60   1.108479 S    
C154  H45   1.113051 S    
C106  C122  1.417468 A    
C190  H153  1.113093 S    
C148  H26   1.108493 S    
O14   C6    1.285689 A    
C13   C63   1.459025 S    
Zn14  O46   1.938131 S    
C55   C71   1.549793 S    
N22   O111  1.301486 A    
C58   C74   1.549896 S    
C91   C107  1.400766 A    
C53   C69   1.549884 S    
O18   C6    1.285713 A    
C155  H49   1.109078 S    
C35   O79   1.412057 S    
C100  H12   1.083235 S    
C57   C73   1.553531 S    
C187  H143  1.113127 S    
C147  H24   1.108464 S    
C172  H100  1.109127 S    
C5    C132  1.476170 S    
C75   O87   1.412441 S    
C28   O72   1.412056 S    
C104  C136  1.400679 A    
C183  H133  1.109088 S    
C97   C133  1.400715 A    
C186  H142  1.109075 S    
C170  H94   1.108468 S    
C41   O53   1.411874 S    
C85   O97   1.412447 S    
C119  C127  1.417548 A    
O74   C166  1.411347 S    
C163  H73   1.109128 S    
C117  C125  1.417636 A    
O76   C168  1.411484 S    
C171  H96   1.113467 S    
C33   C58   1.553502 S    
C77   O89   1.412500 S    
Zn4   O29   1.937807 S    
C164  H75   1.108540 S    
Zn5   O32   1.937660 S    
N20   O108  1.301450 A    
C109  C121  1.417643 A    
Zn6   O31   1.937660 S    
C26   C74   1.539311 S    
C179  H121  1.109087 S    
C51   O63   1.411882 S    
C48   O60   1.411893 S    
O60   C152  1.410925 S    
N7    C144  1.357025 A    
O98   C190  1.411276 S    
C84   O96   1.412441 S    
C146  H22   1.108253 S    
N2    N5    1.330891 A    
C118  N30   1.439678 S    
O5    C1    1.285691 A    
N11   C140  1.357019 A    
N21   O110  1.301445 A    
O31   C19   1.268015 A    
C112  C124  1.417548 A    
N17   O101  1.301487 A    
C32   C71   1.550246 S    
Zn1   O41   1.937400 S    
C165  H78   1.113161 S    
C182  H128  1.108486 S    
C48   C64   1.549796 S    
C71   C87   1.553860 S    
C160  H64   1.108314 S    
Zn4   O44   1.937336 S    
C167  H84   1.113079 S    
C192  H158  1.108438 S    
C93   C109  1.400911 A    
C107  C123  1.417556 A    
N29   O126  1.301429 A    
C169  H91   1.109084 S    
O86   C178  1.410982 S    
C161  H65   1.108539 S    
C149  H30   1.108586 S    
C42   C58   1.550350 S    
N30   O128  1.301446 A    
C160  H62   1.108255 S    
C180  H124  1.109084 S    
C158  H57   1.113067 S    
C55   O67   1.411897 S    
C122  C141  1.471376 S    
C49   O61   1.412248 S    
N27   O121  1.301492 A    
O78   C170  1.411757 S    
C32   O76   1.412483 S    
C176  H112  1.109129 S    
O8    C4    1.285544 A    
C165  H79   1.109406 S    
C94   C130  1.400637 A    
C188  H148  1.109085 S    
C18   C68   1.459546 S    
C174  H105  1.108398 S    
C145  H17   1.113053 S    
O44   C12   1.272095 A    
C177  H113  1.113132 S    
C24   C66   1.459297 S    
Zn7   O34   1.936782 S    
O84   C176  1.411350 S    
C149  H31   1.109224 S    
C90   H2    1.083234 S    
O16   C8    1.285545 A    
C148  H28   1.109079 S    
N23   O113  1.301488 A    
C96   C112  1.400760 A    
N4    C143  1.357020 A    
C37   C62   1.550258 S    
C152  H39   1.113083 S    
Zn1   O1    1.945118 S    
C2    C135  1.476174 S    
N16   C139  1.357023 A    
C183  H131  1.113126 S    
C41   C82   1.539285 S    
C120  N32   1.439669 S    
C123  C144  1.471375 S    
C44   O56   1.411882 S    
C95   H7    1.083232 S    
C187  H145  1.109083 S    
C27   C68   1.550255 S    
N32   O132  1.301445 A    
C114  C126  1.417459 A    
C162  H70   1.109084 S    
C29   O73   1.412660 S    
C94   H6    1.083234 S    
C186  H140  1.108460 S    
C83   O95   1.412426 S    
O95   C187  1.411131 S    
C36   C59   1.550254 S    
C55   C80   1.539288 S    
C89   H1    1.083233 S    
C99   C115  1.400772 A    
C53   C78   1.539300 S    
N10   C137  1.356998 A    
C161  H66   1.113464 S    
C36   C52   1.540415 S    
C29   C45   1.540392 S    
Zn16  O25   1.936782 S    
O6    C2    1.285706 A    
C103  C135  1.400684 A    
C121  C142  1.471359 S    
C25   C41   1.540226 S    
C145  H19   1.109073 S    
C150  H34   1.109120 S    
C101  C133  1.400633 A    
C27   C75   1.538957 S    
C34   O78   1.412055 S    
C47   C88   1.540391 S    
C169  H90   1.113094 S    
C46   C62   1.549883 S    
C116  N28   1.439680 S    
O59   C151  1.411608 S    
C32   C48   1.540435 S    
C39   C55   1.540432 S    
C45   C86   1.539407 S    
C50   C73   1.539285 S    
C10   C60   1.459247 S    
C43   C84   1.539299 S    
C146  H20   1.108239 S    
C50   C66   1.549617 S    
C96   C132  1.400677 A    
C168  H87   1.108391 S    
C180  H122  1.108457 S    
C40   C56   1.538840 S    
C31   C47   1.538843 S    
N25   O117  1.301473 A    
C25   O69   1.412053 S    
C184  H135  1.113074 S    
Zn5   O1    1.941742 S    
C181  H125  1.113093 S    
N24   O116  1.301450 A    
C170  H92   1.113465 S    
C92   C132  1.400684 A    
C26   C65   1.553502 S    
O92   C184  1.411273 S    
O37   C13   1.268247 A    
O62   C154  1.410807 S    
C114  N26   1.439682 S    
Zn12  O21   1.937807 S    
C104  C120  1.400754 A    
C169  H89   1.108475 S    
Zn13  O24   1.937660 S    
O35   C23   1.272897 A    
Zn14  O23   1.937660 S    
Zn4   O17   1.922288 S    
C95   C131  1.400681 A    
Zn15  O6    1.922227 S    
C105  C121  1.417461 A    
Zn16  O1    1.943464 S    
C38   C86   1.538961 S    
N26   O120  1.301448 A    
Zn12  O1    1.943345 S    
N12   C139  1.357026 A    
C157  H54   1.108497 S    
O32   C20   1.268090 A    
Zn13  O12   1.923114 S    
Zn14  O11   1.923114 S    
C81   O93   1.411978 S    
C96   H8    1.083231 S    
C35   C83   1.538900 S    
C155  H48   1.108493 S    
O67   C159  1.410921 S    
Zn7   O14   1.922227 S    
C178  H118  1.109075 S    
C16   C58   1.459333 S    
C51   C76   1.539321 S    
O12   C4    1.285887 A    
C52   C75   1.539298 S    
C15   C57   1.459298 S    
C46   O58   1.411895 S    
C191  H155  1.113075 S    
C168  H88   1.109256 S    
N2    C141  1.356999 A    
C183  H132  1.108439 S    
O40   C16   1.269301 A    
C156  H51   1.113086 S    
C35   C51   1.540159 S    
C157  H55   1.109120 S    
C30   C69   1.550257 S    
C126  C137  1.471355 S    
O41   C9    1.273157 A    
C175  H107  1.108391 S    
C54   C70   1.549915 S    
C163  H72   1.113131 S    
O43   C11   1.272024 A    
O63   C155  1.410804 S    
O56   C148  1.410805 S    
N28   O124  1.301452 A    
O54   C146  1.411611 S    
O21   C9    1.269072 A    
N1    N6    1.330896 A    
C26   C42   1.538868 S    
C51   C67   1.549696 S    
C52   C68   1.549924 S    
N3    C144  1.357030 A    
O23   C11   1.268090 A    
Zn11  O22   1.937807 S    
N13   C138  1.357053 A    
O50   C18   1.273157 A    
O61   C153  1.411613 S    
O7    C3    1.285545 A    
Zn9   O4    1.945118 S    
O15   C7    1.285544 A    
C40   C88   1.539300 S    
C151  H37   1.108315 S    
C95   C111  1.400754 A    
Zn10  O3    1.945117 S    
O25   C13   1.271839 A    
C102  H14   1.083228 S    
N18   O104  1.301452 A    
Zn8   O4    1.943464 S    
C87   O99   1.412472 S    
C92   C108  1.400768 A    
C34   C82   1.538876 S    
C189  H150  1.108486 S    
O10   C2    1.285705 A    
O36   C24   1.269108 A    
C90   C130  1.400719 A    
O48   C24   1.273076 A    
C14   C64   1.459249 S    
N4    N7    1.330895 A    
O38   C14   1.272324 A    
C25   C73   1.538877 S    
O81   C173  1.411347 S    
N31   O130  1.301451 A    
O66   C158  1.410919 S    
C82   O94   1.412442 S    
C100  C116  1.400770 A    
C89   C129  1.400722 A    
C56   C72   1.550335 S    
O28   C16   1.272897 A    
O83   C175  1.411482 S    
Zn2   O42   1.937400 S    
O82   C174  1.411573 S    
C189  H151  1.109098 S    
C38   C54   1.540391 S    
C33   C49   1.538868 S    
C90   C106  1.400609 A    
C173  H101  1.108372 S    
N5    C142  1.357046 A    
C162  H68   1.113094 S    
C76   O88   1.412426 S    
N8    C143  1.357023 A    
C117  N29   1.439677 S    
C67   C83   1.553319 S    
C107  N19   1.439671 S    
N22   O112  1.301448 A    
C103  C119  1.400760 A    
O69   C161  1.411755 S    
Zn1   O36   1.937000 S    
C44   C60   1.549699 S    
Zn2   O35   1.937000 S    
O42   C10   1.272795 A    
C101  C117  1.400910 A    
C111  C123  1.417548 A    
O96   C188  1.411278 S    
C187  H144  1.108456 S    
O65   C157  1.410913 S    
C178  H116  1.108404 S    
C172  H99   1.108367 S    
O58   C150  1.410916 S    
C50   O62   1.411877 S    
N9    C138  1.356998 A    
C111  N23   1.439666 S    
Zn8   O33   1.936782 S    
C191  H157  1.109096 S    
C179  H120  1.108442 S    
C186  H141  1.113131 S    
C38   C61   1.550509 S    
C158  H56   1.108589 S    
C185  H137  1.113142 S    
C26   O70   1.412533 S    
Zn2   O2    1.945117 S    
C108  N20   1.439683 S    
O26   C14   1.267848 A    
C175  H109  1.109255 S    
C40   O84   1.412567 S    
C190  H152  1.108585 S    
C42   C81   1.540413 S    
C43   O55   1.411890 S    
C165  H77   1.108396 S    
C174  H104  1.113163 S    
C47   C63   1.550335 S    
C164  H74   1.113466 S    
C39   C64   1.550244 S    
C4    C133  1.476155 S    
C28   C44   1.540161 S    
O19   C7    1.285887 A    
C116  C128  1.417561 A    
C45   C61   1.549915 S    
Zn5   O37   1.938131 S    
C32   C80   1.538901 S    
C97   C113  1.400609 A    
C27   O71   1.412372 S    
C153  H41   1.113090 S    
C146  H21   1.113087 S    
O13   C5    1.285707 A    
N31   O129  1.301493 A    
C66   C82   1.553533 S    
C54   O66   1.411947 S    
N10   N13   1.330900 A    
N21   O109  1.301489 A    
C54   C77   1.539408 S    
O90   C182  1.411266 S    
C48   C87   1.539288 S    
O20   C8    1.285891 A    
C99   H11   1.083234 S    
C170  H93   1.108535 S    
C177  H115  1.109076 S    
N19   O105  1.301492 A    
O24   C12   1.268015 A    
O57   C149  1.410918 S    
C98   C134  1.400720 A    
C46   C85   1.539300 S    
C34   C50   1.540222 S    
C88   O100  1.411989 S    
O94   C186  1.411134 S    
C180  H123  1.113128 S    
C91   H3    1.083234 S    
C108  C124  1.417553 A    
C118  C126  1.417639 A    
C78   O90   1.412449 S    
C176  H111  1.108483 S    
O45   C21   1.272324 A    
C182  H130  1.109101 S    
C45   O57   1.411947 S    
N1    C142  1.357000 A    
C188  H147  1.113075 S    
C110  C122  1.417646 A    
C145  H18   1.108496 S    
C12   C62   1.459306 S    
C73   O85   1.412439 S    
C64   C80   1.553859 S    
C154  H46   1.109071 S    
C65   C81   1.549896 S    
C125  C138  1.471385 S    
C25   C66   1.550154 S    
C190  H154  1.109165 S    
C112  N24   1.439675 S    
O99   C191  1.411273 S    
C148  H27   1.113044 S    
N3    N8    1.330895 A    
N6    C141  1.357056 A    
C30   C78   1.538938 S    
Zn11  O10   1.922288 S    
C160  H63   1.113068 S    
C152  H38   1.108478 S    
Zn1   O16   1.921406 S    
C56   O68   1.412281 S    
Zn2   O15   1.921406 S    
O29   C17   1.269320 A    
O87   C179  1.411277 S    
C23   C65   1.459333 S    
C147  H23   1.113088 S    
C94   C110  1.400910 A    
O97   C189  1.411267 S    
C37   C53   1.540395 S    
C151  H35   1.113068 S    
C63   C79   1.549897 S    
C35   C60   1.550255 S    
C162  H69   1.108474 S    
C17   C67   1.459247 S    
C30   O74   1.412406 S    
C41   C57   1.549619 S    
C151  H36   1.108256 S    
C43   C59   1.549928 S    
O52   C20   1.272024 A    
C31   C72   1.553480 S    
C33   O77   1.412535 S    
O55   C147  1.410926 S    
C29   C70   1.550510 S    
C171  H95   1.108539 S    
C21   C71   1.459249 S    
N29   O125  1.301477 A    
C164  H76   1.108444 S    
C150  H33   1.113096 S    
C93   C129  1.400641 A    
N20   O107  1.301496 A    
Zn9   O28   1.937000 S    
Zn10  O27   1.937000 S    
C127  C140  1.471349 S    
C31   O75   1.412566 S    
O33   C21   1.267848 A    
C9    C59   1.459546 S    
C37   O81   1.412404 S    
Zn9   O8    1.921406 S    
O49   C17   1.272795 A    
Zn10  O7    1.921406 S    
C168  H86   1.113130 S    
C7    C130  1.476159 S    
O51   C19   1.272095 A    
C103  H15   1.083234 S    
Zn12  O9    1.922288 S    
C97   H9    1.083230 S    
O68   C160  1.411608 S    
C101  H13   1.083229 S    
N17   O102  1.301452 A    
C27   C43   1.540415 S    
C184  H134  1.108456 S    
C181  H126  1.108588 S    
C104  H16   1.083238 S    
O46   C22   1.268247 A    
C33   C81   1.539311 S    
C167  H83   1.108486 S    
C192  H159  1.113127 S    
C115  C127  1.417554 A    
C89   C105  1.400613 A    
C113  C125  1.417459 A    
C149  H29   1.113067 S    
O91   C183  1.410986 S    
C47   O59   1.412281 S    
Zn13  O45   1.938131 S    
N30   O127  1.301482 A    
C158  H58   1.109224 S    
Zn15  O47   1.938314 S    
Zn16  O48   1.938314 S    
O30   C18   1.269072 A    
O73   C165  1.411573 S    
C19   C69   1.459305 S    
C93   H5    1.083233 S    
C106  N18   1.439668 S    
C102  C134  1.400638 A    
C181  H127  1.109160 S    
Zn3   O43   1.937336 S    
