data_mof_unit_57769.cif
_audit_creation_date              2013-03-05T16:19:49-0500
_audit_creation_method            fapswitch 2.2
_symmetry_space_group_name_H-M    P1
_symmetry_Int_Tables_number       1
_space_group_crystal_system       triclinic
_cell_length_a                    8.216243
_cell_length_b                    18.889155
_cell_length_c                    27.05568
_cell_angle_alpha                 99.837917
_cell_angle_beta                  91.660373
_cell_angle_gamma                 88.0442
_cell_volume                      4133.68619901

loop_
_atom_site_label
_atom_site_type_symbol
_atom_site_description
_atom_site_fract_x
_atom_site_fract_y
_atom_site_fract_z
_atom_type_partial_charge
P1    P     P_3+3 0.929380 0.335110 0.452880 0.476229
O1    O     O_2   0.106080 0.324280 0.466820 -0.348332
O2    O     O_3   0.859130 0.413620 0.470620 -0.408448
O3    O     O_3   0.376230 0.370290 0.556910 -0.309555
O4    O     O_2   0.254950 0.247219 0.511243 -0.387729
O5    O     O_3   0.933916 0.312808 0.387296 -0.578328
O6    O     O_3   0.298885 0.248749 0.603828 -0.488546
C1    C     C_3   0.368570 0.162891 0.656940 -0.988765
H1    H     H_    0.252940 0.172598 0.677511 0.278098
H2    H     H_    0.350693 0.118434 0.624956 0.227789
P2    P     P_3+3 0.398530 0.559060 0.613740 0.474016
P3    P     P_3+3 0.974253 0.420532 0.649870 0.588980
O7    O     O_2   0.227190 0.537650 0.620070 -0.362542
O8    O     O_3   0.971110 0.406970 0.583250 -0.305504
O9    O     O_2   0.136647 0.455097 0.667971 -0.337800
O10   O     O_3   0.389819 0.652829 0.630677 -0.563426
O11   O     O_3   0.007383 0.339062 0.672337 -0.493316
C2    C     C_3   0.859445 0.305914 0.675281 0.816685
H3    H     H_    0.768980 0.343357 0.696399 0.058106
C3    C     C_3   0.884540 0.243118 0.703734 -0.936759
H4    H     H_    0.972238 0.202548 0.684289 0.265409
H5    H     H_    0.932317 0.262903 0.742264 0.258604
C4    C     C_3   0.823438 0.634934 0.634586 0.404617
H6    H     H_    0.706892 0.616953 0.616051 0.098997
H7    H     H_    0.912695 0.589171 0.632264 0.095061
C5    C     C_3   0.792245 0.665937 0.689355 -0.937734
H8    H     H_    0.710556 0.714434 0.691751 0.275832
H9    H     H_    0.732936 0.626443 0.708176 0.224046
H10   H     H_    0.909171 0.681025 0.709382 0.260900
Ba1   Ba    Ba6+2 0.160810 0.465630 0.521640 1.629855
C6    C     C_3   0.937493 0.373197 0.363902 0.392814
H11   H     H_    0.065783 0.387513 0.361127 0.085112
H12   H     H_    0.867924 0.420238 0.383637 0.135702
C7    C     C_3   0.863562 0.352605 0.311275 -0.931389
H13   H     H_    0.938270 0.308733 0.289360 0.263972
H14   H     H_    0.857405 0.398948 0.291149 0.215779
H15   H     H_    0.737844 0.333770 0.313572 0.272464
C8    C     C_3   0.330253 0.684094 0.590281 0.443943
H16   H     H_    0.204758 0.666812 0.580625 0.093727
H17   H     H_    0.408337 0.669267 0.557107 0.132465
C9    C     C_3   0.329153 0.765432 0.605869 -0.991041
H18   H     H_    0.247406 0.782013 0.638046 0.272416
H19   H     H_    0.285407 0.792132 0.574368 0.222266
H20   H     H_    0.454345 0.783318 0.617007 0.258140
P4    P     P_3+3 0.880940 0.664900 0.547160 0.453449
O12   O     O_2   0.704230 0.675760 0.533200 -0.381005
O13   O     O_3   0.951180 0.586390 0.529420 -0.398730
O14   O     O_3   0.434080 0.629720 0.443130 -0.357585
O15   O     O_3   0.887779 0.688795 0.612483 -0.570126
P5    P     P_3+3 0.835844 0.584658 0.351405 0.477379
O16   O     O_3   0.351080 0.462080 0.440130 -0.389875
O17   O     O_3   0.839200 0.593040 0.416790 -0.392395
O18   O     O_2   0.663919 0.559834 0.332863 -0.374933
O19   O     O_3   0.844083 0.669628 0.333985 -0.507954
Ba2   Ba    Ba6+2 0.649380 0.534380 0.478400 1.568274
P6    P     P_3+3 0.384078 0.275406 0.551029 0.559303
C10   C     C_3   0.418170 0.231303 0.638553 0.846097
H21   H     H_    0.538668 0.218616 0.621672 -0.026002
H22   H     H_    0.465211 0.145587 0.682278 0.237841
O20   O     O_3   0.459240 0.537930 0.559910 -0.414531
C11   C     C_3   0.472468 0.313978 0.395993 0.433656
H23   H     H_    0.599344 0.331436 0.404347 0.078095
H24   H     H_    0.399704 0.326660 0.430528 0.118585
C12   C     C_3   0.475945 0.232910 0.379142 -1.006922
H25   H     H_    0.549952 0.218238 0.344999 0.272722
H26   H     H_    0.530507 0.205838 0.409237 0.206156
H27   H     H_    0.350069 0.213922 0.370722 0.267509
P7    P     P_3+3 0.400260 0.440325 0.376931 0.449016
O21   O     O_2   0.583120 0.462390 0.379940 -0.379397
O22   O     O_3   0.402435 0.347019 0.357456 -0.554706
H28   H     H_    0.766672 0.217077 0.706446 0.224343
C13   C     C_3   0.875743 0.721154 0.376710 0.524182
H29   H     H_    0.782522 0.720932 0.405579 0.164712
H30   H     H_    0.998208 0.710671 0.392627 -0.013522
C14   C     C_3   0.870124 0.795311 0.361842 -0.988007
H31   H     H_    0.897274 0.836771 0.395020 0.224918
H32   H     H_    0.961155 0.797759 0.332690 0.258455
H33   H     H_    0.746878 0.807070 0.346725 0.282897
P8    P     P_3+3 0.419550 0.721960 0.444773 0.435189
C15   C     C_3   0.330441 0.719212 0.352982 0.378208
H34   H     H_    0.231252 0.760255 0.362377 0.054504
O23   O     O_2   0.561358 0.754925 0.478672 -0.396887
O24   O     O_3   0.465794 0.737150 0.384895 -0.511862
H35   H     H_    0.286484 0.664882 0.355528 0.089156
H36   H     H_    0.270010 0.708937 0.273931 0.255487
C16   C     C_3   0.378521 0.718970 0.299167 -0.864245
H37   H     H_    0.472543 0.676037 0.287859 0.277666
H38   H     H_    0.427815 0.771809 0.295510 0.245325
C17   C     C_R   0.989030 0.045672 0.471609 0.038891
C18   C     C_R   0.070002 0.094310 0.447034 -0.203611
C19   C     C_R   0.203698 0.949310 0.453090 -0.197168
C20   C     C_R   0.051089 0.974280 0.472995 0.054732
C21   C     C_R   0.260313 0.879137 0.452992 -0.172745
C22   C     C_R   0.168528 0.830198 0.473033 -0.012565
C23   C     C_R   0.019652 0.854217 0.496247 0.003778
C24   C     C_R   0.960334 0.926490 0.496134 0.034141
C25   C     C_R   0.221427 0.757802 0.470514 0.137025
C26   C     C_R   0.124420 0.709684 0.489545 -0.528187
C27   C     C_R   0.983589 0.732602 0.515963 0.257177
C28   C     C_R   0.931374 0.806332 0.520113 -0.041738
C29   C     C_R   0.838107 0.068921 0.494025 0.045442
C30   C     C_R   0.779044 0.141384 0.494791 0.077902
C31   C     C_R   0.871915 0.190983 0.473984 -0.014252
C32   C     C_R   0.011744 0.164623 0.447770 -0.062839
H39   H     H_    0.164438 0.653995 0.486425 0.177578
H40   H     H_    0.377351 0.863869 0.436562 0.174921
H41   H     H_    0.079321 0.197960 0.427503 0.167409
C33   C     C_R   0.794884 0.834200 0.547628 -0.046403
C34   C     C_R   0.734299 0.903778 0.546470 -0.191808
C35   C     C_R   0.810656 0.950244 0.519069 0.036397
C36   C     C_R   0.745468 0.020410 0.515772 0.056804
C37   C     C_R   0.587254 0.043102 0.531963 -0.177156
C38   C     C_R   0.626629 0.164086 0.516258 -0.007305
C39   C     C_R   0.529054 0.113061 0.531642 -0.210597
C40   C     C_R   0.576002 0.237143 0.521238 0.196925
C41   C     C_R   0.672773 0.285736 0.502437 -0.358029
C42   C     C_R   0.820102 0.264788 0.479397 0.247943
H42   H     H_    0.731022 0.802474 0.570006 0.161769
H43   H     H_    0.405904 0.126664 0.543436 0.161087
H44   H     H_    0.631856 0.341345 0.505584 0.156073
H45   H     H_    0.284458 0.982888 0.437450 0.132959
H46   H     H_    0.179050 0.079698 0.426117 0.125690
H47   H     H_    0.628547 0.920466 0.568694 0.125888
H48   H     H_    0.503344 0.007171 0.544021 0.133784
C43   C     C_R   0.301727 0.448530 0.173183 0.520808
O25   O     O_2   0.330229 0.395728 0.192949 -0.587756
N1    N     N_R   0.227909 0.509368 0.200292 -0.166123
C44   C     C_R   0.190963 0.568480 0.177552 0.521494
C45   C     C_2   0.036497 0.525947 0.269451 -0.160973
C46   C     C_3   0.998023 0.520439 0.323161 0.132401
C47   C     C_1   0.283218 0.492039 0.336381 0.287024
C48   C     C_2   0.320906 0.493641 0.289328 -0.177139
C49   C     C_2   0.190363 0.510885 0.252726 0.128959
C50   C     C_R   0.306300 0.506378 0.099111 -0.067264
C51   C     C_R   0.342466 0.446448 0.122582 -0.056770
C52   C     C_R   0.418911 0.385551 0.095090 -0.086151
C53   C     C_R   0.229486 0.567688 0.126898 -0.052388
C54   C     C_2   0.150804 0.525415 0.355740 -0.463025
H49   H     H_    0.444927 0.481910 0.277040 0.167309
H50   H     H_    0.449687 0.338845 0.112210 0.168437
C55   C     C_2   0.659460 0.481070 0.640565 -0.305887
C56   C     C_R   0.458802 0.440178 0.968610 0.041840
C57   C     C_R   0.356970 0.565692 0.974255 0.042330
C58   C     C_R   0.428625 0.502336 0.946180 0.085999
C59   C     C_R   0.524971 0.377790 0.938392 -0.203869
C60   C     C_R   0.564376 0.377111 0.888679 -0.063869
C61   C     C_R   0.539499 0.438433 0.866539 -0.076798
C62   C     C_R   0.470932 0.501154 0.895096 -0.069274
C63   C     C_R   0.445137 0.562740 0.872603 -0.047476
C64   C     C_R   0.489733 0.561105 0.822352 0.505005
N2    N     N_R   0.557134 0.499166 0.794739 -0.169568
C65   C     C_R   0.581430 0.438087 0.816261 0.579712
C66   C     C_2   0.759147 0.481361 0.728980 -0.251296
C67   C     C_3   0.806390 0.484255 0.675802 0.040877
C68   C     C_1   0.522895 0.514088 0.657385 0.262985
C69   C     C_2   0.481144 0.517406 0.704854 -0.083843
C70   C     C_2   0.603861 0.498527 0.743225 0.169461
O26   O     O_2   0.638935 0.383209 0.791517 -0.563503
C71   C     C_R   0.421700 0.442152 0.020087 0.043090
C72   C     C_R   0.346775 0.504957 0.047844 0.083242
C73   C     C_R   0.311953 0.566364 0.024958 0.042991
C74   C     C_R   0.458010 0.383382 0.045184 -0.202416
H51   H     H_    0.851990 0.469972 0.756149 0.155915
H52   H     H_    0.615160 0.327801 0.867515 0.171222
H53   H     H_    0.546681 0.327695 0.951663 0.127782
H54   H     H_    0.518989 0.334631 0.027653 0.127688
O27   O     O_2   0.125698 0.622100 0.201540 -0.599961
C75   C     C_R   0.192625 0.627086 0.103561 -0.085763
H55   H     H_    0.937994 0.535704 0.243614 0.157198
H56   H     H_    0.132230 0.674799 0.123778 0.166986
C76   C     C_R   0.333939 0.626618 0.950453 -0.205485
C77   C     C_R   0.376946 0.625024 0.900911 -0.084127
O28   O     O_2   0.470624 0.615183 0.803398 -0.594617
C78   C     C_R   0.232413 0.626534 0.053870 -0.202670
H57   H     H_    0.284740 0.677329 0.969169 0.127665
H58   H     H_    0.356608 0.673407 0.884809 0.168502
H59   H     H_    0.358389 0.534049 0.716358 0.161327
H60   H     H_    0.196919 0.674391 0.039220 0.126911
H61   H     H_    0.150750 0.553327 0.394338 0.164233
H62   H     H_    0.673904 0.462364 0.600672 0.176538
N3    N     N_R   0.430286 0.291463 0.680535 0.236073
O29   O     O_R   0.441331 0.356442 0.671456 -0.362760
O30   O     O_R   0.421070 0.281878 0.726910 -0.381869
N4    N     N_R   0.798537 0.280886 0.624937 0.191137
O31   O     O_R   0.698772 0.323749 0.605552 -0.499119
O32   O     O_R   0.880290 0.231386 0.595526 -0.398544

loop_
_geom_bond_atom_site_label_1
_geom_bond_atom_site_label_2
_geom_bond_distance
_ccdc_geom_bond_type
C11   O22   1.403858 S    
O14   Ba2   2.748639 S    
C50   C72   1.431308 A    
C76   C77   1.391168 A    
C21   C22   1.399941 A    
C15   H34   1.109659 S    
O2    Ba1   2.918728 S    
C63   C77   1.398794 A    
C9    H19   1.107581 S    
C9    H18   1.110604 S    
O4    P6    1.531131 D    
C61   C62   1.408834 A    
C56   C71   1.428339 A    
C52   H50   1.083714 S    
C50   C53   1.408813 A    
C10   N3    1.466796 S    
C59   C60   1.390358 A    
C51   C52   1.398680 A    
C59   H53   1.075653 S    
P4    O12   1.505689 D    
C41   C42   1.391842 A    
C48   H49   1.084904 S    
C75   C78   1.391022 A    
C5    H8    1.110910 S    
P5    O19   1.752306 S    
C26   H39   1.081397 S    
C66   H51   1.085746 S    
N2    C70   1.454303 S    
O14   P8    1.735400 S    
C45   H55   1.085679 S    
C69   C70   1.504296 S    
C8    H17   1.109435 S    
Ba1   O16   2.730186 S    
P1    O1    1.505393 D    
C15   O24   1.402552 S    
C1    H22   1.111132 S    
C8    H16   1.102807 S    
C21   H40   1.080504 S    
C16   H38   1.110713 S    
C55   C67   1.512799 S    
C4    O15   1.391067 S    
C57   C58   1.422298 A    
C55   H62   1.085406 S    
N3    O29   1.298854 A    
C20   C24   1.424400 A    
C33   C34   1.394477 A    
O16   Ba2   2.922724 S    
C2    H3    1.108948 S    
P2    O10   1.751638 S    
C4    C5    1.523036 S    
C11   H24   1.110842 S    
C35   C36   1.428500 A    
C15   C16   1.518877 S    
P5    C46   1.860877 S    
C74   H54   1.075640 S    
O2    Ba2   2.793939 S    
C36   C37   1.412872 A    
P2    Ba1   3.404277 S    
C1    H1    1.108988 S    
Ba1   O20   2.923626 S    
O12   Ba2   2.867674 S    
C44   O27   1.221909 D    
P5    O17   1.748432 S    
N2    C65   1.384606 Am   
C6    H12   1.105563 S    
C3    H28   1.110934 S    
C2    N4    1.444238 S    
C78   H60   1.075672 S    
C7    H14   1.106166 S    
C39   H43   1.079159 S    
O17   Ba2   2.708960 S    
C58   C62   1.431217 A    
C43   C51   1.412480 A    
C75   H56   1.083710 S    
O5    C6    1.397391 S    
Ba2   O20   2.729548 S    
O3    P6    1.771145 S    
C18   H46   1.076260 S    
C56   C59   1.416181 A    
C31   C42   1.428129 A    
O6    P6    1.764074 S    
O8    Ba1   2.708356 S    
C13   C14   1.520907 S    
C54   H61   1.086440 S    
C57   C73   1.428951 A    
C37   C39   1.391243 A    
P8    C25   1.850009 S    
C25   C26   1.399881 A    
P4    O13   1.573872 S    
C65   O26   1.222170 D    
C28   C33   1.401101 A    
P5    O18   1.546189 D    
C60   C61   1.398615 A    
C77   H58   1.083692 S    
C15   H35   1.113214 S    
C29   C30   1.433512 A    
C33   H42   1.079299 S    
O7    Ba1   2.822876 S    
C62   C63   1.409304 A    
C8    C9    1.521949 S    
C13   H30   1.107943 S    
P4    C27   1.882248 S    
N3    O30   1.302643 A    
C17   C18   1.415929 A    
C19   C20   1.413028 A    
C16   H37   1.110932 S    
C55   C68   1.319062 D    
C52   C74   1.390474 A    
C22   C25   1.411690 A    
H36   C16   1.108596 S    
C76   H57   1.075661 S    
P1    O5    1.753507 S    
P1    O2    1.573899 S    
C12   H26   1.109484 S    
P3    O11   1.758770 S    
C11   C12   1.520783 S    
C14   H31   1.108570 S    
C12   H27   1.110813 S    
C7    H13   1.110646 S    
C1    C10   1.533231 S    
C19   C21   1.389311 A    
C69   H59   1.084470 S    
Ba1   O13   2.793357 S    
C71   C72   1.422254 A    
P3    O9    1.535810 D    
P4    O15   1.747519 S    
C4    H6    1.104509 S    
O11   C2    1.396576 S    
C71   C74   1.416203 A    
C22   C23   1.416267 A    
P1    C42   1.878739 S    
C17   C20   1.431505 A    
C43   N1    1.384412 Am   
C14   H32   1.110242 S    
C18   C32   1.393414 A    
Ba2   O21   2.823210 S    
C44   C53   1.412943 A    
C45   C49   1.359599 D    
C1    H2    1.108298 S    
C3    H5    1.110682 S    
C43   O25   1.222580 D    
C9    H20   1.110832 S    
C56   C58   1.422390 A    
N1    C44   1.385006 Am   
C46   C54   1.509017 S    
C31   C32   1.399405 A    
C6    C7    1.524607 S    
O13   Ba2   2.919561 S    
C38   C39   1.397900 A    
C17   C29   1.419055 A    
C23   C28   1.425710 A    
P7    O21   1.568969 D    
C6    H11   1.104895 S    
C34   H47   1.078269 S    
N1    C49   1.455808 S    
P3    C67   1.870145 S    
C13   H29   1.110280 S    
P8    O23   1.542352 D    
C37   H48   1.078436 S    
C50   C51   1.408834 A    
P7    C47   1.823084 S    
P2    C68   1.836783 S    
C29   C36   1.422321 A    
Ba1   Ba2   4.507336 S    
C5    H9    1.105563 S    
C27   C28   1.429981 A    
C60   H52   1.083783 S    
O1    Ba1   2.867216 S    
C72   C73   1.422415 A    
C11   H23   1.109444 S    
C61   C65   1.411802 A    
C45   C46   1.517556 S    
C57   C76   1.416445 A    
C30   C38   1.417678 A    
C47   C48   1.324406 D    
C12   H25   1.110607 S    
P8    O24   1.747345 S    
C73   C78   1.416279 A    
P2    O7    1.500400 D    
C10   H21   1.103997 S    
C24   C35   1.417805 A    
P1    Ba1   3.420887 S    
P6    C40   1.858891 S    
N4    O32   1.300955 A    
C48   C49   1.504007 S    
C7    H15   1.110746 S    
C2    C3    1.525874 S    
O16   P7    1.744825 S    
C4    H7    1.108983 S    
C66   C70   1.356125 D    
C30   C31   1.425084 A    
C14   H33   1.110719 S    
O3    Ba1   2.749240 S    
C53   C75   1.398942 A    
C41   H44   1.081949 S    
P3    O8    1.776252 S    
C64   O28   1.222501 D    
O19   C13   1.402347 S    
C3    H4    1.108934 S    
P4    Ba2   3.421491 S    
C5    H10   1.110628 S    
P7    O22   1.750811 S    
C26   C27   1.394696 A    
C19   H45   1.076252 S    
C34   C35   1.414396 A    
C68   C69   1.329493 D    
C47   C54   1.314836 D    
C64   N2    1.383724 Am   
N4    O31   1.295148 A    
C40   C41   1.402214 A    
C66   C67   1.511417 S    
C63   C64   1.413281 A    
O6    C10   1.407900 S    
C32   H41   1.079354 S    
C23   C24   1.434286 A    
P2    O20   1.535937 S    
O10   C8    1.397364 S    
C38   C40   1.412810 A    
