data_mof_unit_24947.cif
_audit_creation_date              2012-12-11T20:51:07-0500
_audit_creation_method            fapswitch 2.2
_symmetry_space_group_name_H-M    P1
_symmetry_Int_Tables_number       1
_space_group_crystal_system       triclinic
_cell_length_a                    30.549746
_cell_length_b                    34.144792
_cell_length_c                    8.75248
_cell_angle_alpha                 89.896832
_cell_angle_beta                  90.526157
_cell_angle_gamma                 90.044741
_cell_volume                      9129.43832226

loop_
_atom_site_label
_atom_site_type_symbol
_atom_type_description
_atom_site_fract_x
_atom_site_fract_y
_atom_site_fract_z
_atom_type_partial_charge
Ba1   Ba    Ba6+2 0.999930 0.472870 0.844940 1.788566
Ba2   Ba    Ba6+2 0.999930 0.527130 0.344940 1.776830
Ba3   Ba    Ba6+2 0.499930 0.972870 0.844940 1.788561
Ba4   Ba    Ba6+2 0.499930 0.027130 0.344940 1.776827
C1    C     C_3   0.051073 0.297724 0.659194 0.698523
C2    C     C_R   0.219690 0.339816 0.538773 0.591844
C3    C     C_R   0.403274 0.087919 0.689432 0.027937
C4    C     C_R   0.871844 0.383629 0.148523 -0.004613
C5    C     C_R   0.868075 0.614411 0.659419 0.024608
C6    C     C_R   0.371845 0.883629 0.148522 -0.004611
C7    C     C_R   0.368075 0.114411 0.659418 0.024609
C8    C     C_R   0.862556 0.351083 0.246445 0.137434
C9    C     C_R   0.865378 0.651917 0.734787 0.137218
C10   C     C_R   0.362556 0.851083 0.246445 0.137426
C11   C     C_R   0.365378 0.151917 0.734787 0.137217
C12   C     C_2   0.071931 0.599164 0.887809 -0.272355
C13   C     C_R   0.720711 0.167731 0.984154 0.663026
C14   C     C_2   0.071708 0.402074 0.386346 -0.272340
C15   C     C_2   0.571931 0.099164 0.887809 -0.272354
C16   C     C_2   0.571708 0.902074 0.386346 -0.272325
C17   C     C_3   0.136623 0.474848 0.128296 0.847627
C18   C     C_3   0.135643 0.525650 0.628629 0.803731
C19   C     C_3   0.636624 0.974849 0.128296 0.847629
C20   C     C_3   0.635643 0.025650 0.628629 0.803732
C21   C     C_3   0.176091 0.454940 0.050577 1.090768
C22   C     C_3   0.174849 0.546892 0.552735 1.118256
C23   C     C_3   0.676091 0.954940 0.050577 1.090768
C24   C     C_R   0.719690 0.839816 0.538772 0.591845
C25   C     C_3   0.674849 0.046892 0.552735 1.118255
C26   C     C_3   0.856523 0.523209 0.049587 0.435894
C27   C     C_3   0.858205 0.475407 0.550143 0.440973
C28   C     C_3   0.356523 0.023209 0.049586 0.435893
C29   C     C_3   0.358204 0.975408 0.550143 0.440975
C30   C     C_3   0.810822 0.539378 0.107245 0.750061
C31   C     C_3   0.813473 0.457822 0.611503 0.737401
C32   C     C_3   0.310822 0.039378 0.107244 0.750058
C33   C     C_3   0.313472 0.957823 0.611500 0.737401
C34   C     C_3   0.015848 0.327754 0.705058 0.500918
C35   C     C_R   0.164695 0.716548 0.978142 0.728103
C36   C     C_3   0.014735 0.669825 0.206033 0.382490
C37   C     C_3   0.515846 0.827753 0.705056 0.500938
C38   C     C_3   0.514734 0.169825 0.206036 0.382487
C39   C     C_R   0.927999 0.407674 0.317181 -0.367503
C40   C     C_R   0.928542 0.593043 0.814004 -0.334398
C41   C     C_R   0.427997 0.907675 0.317186 -0.367556
C42   C     C_R   0.428542 0.093043 0.814004 -0.334395
C43   C     C_R   0.177991 0.290133 0.410971 0.756343
C44   C     C_R   0.664693 0.216549 0.978154 0.728098
C45   C     C_R   0.677990 0.790134 0.410973 0.756335
C46   C     C_R   0.194308 0.745262 0.033558 -0.143002
C47   C     C_R   0.211347 0.262280 0.441086 -0.143141
C48   C     C_R   0.694307 0.245262 0.033573 -0.143001
C49   C     C_3   0.048788 0.701086 0.162096 0.727774
C50   C     C_R   0.711346 0.762280 0.441089 -0.143140
C51   C     C_R   0.238505 0.735204 0.056884 -0.122135
C52   C     C_R   0.246450 0.272557 0.538456 -0.122476
C53   C     C_R   0.738505 0.235204 0.056886 -0.122135
C54   C     C_R   0.746450 0.772557 0.538458 -0.122474
C55   C     C_R   0.296497 0.687031 0.044944 -0.066750
C56   C     C_R   0.285068 0.321204 0.688580 -0.047237
C57   C     C_R   0.796497 0.187033 0.044916 -0.066750
C58   C     C_R   0.785069 0.821204 0.688578 -0.047237
C59   C     C_R   0.827535 0.215355 0.087943 0.157928
C60   C     C_3   0.551073 0.797725 0.659183 0.698525
C61   C     C_R   0.815439 0.792899 0.739416 0.157606
C62   C     C_R   0.327534 0.715353 0.087975 0.157925
C63   C     C_R   0.315439 0.292899 0.739418 0.157604
C64   C     C_R   0.814270 0.254433 0.119224 0.011855
C65   C     C_R   0.812700 0.753750 0.683775 -0.019449
C66   C     C_R   0.314270 0.754432 0.119237 0.011853
C67   C     C_R   0.312700 0.253750 0.683776 -0.019447
C68   C     C_R   0.769346 0.264087 0.106215 -0.114295
C69   C     C_R   0.778519 0.744232 0.580608 -0.112028
C70   C     C_R   0.269347 0.764086 0.106213 -0.114294
C71   C     C_3   0.548787 0.201086 0.162098 0.727780
C72   C     C_R   0.278520 0.244232 0.580607 -0.112028
C73   C     C_R   0.180648 0.783809 0.065828 0.611882
C74   C     C_R   0.210529 0.224440 0.376255 0.604428
C75   C     C_R   0.680646 0.283807 0.065860 0.611880
C76   C     C_R   0.710527 0.724440 0.376260 0.604422
C77   C     C_3   0.006051 0.318861 0.169694 0.880737
C78   C     C_3   0.000877 0.680576 0.658748 0.840743
C79   C     C_3   0.506058 0.818857 0.169702 0.880795
C80   C     C_3   0.500877 0.180576 0.658749 0.840743
C81   C     C_R   0.710254 0.311977 0.121440 0.093601
C82   C     C_R   0.252012 0.696419 0.028308 -0.022740
C83   C     C_R   0.744560 0.697709 0.405285 0.092381
C84   C     C_R   0.210256 0.811979 0.121408 0.093601
C85   C     C_R   0.244562 0.197710 0.405280 0.092379
C86   C     C_R   0.755161 0.302511 0.141889 -0.078131
C87   C     C_R   0.778620 0.707425 0.509112 -0.085710
C88   C     C_R   0.255162 0.802511 0.141874 -0.078130
C89   C     C_R   0.278622 0.207426 0.509109 -0.085709
C90   C     C_R   0.786358 0.330255 0.196555 0.643146
C91   C     C_R   0.814473 0.682288 0.536790 0.678111
C92   C     C_R   0.286359 0.830256 0.196544 0.643143
C93   C     C_R   0.250359 0.311412 0.589409 -0.011788
C94   C     C_R   0.314474 0.182289 0.536789 0.678111
C95   C     C_R   0.844526 0.284233 0.161470 0.683425
C96   C     C_R   0.843539 0.723923 0.724882 0.674669
C97   C     C_R   0.344526 0.784232 0.161481 0.683431
C98   C     C_R   0.343539 0.223924 0.724884 0.674668
C99   C     C_2   0.120766 0.647535 0.789178 0.636151
C100  C     C_2   0.127073 0.360276 0.280575 0.645190
C101  C     C_2   0.620765 0.147535 0.789180 0.636149
C102  C     C_2   0.627073 0.860276 0.280575 0.645250
C103  C     C_3   0.092196 0.615187 0.753864 0.085559
C104  C     C_R   0.752011 0.196420 0.028297 -0.022740
C105  C     C_3   0.093628 0.389165 0.251394 0.065604
C106  C     C_3   0.592196 0.115188 0.753864 0.085561
C107  C     C_3   0.593629 0.889165 0.251395 0.065598
C108  C     C_1   0.098653 0.589262 0.010879 -0.013739
C109  C     C_1   0.096794 0.410867 0.513224 0.017266
C110  C     C_1   0.598653 0.089262 0.010879 -0.013737
C111  C     C_1   0.596793 0.910867 0.513225 0.017269
C112  C     C_2   0.133824 0.615042 0.040810 -0.036886
C113  C     C_2   0.129058 0.383616 0.551142 0.057823
C114  C     C_2   0.633823 0.115042 0.040810 -0.036887
C115  C     C_R   0.750359 0.811412 0.589409 -0.011788
C116  C     C_2   0.629059 0.883616 0.551142 0.057815
C117  C     C_2   0.144318 0.647400 0.928977 0.222350
C118  C     C_2   0.147233 0.357374 0.427360 0.192197
C119  C     C_2   0.644317 0.147401 0.928978 0.222353
C120  C     C_2   0.647234 0.857375 0.427360 0.192192
C121  C     C_R   0.884418 0.347188 0.381246 0.557064
C122  C     C_R   0.885373 0.653805 0.875883 0.537878
C123  C     C_R   0.384418 0.847189 0.381248 0.557088
C124  C     C_R   0.385373 0.153805 0.875883 0.537878
C125  C     C_3   0.006846 0.273154 0.196054 0.333950
C126  C     C_R   0.220711 0.667730 0.984162 0.663024
C127  C     C_3   0.999153 0.726715 0.677100 0.346907
C128  C     C_3   0.506851 0.773149 0.196031 0.333951
C129  C     C_3   0.499153 0.226715 0.677102 0.346908
C130  C     C_R   0.918189 0.376164 0.426696 -0.042570
C131  C     C_R   0.917619 0.623620 0.924883 -0.033512
C132  C     C_R   0.418188 0.876165 0.426700 -0.042602
C133  C     C_R   0.417619 0.123620 0.924884 -0.033512
C134  C     C_R   0.904412 0.411716 0.187504 0.094231
C135  C     C_R   0.903274 0.587918 0.689432 0.027935
C136  C     C_R   0.404412 0.911716 0.187506 0.094245
F1    F     F_    0.176761 0.415559 0.087410 -0.675983
F2    F     F_    0.817436 0.451173 0.767258 -0.688761
F3    F     F_    0.313587 0.046036 0.262934 -0.706561
F4    F     F_    0.317433 0.951174 0.767254 -0.688764
F5    F     F_    0.073143 0.312890 0.536070 -0.704430
F6    F     F_    0.058001 0.694939 0.010674 -0.656986
F7    F     F_    0.573140 0.812892 0.536055 -0.704391
F8    F     F_    0.558000 0.194938 0.010676 -0.656987
F9    F     F_    0.138026 0.794408 0.047206 -0.640373
F10   F     F_    0.177666 0.213552 0.279490 -0.652814
F11   F     F_    0.638023 0.294406 0.047255 -0.640375
F12   F     F_    0.172845 0.586563 0.584309 -0.687937
F13   F     F_    0.677663 0.713552 0.279497 -0.652820
F14   F     F_    0.875612 0.316626 0.475463 -0.675518
F15   F     F_    0.873273 0.680321 0.982605 -0.652072
F16   F     F_    0.375611 0.816626 0.475465 -0.675510
F17   F     F_    0.373273 0.180320 0.982606 -0.652072
F18   F     F_    0.129821 0.675014 0.681198 -0.674725
F19   F     F_    0.144476 0.340674 0.160292 -0.637356
F20   F     F_    0.629819 0.175015 0.681201 -0.674729
F21   F     F_    0.644477 0.840675 0.160292 -0.637358
F22   F     F_    0.014681 0.336314 0.309269 -0.723698
F23   F     F_    0.676762 0.915559 0.087410 -0.675985
F24   F     F_    0.009175 0.664286 0.801040 -0.733683
F25   F     F_    0.514695 0.836303 0.309284 -0.723649
F26   F     F_    0.509174 0.164285 0.801041 -0.733682
F27   F     F_    0.098692 0.459962 0.065409 -0.687775
F28   F     F_    0.097744 0.540136 0.563914 -0.680635
F29   F     F_    0.598692 0.959962 0.065409 -0.687774
F30   F     F_    0.597744 0.040136 0.563914 -0.680633
F31   F     F_    0.672845 0.086563 0.584310 -0.687936
F32   F     F_    0.172300 0.457986 0.893809 -0.719746
F33   F     F_    0.171990 0.542584 0.396593 -0.707082
F34   F     F_    0.672300 0.957987 0.893810 -0.719747
F35   F     F_    0.671989 0.042584 0.396593 -0.707082
F36   F     F_    0.813587 0.546035 0.262936 -0.706560
H1    H     H_    0.000138 0.318289 0.811597 -0.122703
H2    H     H_    0.288000 0.350946 0.730441 0.127287
H3    H     H_    0.666100 0.898870 0.732817 0.290984
H4    H     H_    0.851535 0.361612 0.944807 0.208198
H5    H     H_    0.816220 0.393637 0.026026 0.240400
H6    H     H_    0.816915 0.576733 0.644228 0.178051
H7    H     H_    0.839597 0.589052 0.473744 0.297990
H8    H     H_    0.351537 0.861610 0.944807 0.208197
H9    H     H_    0.316222 0.893637 0.026018 0.240406
H10   H     H_    0.316915 0.076733 0.644225 0.178053
H11   H     H_    0.339597 0.089053 0.473742 0.297990
H12   H     H_    0.055430 0.241070 0.582922 0.223382
H13   H     H_    0.807672 0.157449 0.023403 0.126625
H14   H     H_    0.014274 0.248450 0.706087 0.134123
H15   H     H_    0.040157 0.752221 0.287086 0.162483
H16   H     H_    0.997871 0.741753 0.170073 0.170522
H17   H     H_    0.555430 0.741074 0.582877 0.223363
H18   H     H_    0.514282 0.748446 0.706084 0.134136
H19   H     H_    0.540157 0.252221 0.287085 0.162487
H20   H     H_    0.497870 0.241754 0.170075 0.170520
H21   H     H_    0.962902 0.361118 0.100147 0.167074
H22   H     H_    0.955288 0.319183 0.010837 0.164045
H23   H     H_    0.961008 0.635991 0.586900 0.181431
H24   H     H_    0.788001 0.850946 0.730438 0.127287
H25   H     H_    0.950740 0.676986 0.496031 0.155352
H26   H     H_    0.462908 0.861119 0.100228 0.167046
H27   H     H_    0.455292 0.819193 0.010862 0.164034
H28   H     H_    0.461008 0.135991 0.586897 0.181431
H29   H     H_    0.450739 0.176986 0.496033 0.155351
H30   H     H_    0.001322 0.262624 0.963586 0.144420
H31   H     H_    0.954978 0.253627 0.059695 0.228992
H32   H     H_    0.985469 0.734379 0.446687 0.132356
H33   H     H_    0.941715 0.741055 0.560564 0.209656
H34   H     H_    0.501326 0.762627 0.963558 0.144430
H35   H     H_    0.953140 0.428740 0.346326 0.083032
H36   H     H_    0.454979 0.753633 0.059659 0.228977
H37   H     H_    0.485470 0.234379 0.446689 0.132355
H38   H     H_    0.441716 0.241056 0.560565 0.209654
H39   H     H_    0.065086 0.275163 0.313907 0.305514
H40   H     H_    0.071054 0.265201 0.127813 0.229471
H41   H     H_    0.063286 0.726296 0.754629 0.305721
H42   H     H_    0.057614 0.741685 0.573512 0.194321
H43   H     H_    0.565082 0.775124 0.313956 0.305500
H44   H     H_    0.571065 0.765217 0.127814 0.229511
H45   H     H_    0.563286 0.226295 0.754633 0.305720
H46   H     H_    0.954694 0.572773 0.840940 0.084046
H47   H     H_    0.557614 0.241685 0.573516 0.194322
H48   H     H_    0.167750 0.473457 0.336931 0.194990
H49   H     H_    0.113797 0.483648 0.338105 0.198072
H50   H     H_    0.164408 0.525936 0.840899 0.158355
H51   H     H_    0.110383 0.517075 0.834889 0.203936
H52   H     H_    0.667750 0.973458 0.336931 0.194990
H53   H     H_    0.613797 0.983648 0.338105 0.198072
H54   H     H_    0.664408 0.025936 0.840899 0.158356
H55   H     H_    0.610383 0.017075 0.834889 0.203936
H56   H     H_    0.453138 0.928741 0.346332 0.083037
H57   H     H_    0.454694 0.072773 0.840941 0.084046
H58   H     H_    0.036832 0.594626 0.892697 0.097498
H59   H     H_    0.036442 0.405632 0.388730 0.101046
H60   H     H_    0.536832 0.094625 0.892697 0.097499
H61   H     H_    0.001213 0.676461 0.318095 -0.074484
H62   H     H_    0.536441 0.905629 0.388734 0.101030
H63   H     H_    0.242987 0.456225 0.054693 0.216892
H64   H     H_    0.219882 0.500626 0.051715 0.169380
H65   H     H_    0.217849 0.501289 0.600345 0.180997
H66   H     H_    0.224293 0.541030 0.714941 0.165811
H67   H     H_    0.742987 0.956225 0.054694 0.216892
H68   H     H_    0.719882 0.000626 0.051717 0.169380
H69   H     H_    0.717849 0.001289 0.600344 0.180997
H70   H     H_    0.724293 0.041030 0.714941 0.165812
H71   H     H_    0.832457 0.517444 0.834791 0.202889
H72   H     H_    0.500136 0.818287 0.811594 -0.122708
H73   H     H_    0.886761 0.513486 0.850522 0.209780
H74   H     H_    0.832492 0.480748 0.336898 0.206400
H75   H     H_    0.886629 0.486514 0.349090 0.209212
H76   H     H_    0.332458 0.017444 0.834791 0.202890
H77   H     H_    0.386761 0.013486 0.850522 0.209778
H78   H     H_    0.332492 0.980749 0.336897 0.206400
H79   H     H_    0.386629 0.986514 0.349092 0.209212
H80   H     H_    0.920287 0.543130 0.060679 0.155207
H81   H     H_    0.883779 0.572965 0.139500 0.166913
H82   H     H_    0.922616 0.457293 0.556644 0.161004
H83   H     H_    0.501212 0.176461 0.318097 -0.074485
H84   H     H_    0.887604 0.426411 0.638973 0.163959
H85   H     H_    0.420287 0.043130 0.060680 0.155207
H86   H     H_    0.383778 0.072965 0.139500 0.166913
H87   H     H_    0.422615 0.957293 0.556651 0.161008
H88   H     H_    0.387602 0.926411 0.638975 0.163964
H89   H     H_    0.773364 0.503135 0.966442 0.182853
H90   H     H_    0.780026 0.486043 0.146322 0.208007
H91   H     H_    0.773651 0.492530 0.472367 0.184455
H92   H     H_    0.780780 0.510204 0.650824 0.189530
H93   H     H_    0.273364 0.003135 0.966441 0.182856
H94   H     H_    0.032134 0.356521 0.722638 0.012625
H95   H     H_    0.280026 0.986044 0.146321 0.208007
H96   H     H_    0.273651 0.992533 0.472365 0.184459
H97   H     H_    0.280779 0.010206 0.650825 0.189530
H98   H     H_    0.823672 0.597334 0.046192 0.173746
H99   H     H_    0.792479 0.572727 0.917925 0.128986
H100  H     H_    0.827525 0.399903 0.555101 0.164894
H101  H     H_    0.796734 0.423721 0.422908 0.178504
H102  H     H_    0.323672 0.097334 0.046191 0.173747
H103  H     H_    0.292480 0.072726 0.917922 0.128986
H104  H     H_    0.327522 0.899904 0.555091 0.164893
H105  H     H_    0.031662 0.641084 0.208768 0.018226
H106  H     H_    0.296730 0.923723 0.422903 0.178504
H107  H     H_    0.094453 0.317223 0.824022 0.219764
H108  H     H_    0.067992 0.275895 0.871399 0.147045
H109  H     H_    0.102588 0.669140 0.231459 0.179956
H110  H     H_    0.083473 0.699604 0.366094 0.183276
H111  H     H_    0.594452 0.817225 0.824009 0.219752
H112  H     H_    0.567997 0.775894 0.871379 0.147053
H113  H     H_    0.602586 0.169140 0.231461 0.179955
H114  H     H_    0.583472 0.199604 0.366095 0.183275
H115  H     H_    0.949777 0.275006 0.322928 0.256285
H116  H     H_    0.532131 0.856520 0.722646 0.012613
H117  H     H_    0.978354 0.233090 0.341504 0.215299
H118  H     H_    0.952219 0.717233 0.842570 0.251470
H119  H     H_    0.998980 0.735980 0.909821 0.273300
H120  H     H_    0.449783 0.774997 0.322914 0.256297
H121  H     H_    0.478358 0.733079 0.341457 0.215295
H122  H     H_    0.452219 0.217232 0.842571 0.251470
H123  H     H_    0.498980 0.235980 0.909823 0.273300
H124  H     H_    0.680457 0.362113 0.053705 0.227040
H125  H     H_    0.669766 0.348308 0.235623 0.232476
H126  H     H_    0.742965 0.663844 0.215932 0.239187
H127  H     H_    0.531660 0.141084 0.208772 0.018228
H128  H     H_    0.714101 0.646034 0.365008 0.221430
H129  H     H_    0.180467 0.862114 0.053636 0.227035
H130  H     H_    0.169764 0.848314 0.235550 0.232483
H131  H     H_    0.242968 0.163845 0.215925 0.239187
H132  H     H_    0.214104 0.146035 0.364999 0.221431
H133  H     H_    0.874611 0.181052 0.181659 0.192302
H134  H     H_    0.882512 0.192821 0.996077 0.189529
H135  H     H_    0.840032 0.792400 0.953644 0.220468
H136  H     H_    0.849807 0.834499 0.861088 0.181825
H137  H     H_    0.374605 0.681051 0.181733 0.192303
H138  H     H_    0.307671 0.657446 0.023445 0.126625
H139  H     H_    0.382513 0.692812 0.996149 0.189530
H140  H     H_    0.340031 0.292401 0.953647 0.220467
H141  H     H_    0.349806 0.334499 0.861089 0.181825
H142  H     H_    0.178978 0.581705 0.149865 0.266435
H143  H     H_    0.146020 0.607724 0.267206 0.277065
H144  H     H_    0.154195 0.350615 0.726233 0.204785
H145  H     H_    0.166099 0.398868 0.732819 0.290984
H146  H     H_    0.678978 0.081706 0.149863 0.266432
H147  H     H_    0.646021 0.107724 0.267206 0.277066
H148  H     H_    0.654196 0.850616 0.726234 0.204783
N1    N     N_R   0.177069 0.677653 0.964195 -0.425943
N2    N     N_3   0.217541 0.531885 0.603335 -0.445451
N3    N     N_3   0.717419 0.972711 0.100313 -0.491507
N4    N     N_3   0.717541 0.031885 0.603335 -0.445450
N5    N     N_3   0.859898 0.529527 0.886877 -0.576674
N6    N     N_3   0.860691 0.469462 0.387066 -0.573593
N7    N     N_3   0.359898 0.029527 0.886877 -0.576674
N8    N     N_3   0.360691 0.969462 0.387066 -0.573587
N9    N     N_3   0.892128 0.543690 0.127128 -0.405556
N10   N     N_3   0.894915 0.455866 0.624932 -0.395675
N11   N     N_3   0.392128 0.043690 0.127128 -0.405555
N12   N     N_R   0.182233 0.328772 0.458692 -0.429311
N13   N     N_3   0.394913 0.955866 0.624935 -0.395677
N14   N     N_3   0.775007 0.511337 0.081203 -0.426372
N15   N     N_3   0.776432 0.484634 0.587333 -0.427669
N16   N     N_3   0.275007 0.011337 0.081202 -0.426372
N17   N     N_3   0.276431 0.984637 0.587330 -0.427670
N18   N     N_3   0.798643 0.576715 0.034495 -0.429168
N19   N     N_3   0.802290 0.420146 0.540072 -0.420544
N20   N     N_3   0.298643 0.076715 0.034493 -0.429169
N21   N     N_3   0.302287 0.920148 0.540066 -0.420542
N22   N     N_3   0.083016 0.290601 0.781797 -0.474262
N23   N     N_R   0.677068 0.177654 0.964197 -0.425943
N24   N     N_3   0.089641 0.696934 0.249641 -0.442914
N25   N     N_3   0.583018 0.790603 0.781778 -0.474270
N26   N     N_3   0.589641 0.196934 0.249642 -0.442909
N27   N     N_3   0.981312 0.263539 0.332414 -0.392117
N28   N     N_3   0.976929 0.737408 0.818995 -0.390736
N29   N     N_3   0.481317 0.763529 0.332388 -0.392165
N30   N     N_3   0.476928 0.237407 0.818996 -0.390737
N31   N     N_3   0.694347 0.350583 0.153717 -0.403525
N32   N     N_3   0.743292 0.659866 0.334421 -0.399508
N33   N     N_3   0.194350 0.850586 0.153661 -0.403526
N34   N     N_R   0.682233 0.828772 0.458693 -0.429314
N35   N     N_3   0.243294 0.159867 0.334414 -0.399507
N36   N     N_3   0.872507 0.203766 0.101643 -0.441929
N37   N     N_3   0.848835 0.804082 0.847765 -0.415249
N38   N     N_3   0.372505 0.703762 0.101704 -0.441923
N39   N     N_3   0.348835 0.304083 0.847768 -0.415249
N40   N     N_3   0.163541 0.608627 0.165918 -0.423553
N41   N     N_3   0.141498 0.378604 0.708098 -0.390450
N42   N     N_3   0.663542 0.108627 0.165917 -0.423556
N43   N     N_3   0.641499 0.878605 0.708098 -0.390450
N44   N     N_3   0.849169 0.387874 0.005347 -0.401792
N45   N     N_R   0.830505 0.321377 0.200677 -0.422037
N46   N     N_3   0.830288 0.599581 0.580438 -0.418175
N47   N     N_3   0.349171 0.887873 0.005344 -0.401796
N48   N     N_3   0.330289 0.099582 0.580435 -0.418175
N49   N     N_3   0.030722 0.260685 0.613351 -0.414820
N50   N     N_3   0.032010 0.741171 0.179269 -0.393893
N51   N     N_3   0.530723 0.760685 0.613339 -0.414841
N52   N     N_3   0.532010 0.241171 0.179270 -0.393888
N53   N     N_3   0.962446 0.331076 0.117761 -0.493409
N54   N     N_3   0.958471 0.665902 0.603829 -0.521796
N55   N     N_3   0.462452 0.831076 0.117801 -0.493419
N56   N     N_R   0.839442 0.685569 0.670090 -0.427417
N57   N     N_3   0.458470 0.165903 0.603829 -0.521796
N58   N     N_3   0.989002 0.251290 0.064867 -0.490866
N59   N     N_3   0.975411 0.745833 0.550757 -0.447897
N60   N     N_3   0.489003 0.751292 0.064831 -0.490846
N61   N     N_3   0.475411 0.245833 0.550759 -0.447897
N62   N     N_3   0.051705 0.259557 0.223013 -0.399946
N63   N     N_3   0.043649 0.743137 0.681950 -0.387048
N64   N     N_3   0.551709 0.759547 0.222972 -0.399986
N65   N     N_3   0.543649 0.243137 0.681954 -0.387052
N66   N     N_3   0.137430 0.465765 0.289721 -0.538611
N67   N     N_R   0.330505 0.821377 0.200677 -0.422040
N68   N     N_3   0.135032 0.534506 0.789780 -0.535395
N69   N     N_3   0.637430 0.965766 0.289722 -0.538615
N70   N     N_3   0.635032 0.034506 0.789780 -0.535394
N71   N     N_R   0.339443 0.185569 0.670090 -0.427418
N72   N     N_3   0.217419 0.472711 0.100312 -0.491507
O1    O     O_2   0.914200 0.445720 0.903420 -0.420016
O2    O     O_3   0.034441 0.670505 0.555234 -0.670158
O3    O     O_3   0.537891 0.829775 0.060400 -0.685493
O4    O     O_3   0.534441 0.170505 0.555235 -0.670159
O5    O     O_3   0.049930 0.518940 0.045960 -0.445683
O6    O     O_3   0.049930 0.481060 0.545960 -0.449700
O7    O     O_3   0.549930 0.018940 0.045960 -0.445683
O8    O     O_3   0.549930 0.981060 0.545960 -0.449699
O9    O     O_2   0.232489 0.634068 0.961318 -0.553853
O10   O     O_2   0.226496 0.374396 0.565526 -0.573091
O11   O     O_2   0.732488 0.134069 0.961302 -0.553852
O12   O     O_2   0.914200 0.554280 0.403420 -0.444559
O13   O     O_2   0.726497 0.874396 0.565524 -0.573092
O14   O     O_2   0.127907 0.726433 0.940720 -0.427902
O15   O     O_2   0.144912 0.279747 0.343578 -0.470914
O16   O     O_2   0.627905 0.226433 0.940736 -0.427904
O17   O     O_2   0.644911 0.779748 0.343581 -0.470922
O18   O     O_2   0.774317 0.362291 0.241363 -0.563225
O19   O     O_2   0.826431 0.661209 0.433146 -0.504505
O20   O     O_2   0.274317 0.862292 0.241346 -0.563224
O21   O     O_2   0.326434 0.161210 0.433144 -0.504504
O22   O     O_2   0.883587 0.277272 0.162340 -0.587393
O23   O     O_2   0.414200 0.945720 0.903420 -0.420016
O24   O     O_2   0.875604 0.733120 0.799885 -0.518581
O25   O     O_2   0.383587 0.777270 0.162359 -0.587380
O26   O     O_2   0.375604 0.233121 0.799889 -0.518579
O27   O     O_3   0.950020 0.480960 0.143730 -0.505441
O28   O     O_3   0.950020 0.519040 0.643730 -0.493196
O29   O     O_3   0.450020 0.980960 0.143730 -0.505439
O30   O     O_3   0.450020 0.019040 0.643730 -0.493198
O31   O     O_3   0.985090 0.412220 0.642040 -0.517774
O32   O     O_3   0.985090 0.587780 0.142040 -0.517981
O33   O     O_3   0.485090 0.912220 0.642040 -0.517774
O34   O     O_2   0.414200 0.054280 0.403420 -0.444559
O35   O     O_3   0.485090 0.087780 0.142040 -0.517981
O36   O     O_2   0.922888 0.364934 0.749480 -0.483040
O37   O     O_2   0.920101 0.631912 0.249493 -0.446652
O38   O     O_2   0.422887 0.864936 0.749484 -0.483033
O39   O     O_2   0.420101 0.131912 0.249495 -0.446651
O40   O     O_3   0.858420 0.482583 0.080199 -0.602031
O41   O     O_3   0.859111 0.516023 0.580327 -0.630392
O42   O     O_3   0.358420 0.982583 0.080198 -0.602034
O43   O     O_3   0.359111 0.016023 0.580327 -0.630394
O44   O     O_3   0.983831 0.329441 0.589065 -0.521891
O45   O     O_3   0.139558 0.484790 0.608675 -0.657798
O46   O     O_3   0.980278 0.670603 0.098714 -0.551770
O47   O     O_3   0.483829 0.829441 0.589065 -0.521893
O48   O     O_3   0.480278 0.170603 0.098716 -0.551769
O49   O     O_2   0.085560 0.445380 0.786390 -0.349403
O50   O     O_2   0.085560 0.554620 0.286390 -0.369280
O51   O     O_2   0.585560 0.945380 0.786390 -0.349401
O52   O     O_2   0.585560 0.054620 0.286390 -0.369280
O53   O     O_3   0.014550 0.412170 0.047860 -0.468380
O54   O     O_3   0.014550 0.587830 0.547860 -0.459119
O55   O     O_3   0.514550 0.912170 0.047860 -0.468390
O56   O     O_3   0.139726 0.515669 0.109108 -0.668199
O57   O     O_3   0.514550 0.087830 0.547860 -0.459118
O58   O     O_2   0.085868 0.382923 0.941470 -0.379829
O59   O     O_2   0.085140 0.618902 0.441333 -0.428276
O60   O     O_2   0.585869 0.882924 0.941473 -0.379820
O61   O     O_2   0.585140 0.118902 0.441333 -0.428276
O62   O     O_3   0.639558 0.984790 0.608675 -0.657799
O63   O     O_3   0.639726 0.015669 0.109108 -0.668199
O64   O     O_3   0.037889 0.329776 0.060404 -0.685490
P1    P     P_3+3 0.909970 0.458430 0.077330 1.052190
P2    P     P_3+3 0.055427 0.622804 0.582024 1.139802
P3    P     P_3+3 0.556758 0.878439 0.082973 1.138092
P4    P     P_3+3 0.555427 0.122805 0.582025 1.139801
P5    P     P_3+3 0.949537 0.627339 0.107022 1.056723
P6    P     P_3+3 0.951340 0.371516 0.605699 1.047529
P7    P     P_3+3 0.449537 0.127339 0.107023 1.056725
P8    P     P_3+3 0.451339 0.871516 0.605701 1.047521
P9    P     P_3+3 0.909970 0.541570 0.577330 1.006929
P10   P     P_3+3 0.409970 0.958430 0.077330 1.052191
P11   P     P_3+3 0.409970 0.041570 0.577330 1.006927
P12   P     P_3+3 0.089830 0.458070 0.612460 1.108539
P13   P     P_3+3 0.089830 0.541930 0.112460 1.083045
P14   P     P_3+3 0.589830 0.958070 0.612460 1.108539
P15   P     P_3+3 0.589830 0.041930 0.112460 1.083045
P16   P     P_3+3 0.056758 0.378440 0.082971 1.138104

loop_
_geom_bond_atom_site_label_1
_geom_bond_atom_site_label_2
_ccdc_geom_bond_type
C79   O3    S    
C101  C106  A    
H101  N19   S    
C83   C87   A    
C35   N1    Am   
C96   O24   D    
C97   O25   D    
O29   P10   S    
C12   C108  A    
C38   C71   S    
H98   N18   S    
H49   N66   S    
H6    N46   S    
H63   N72   S    
H122  N30   S    
C55   C62   A    
C22   N2    S    
H131  N35   S    
O39   P7    D    
C101  C119  A    
C4    C134  A    
C83   N32   S    
H55   N70   S    
C38   O48   S    
C80   N57   S    
C57   C59   A    
C5    C9    A    
C125  N58   S    
C51   C70   A    
C7    C11   A    
C73   C84   A    
C66   C70   A    
O63   P15   S    
Ba3   O30   S    
C39   H35   S    
H89   N14   S    
C102  C107  A    
C18   F28   S    
C112  N40   S    
C40   C131  S    
C57   H13   S    
C6    C136  A    
C135  P9    S    
O51   P14   D    
C81   N31   S    
C74   C85   A    
O54   P2    S    
C80   C129  S    
Ba1   O1    S    
C112  C117  S    
H4    N44   S    
C2    C93   A    
H16   N50   S    
C123  C132  S    
Ba2   P9    S    
H14   N49   S    
C106  P4    S    
C109  P12   S    
H91   N15   S    
H111  N25   S    
O59   P2    D    
C71   N26   S    
O28   P9    S    
C7    N48   S    
C16   C107  A    
H19   N52   S    
Ba4   O52   S    
C77   C125  S    
C78   O2    S    
C114  N42   S    
H26   N55   S    
C128  N29   S    
Ba3   P10   S    
H28   N57   S    
C20   O62   S    
C58   C115  A    
C67   C98   A    
O60   P3    D    
C100  F19   S    
C99   C117  A    
C46   C73   A    
C75   C81   A    
C30   N18   S    
H126  N32   S    
C119  N23   S    
C26   N9    S    
Ba3   O33   S    
C17   F27   S    
C123  F16   S    
C29   O43   S    
Ba2   P13   S    
C81   C86   A    
C111  P14   S    
H115  N27   S    
C71   F8    S    
Ba1   P1    S    
C136  P10   S    
C51   C82   A    
C44   O16   D    
C47   C74   A    
H73   N5    S    
Ba3   O8    S    
Ba4   O34   S    
H74   N6    S    
Ba1   O6    S    
C62   C66   A    
C78   F24   S    
C16   H62   S    
H39   N62   S    
C49   F6    S    
O36   P6    D    
C3    P11   S    
H119  N28   S    
H76   N7    S    
C65   C96   A    
C44   C48   A    
H54   N70   S    
C102  C120  A    
H68   N3    S    
C99   C103  A    
O5    P13   S    
C20   N70   S    
C78   C127  S    
Ba4   O7    S    
H67   N3    S    
O6    P12   S    
C18   N68   S    
O53   P16   S    
H7    N46   S    
Ba3   O51   S    
C5    C135  A    
C77   F22   S    
C29   N8    S    
C14   C105  A    
H99   N18   S    
C15   H60   S    
C126  O9    D    
C66   C97   A    
C76   F13   S    
H106  N21   S    
C38   H83   S    
C39   C134  D    
O27   P1    S    
C131  P5    S    
C125  N62   S    
O48   P7    S    
C101  F20   S    
H142  N40   S    
H80   N9    S    
O37   P5    D    
H71   N5    S    
C17   N66   S    
C88   C92   A    
C94   O21   D    
C27   N10   S    
C102  F21   S    
C54   C115  A    
H43   N64   S    
C23   F23   S    
C90   N45   Am   
C56   C63   A    
H41   N63   S    
C95   N45   Am   
Ba2   O6    S    
C48   C75   A    
C20   F30   S    
H45   N65   S    
C33   N21   S    
C34   H1    S    
C28   N11   S    
C63   N39   S    
C52   C93   A    
C32   N16   S    
C23   F34   S    
C124  F17   S    
C38   H127  S    
H128  N32   S    
C1    F5    S    
C26   C30   S    
C2    O10   D    
C3    C42   D    
C24   N34   Am   
C6    C10   A    
C82   C126  A    
O30   P11   S    
C79   N55   S    
C29   N13   S    
Ba2   O27   S    
H33   N59   S    
C6    N47   S    
H148  N43   S    
C91   N56   Am   
C113  C118  S    
H38   N61   S    
H84   N10   S    
C68   C86   A    
C19   F29   S    
C110  P15   S    
C4    C8    A    
C84   N33   S    
O38   P8    D    
C25   F31   S    
H10   N48   S    
C60   N51   S    
C133  P7    S    
C42   C133  S    
C109  C113  A    
C5    N46   S    
C33   N17   S    
C60   N25   S    
C37   H72   S    
C40   H46   S    
C128  N60   S    
C116  N43   S    
Ba3   Ba4   S    
C108  C112  A    
C121  F14   S    
C28   O42   S    
C17   C21   S    
C59   C64   A    
C103  P2    S    
O58   P16   D    
C16   C111  A    
H108  N22   S    
C108  P13   S    
C28   C32   S    
H95   N16   S    
C94   N71   Am   
C1    N22   S    
C37   C60   S    
O45   P12   S    
C125  N27   S    
C25   N4    S    
C22   F12   S    
C128  N64   S    
Ba4   P11   S    
C129  N65   S    
H34   N60   S    
C13   O11   D    
C62   N38   S    
C127  N63   S    
C134  P1    S    
H112  N25   S    
H18   N51   S    
O2    P2    S    
Ba2   O12   S    
O7    P15   S    
Ba4   O29   S    
C31   F2    S    
C87   C91   A    
H30   N58   S    
H50   N68   S    
H47   N65   S    
C21   N72   S    
H66   N2    S    
O46   P5    S    
O42   P10   S    
C26   N5    S    
H37   N61   S    
Ba1   O31   S    
Ba3   O55   S    
C1    N49   S    
C96   N56   Am   
C121  C130  S    
Ba1   O53   S    
H81   N9    S    
H70   N4    S    
O56   P13   S    
H20   N52   S    
C79   F25   S    
H93   N16   S    
H97   N17   S    
Ba4   O57   S    
C92   O20   D    
C25   F35   S    
Ba4   O35   S    
C67   C72   A    
H124  N31   S    
C63   C67   A    
C56   H2    S    
H100  N19   S    
C23   N3    S    
H107  N22   S    
O34   P11   D    
H53   N69   S    
C20   C25   S    
H48   N66   S    
C12   C103  A    
C19   N69   S    
Ba2   O50   S    
H65   N2    S    
H123  N30   S    
C65   C69   A    
C41   H56   S    
O35   P7    S    
H85   N11   S    
C122  F15   S    
C18   O45   S    
H137  N38   S    
H9    N47   S    
C105  P16   S    
C1    C34   S    
H104  N21   S    
C43   O15   D    
C49   N24   S    
C86   C90   A    
C50   C76   A    
C98   N71   Am   
O43   P11   S    
C120  N34   S    
H139  N38   S    
H88   N13   S    
C55   H138  S    
H110  N24   S    
C56   C93   A    
H125  N31   S    
C13   C104  A    
C73   F9    S    
C14   H59   S    
C43   C47   A    
C8    C121  D    
C15   C110  A    
H90   N14   S    
C41   C136  D    
C29   C33   S    
C10   C123  D    
H11   N48   S    
C39   C130  S    
Ba3   O7    S    
C127  N28   S    
H82   N10   S    
O49   P12   D    
C72   C89   A    
Ba1   O5    S    
C13   N23   Am   
C12   H58   S    
C28   N7    S    
C113  N41   S    
C32   N20   S    
C34   H94   S    
H140  N39   S    
C91   O19   D    
C9    C122  D    
C21   F32   S    
H87   N13   S    
H135  N37   S    
C122  C131  S    
C11   C124  D    
H96   N17   S    
H121  N29   S    
O33   P8    S    
H52   N69   S    
C80   O4    S    
Ba4   O8    S    
O50   P13   D    
C118  N12   S    
C37   O47   S    
O12   P9    D    
C37   H116  S    
H64   N72   S    
C31   N19   S    
H8    N47   S    
C21   F1    S    
H114  N26   S    
C44   N23   Am   
C99   F18   S    
H40   N62   S    
C22   F33   S    
H21   N53   S    
H78   N8    S    
O62   P14   S    
H17   N51   S    
C58   H24   S    
C79   C128  S    
C98   O26   D    
C27   O41   S    
H146  N42   S    
C117  N1    S    
H144  N41   S    
C100  C105  A    
C61   C65   A    
Ba1   Ba2   S    
H5    N44   S    
H44   N64   S    
H31   N58   S    
C33   F4    S    
C11   N71   S    
C114  C119  S    
C97   N67   Am   
C53   C68   A    
H141  N39   S    
C55   C82   A    
C48   C53   A    
C35   O14   D    
C100  C118  A    
H130  N33   S    
C18   C22   S    
C45   N34   Am   
C9    N56   S    
C14   C109  A    
C49   N50   S    
O57   P4    S    
O52   P15   D    
H143  N40   S    
C77   N53   S    
H132  N35   S    
C52   C72   A    
H32   N59   S    
C95   O22   D    
C2    N12   Am   
Ba4   P15   S    
H113  N26   S    
Ba1   P12   S    
C129  N61   S    
C3    C7    A    
H22   N53   S    
O64   P16   S    
C130  P6    S    
H134  N36   S    
C32   F3    S    
H25   N54   S    
C76   C83   A    
H129  N33   S    
C24   O13   D    
O23   P10   D    
H133  N36   S    
C45   C50   A    
C126  N1    Am   
C107  P3    S    
C129  N30   S    
H117  N27   S    
C47   C52   A    
C57   C104  A    
H75   N6    S    
O61   P4    D    
O3    P3    S    
C71   N52   S    
C84   C88   A    
C59   N36   S    
C19   C23   S    
H23   N54   S    
C64   C68   A    
C70   C88   A    
C8    N45   S    
C85   C89   A    
Ba3   P14   S    
H27   N55   S    
H42   N63   S    
C17   O56   S    
C36   H105  S    
C42   H57   S    
C30   F36   S    
C69   C87   A    
O32   P5    S    
H120  N29   S    
O31   P6    S    
C26   O40   S    
C30   N14   S    
C92   N67   Am   
C78   N54   S    
C127  N59   S    
H92   N15   S    
Ba2   O32   S    
Ba1   O49   S    
C124  C133  S    
H36   N60   S    
C36   H61   S    
H147  N42   S    
C53   C104  A    
O55   P3    S    
Ba2   O5    S    
H145  N41   S    
C110  C114  A    
H69   N4    S    
H51   N68   S    
C111  C116  A    
H102  N20   S    
C4    N44   S    
C60   F7    S    
C36   O46   S    
C10   N67   S    
H118  N28   S    
O40   P1    S    
C34   O44   S    
C74   F10   S    
C75   F11   S    
C50   C54   A    
C15   C106  A    
H15   N50   S    
H77   N7    S    
C41   C132  S    
C58   C61   A    
C132  P8    S    
C24   C115  A    
O41   P9    S    
O44   P6    S    
C40   C135  D    
H79   N8    S    
C46   C51   A    
Ba3   O23   S    
H103  N20   S    
C64   C95   A    
H12   N49   S    
C90   O18   D    
C85   N35   S    
C45   O17   D    
H86   N11   S    
C43   N12   Am   
C61   N37   S    
C77   O64   S    
C27   C31   S    
O1    P1    D    
H136  N37   S    
C80   F26   S    
C35   C46   A    
H29   N57   S    
O47   P8    S    
C36   C49   S    
C19   O63   S    
C31   N15   S    
C27   N6    S    
H3    N43   S    
Ba1   O28   S    
Ba2   O54   S    
O8    P14   S    
C89   C94   A    
H109  N24   S    
C116  C120  S    
C54   C69   A    
O4    P4    S    
