data_mof_unit_40112.cif
_audit_creation_date              2012-12-10T19:06:49-0500
_audit_creation_method            fapswitch 2.2
_symmetry_space_group_name_H-M    P1
_symmetry_Int_Tables_number       1
_space_group_crystal_system       triclinic
_cell_length_a                    13.042462
_cell_length_b                    13.621419
_cell_length_c                    16.680645
_cell_angle_alpha                 89.417837
_cell_angle_beta                  92.689447
_cell_angle_gamma                 94.243328
_cell_volume                      2951.98562913

loop_
_atom_site_label
_atom_site_type_symbol
_atom_type_description
_atom_site_fract_x
_atom_site_fract_y
_atom_site_fract_z
_atom_type_partial_charge
C1    C     C_R   0.481240 0.314882 0.500876 0.900564
C2    C     C_2   0.964004 0.465784 0.484106 0.014734
C3    C     C_1   0.852775 0.477318 0.486040 0.075774
C4    C     C_1   0.147336 0.523556 0.512949 0.076796
C5    C     C_R   0.485093 0.502833 0.347094 0.878503
C6    C     C_R   0.514488 0.493926 0.652759 0.876704
C7    C     C_R   0.472310 0.492220 0.260873 -0.114611
C8    C     C_R   0.524321 0.464094 0.736635 -0.153741
C9    C     C_R   0.541522 0.541149 0.208611 0.093223
C10   C     C_R   0.457497 0.387853 0.768495 0.075448
C11   C     C_R   0.540327 0.509286 0.129419 -0.261232
C12   C     C_R   0.518695 0.685072 0.499049 0.910373
C13   C     C_R   0.477467 0.357486 0.847772 -0.233920
C14   C     C_R   0.469484 0.433147 0.101784 0.047305
C15   C     C_R   0.558936 0.403051 0.894723 0.009000
C16   C     C_R   0.392829 0.393746 0.151226 0.500932
C17   C     C_R   0.630096 0.471206 0.860045 0.548211
C18   C     C_R   0.396496 0.421628 0.231511 -0.341308
C19   C     C_R   0.610939 0.502719 0.781724 -0.293295
C20   C     C_2   0.470161 0.401146 0.018710 -0.148309
C21   C     C_2   0.558701 0.394774 0.982182 -0.204485
C22   C     C_3   0.616242 0.627127 0.234328 -0.413886
C23   C     C_1   0.533920 0.788044 0.499896 -0.179629
C24   C     C_3   0.587121 0.722935 0.192900 -0.352852
C25   C     C_3   0.658145 0.810597 0.222345 -0.868451
C26   C     C_3   0.366674 0.341016 0.717642 -0.359747
C27   C     C_3   0.306557 0.251534 0.754328 -0.386728
C28   C     C_3   0.219354 0.211677 0.696586 -0.893989
C29   C     C_3   0.224043 0.356970 0.115488 0.077947
C30   C     C_3   0.149557 0.281436 0.072747 -0.817383
C31   C     C_3   0.795618 0.457873 0.907832 0.081245
C32   C     C_3   0.865452 0.483436 0.838538 -0.878118
C33   C     C_3   0.281173 0.005435 0.538316 0.106284
C34   C     C_1   0.466204 0.211854 0.503842 -0.178016
C35   C     C_3   0.189164 0.930917 0.545461 -0.824555
C36   C     C_3   0.726457 0.989985 0.501019 0.112182
C37   C     C_3   0.820516 0.062978 0.502055 -0.818619
C38   C     C_3   0.995699 0.369576 0.451665 -0.409169
C39   C     C_3   0.017945 0.297067 0.520161 -0.319953
C40   C     C_3   0.064823 0.206064 0.489353 -0.902535
C41   C     C_3   0.005346 0.631669 0.547652 -0.414580
C42   C     C_3   0.983025 0.618736 0.636701 -0.331224
C43   C     C_3   0.951015 0.714230 0.671831 -0.877197
C44   C     C_2   0.546122 0.980406 0.504034 0.402257
C45   C     C_2   0.455060 0.019440 0.508420 0.402148
C46   C     C_1   0.456933 0.124501 0.506417 -0.087253
C47   C     C_1   0.543373 0.875354 0.501441 -0.098824
C48   C     C_2   0.036270 0.536482 0.512941 0.017686
H1    H     H_    0.663430 0.558768 0.756225 0.174317
H2    H     H_    0.592400 0.716917 0.126855 0.229558
H3    H     H_    0.506543 0.736593 0.205854 0.228942
H4    H     H_    0.617766 0.639389 0.299908 0.214783
H5    H     H_    0.695324 0.611018 0.219027 0.203618
H6    H     H_    0.161029 0.266680 0.687925 0.259893
H7    H     H_    0.249426 0.194900 0.637471 0.257557
H8    H     H_    0.181539 0.143181 0.721712 0.252230
H9    H     H_    0.359257 0.192312 0.767579 0.229423
H10   H     H_    0.271995 0.272911 0.810657 0.222605
H11   H     H_    0.311542 0.398048 0.704154 0.221756
H12   H     H_    0.343529 0.384133 0.271856 0.168018
H13   H     H_    0.396467 0.316640 0.660439 0.205510
H14   H     H_    0.225987 0.426321 0.079232 0.127121
H15   H     H_    0.194563 0.370938 0.175567 0.144069
H16   H     H_    0.144402 0.211638 0.107819 0.262204
H17   H     H_    0.071917 0.309836 0.066369 0.199394
H18   H     H_    0.176444 0.266728 0.012105 0.249786
H19   H     H_    0.772811 0.377226 0.908358 0.121227
H20   H     H_    0.840965 0.473573 0.964864 0.166187
H21   H     H_    0.887835 0.563672 0.837905 0.266107
H22   H     H_    0.936106 0.442860 0.845848 0.215428
H23   H     H_    0.631513 0.404111 0.016646 0.169712
H24   H     H_    0.825454 0.462245 0.780398 0.245846
H25   H     H_    0.258074 0.065229 0.496792 0.152805
H26   H     H_    0.302249 0.035797 0.599094 0.141988
H27   H     H_    0.209452 0.870197 0.586830 0.258509
H28   H     H_    0.123709 0.967333 0.569432 0.198311
H29   H     H_    0.165268 0.899811 0.485598 0.258508
H30   H     H_    0.725803 0.945402 0.445375 0.144049
H31   H     H_    0.733071 0.941509 0.554914 0.142391
H32   H     H_    0.824023 0.107934 0.557427 0.257788
H33   H     H_    0.891416 0.022719 0.500730 0.202498
H34   H     H_    0.396457 0.393665 0.985363 0.165129
H35   H     H_    0.816662 0.112511 0.448860 0.261445
H36   H     H_    0.013833 0.170019 0.441409 0.267617
H37   H     H_    0.141386 0.226860 0.465127 0.264524
H38   H     H_    0.074829 0.152779 0.539419 0.249600
H39   H     H_    0.072579 0.332938 0.565923 0.221023
H40   H     H_    0.945178 0.274134 0.549575 0.222374
H41   H     H_    0.933290 0.335916 0.410735 0.198667
H42   H     H_    0.064536 0.383416 0.415133 0.203998
H43   H     H_    0.013246 0.773831 0.666271 0.260839
H44   H     H_    0.879630 0.736818 0.640102 0.260845
H45   H     H_    0.427545 0.301515 0.875476 0.156748
H46   H     H_    0.935986 0.703044 0.736358 0.250316
H47   H     H_    0.920070 0.560171 0.644077 0.226224
H48   H     H_    0.053020 0.596331 0.670657 0.221898
H49   H     H_    0.068499 0.690328 0.541003 0.205102
H50   H     H_    0.936781 0.657283 0.513726 0.201644
H51   H     H_    0.594493 0.544662 0.088948 0.174102
H52   H     H_    0.651859 0.820651 0.287917 0.257078
H53   H     H_    0.739247 0.799140 0.209674 0.261184
H54   H     H_    0.635827 0.878545 0.190856 0.256245
N1    N     N_1   0.235630 0.515160 0.512550 -0.096945
N2    N     N_1   0.764370 0.484840 0.487450 -0.096196
O1    O     O_R   0.402910 0.365220 0.504590 -0.627557
O2    O     O_3   0.710972 0.517354 0.905265 -0.632163
O3    O     O_3   0.363981 0.958068 0.508187 -0.620475
O4    O     O_3   0.636905 0.042222 0.502310 -0.624139
O5    O     O_R   0.597090 0.634780 0.495410 -0.625199
O6    O     O_R   0.572660 0.355490 0.496530 -0.580840
O7    O     O_R   0.427340 0.644510 0.503470 -0.582652
O8    O     O_R   0.405090 0.505430 0.388710 -0.610308
O9    O     O_R   0.594910 0.494570 0.611290 -0.607573
O10   O     O_R   0.574840 0.495690 0.380650 -0.611750
O11   O     O_R   0.425160 0.504310 0.619350 -0.619975
O12   O     O_3   0.322254 0.319748 0.123178 -0.608233
Zn1   Zn    Zn3+2 0.386660 0.506500 0.505380 0.957712
Zn2   Zn    Zn3+2 0.613340 0.493500 0.494620 0.963845

loop_
_geom_bond_atom_site_label_1
_geom_bond_atom_site_label_2
_ccdc_geom_bond_type
C3    N2    T    
C29   H15   S    
C20   H34   S    
C5    O10   A    
C36   O4    S    
C41   C42   S    
C40   H36   S    
C33   O3    S    
C39   H39   S    
C37   H33   S    
O6    Zn2   S    
C28   H8    S    
C32   H24   S    
C45   C46   S    
C31   H19   S    
C12   C23   S    
C35   H27   S    
C26   C27   S    
C21   H23   S    
C42   H48   S    
C36   C37   S    
C26   H13   S    
C30   H16   S    
O8    Zn1   S    
C11   C14   A    
C9    C22   S    
C4    N1    T    
C43   H46   S    
C11   H51   S    
C40   H38   S    
C19   H1    S    
C17   C19   A    
O11   Zn1   S    
C1    C34   S    
C10   C13   A    
C34   C46   T    
C14   C16   A    
C26   H11   S    
C44   C47   S    
C10   C26   S    
C24   H3    S    
O1    Zn1   S    
N1    Zn1   S    
C39   H40   S    
C16   O12   S    
C12   O5    A    
C28   H7    S    
O5    Zn2   S    
C22   H5    S    
N2    Zn2   S    
C44   O4    S    
C24   H2    S    
C31   H20   S    
C37   H32   S    
C35   H28   S    
C8    C19   A    
C23   C47   T    
C42   H47   S    
C14   C20   S    
C24   C25   S    
C27   H9    S    
C39   C40   S    
C5    C7    S    
C28   H6    S    
C6    C8    S    
C2    C48   D    
C35   H29   S    
C43   H43   S    
C13   H45   S    
C40   H37   S    
C6    O9    A    
C29   C30   S    
C1    O6    A    
C2    C38   S    
C25   H52   S    
C31   C32   S    
C38   H41   S    
C7    C18   A    
C16   C18   A    
C30   H18   S    
C9    C11   A    
O10   Zn2   S    
C33   H25   S    
C29   O12   S    
C13   C15   A    
C31   O2    S    
C22   C24   S    
C42   C43   S    
C44   C45   D    
C22   H4    S    
C4    C48   S    
C18   H12   S    
C7    C9    A    
C29   H14   S    
C36   H31   S    
C32   H22   S    
C15   C17   A    
C32   H21   S    
C5    O8    A    
C38   H42   S    
C43   H44   S    
O7    Zn1   S    
C2    C3    S    
C36   H30   S    
C17   O2    S    
C25   H53   S    
C38   C39   S    
C27   H10   S    
C33   C35   S    
C41   C48   S    
C41   H49   S    
C25   H54   S    
C6    O11   A    
C30   H17   S    
O9    Zn2   S    
C33   H26   S    
C15   C21   S    
C20   C21   D    
C8    C10   A    
C27   C28   S    
C41   H50   S    
C37   H35   S    
C12   O7    A    
C45   O3    S    
C1    O1    A    
