data_mof_unit_19343.cif
_audit_creation_date              2013-03-05T16:02:52-0500
_audit_creation_method            fapswitch 2.2
_symmetry_space_group_name_H-M    P1
_symmetry_Int_Tables_number       1
_space_group_crystal_system       triclinic
_cell_length_a                    8.23842
_cell_length_b                    14.799144
_cell_length_c                    17.304472
_cell_angle_alpha                 98.066942
_cell_angle_beta                  95.876217
_cell_angle_gamma                 92.561067
_cell_volume                      2074.19689277

loop_
_atom_site_label
_atom_site_type_symbol
_atom_site_description
_atom_site_fract_x
_atom_site_fract_y
_atom_site_fract_z
_atom_type_partial_charge
P1    P     P_3+3 0.017810 0.410420 0.324030 0.499841
O1    O     O_2   0.840370 0.437300 0.310630 -0.395361
O2    O     O_3   0.112450 0.444030 0.408320 -0.352448
O3    O     O_3   0.597270 0.610320 0.351390 -0.363375
O4    O     O_2   0.719428 0.555461 0.218836 -0.408758
O5    O     O_3   0.991473 0.291180 0.301245 -0.598937
O6    O     O_3   0.533734 0.693848 0.213597 -0.564233
H1    H     H_    0.709755 0.757986 0.300562 0.188909
C1    C     C_3   0.583761 0.858388 0.241990 -0.580082
H2    H     H_    0.634070 0.912623 0.290861 0.139978
P2    P     P_3+3 0.635890 0.718430 0.552520 0.466763
P3    P     P_3+3 0.050175 0.776039 0.384962 0.474777
O7    O     O_2   0.802370 0.730760 0.528330 -0.392568
O8    O     O_3   0.016680 0.660770 0.388810 -0.403985
O9    O     O_2   0.917718 0.826481 0.428520 -0.337530
O10   O     O_3   0.660317 0.741195 0.655543 -0.546417
O11   O     O_3   0.005865 0.792568 0.287006 -0.512593
C2    C     C_3   0.077999 0.724082 0.239507 0.357789
H3    H     H_    0.021790 0.655700 0.243850 0.128832
H4    H     H_    0.212028 0.725836 0.256638 0.042159
C3    C     C_3   0.048630 0.738760 0.154084 -0.844709
H5    H     H_    0.919401 0.719042 0.130873 0.224697
H6    H     H_    0.075661 0.811501 0.148513 0.310824
C4    C     C_3   0.212758 0.752316 0.638114 0.366047
H7    H     H_    0.320384 0.726604 0.610633 0.091030
H8    H     H_    0.102159 0.741846 0.594691 0.113337
C5    C     C_3   0.244940 0.853677 0.670716 -0.609811
H9    H     H_    0.365507 0.864207 0.706703 0.265615
H10   H     H_    0.150564 0.876161 0.709483 0.198639
Ba1   Ba    Ba6+2 0.833220 0.541860 0.459910 1.587837
C6    C     C_3   0.990478 0.251086 0.369810 0.278786
C7    C     C_3   0.926522 0.150375 0.349429 -0.756798
H11   H     H_    0.792083 0.146434 0.337200 0.187341
H12   H     H_    0.956582 0.114464 0.400897 0.227121
C8    C     C_3   0.744261 0.673215 0.688579 0.289209
H13   H     H_    0.864860 0.667376 0.666151 0.064675
H14   H     H_    0.673674 0.606172 0.673646 0.117100
C9    C     C_3   0.769145 0.698959 0.778679 -0.632556
H15   H     H_    0.844771 0.647872 0.803468 0.058414
P4    P     P_3+3 0.171880 0.589650 0.675980 0.471816
O12   O     O_2   0.349330 0.562730 0.689420 -0.344760
O13   O     O_3   0.077250 0.556050 0.591680 -0.424695
O14   O     O_3   0.592420 0.389760 0.648620 -0.351025
O15   O     O_3   0.187762 0.708031 0.702089 -0.571849
P5    P     P_3+3 0.144154 0.224222 0.617913 0.448970
O16   O     O_3   0.628930 0.385070 0.464840 -0.351110
O17   O     O_3   0.173020 0.339310 0.611190 -0.374973
O18   O     O_2   0.262956 0.173414 0.565856 -0.361200
O19   O     O_3   0.218186 0.210224 0.713563 -0.538607
Ba2   Ba    Ba6+2 0.356600 0.458220 0.540090 1.582632
P6    P     P_3+3 0.559809 0.589617 0.249634 0.454222
C10   C     C_3   0.584270 0.766594 0.273989 0.223489
H16   H     H_    0.500981 0.768623 0.320656 0.053651
O20   O     O_3   0.560770 0.615000 0.535160 -0.369968
C11   C     C_3   0.550026 0.287885 0.299064 0.391334
H17   H     H_    0.657161 0.331933 0.321699 0.163599
C12   C     C_3   0.571660 0.243743 0.215834 -1.009364
H18   H     H_    0.466551 0.194707 0.191704 0.272148
H19   H     H_    0.581339 0.297104 0.177011 0.235374
P7    P     P_3+3 0.565902 0.266148 0.447174 0.476058
O21   O     O_2   0.387340 0.269270 0.471720 -0.290747
O22   O     O_3   0.535990 0.221063 0.346657 -0.624898
H20   H     H_    0.129049 0.695983 0.118477 0.222936
C13   C     C_3   0.162866 0.279716 0.766615 0.493981
H21   H     H_    0.224263 0.346759 0.761823 0.147773
C14   C     C_3   0.204361 0.258818 0.849801 -0.880119
H22   H     H_    0.156038 0.188839 0.854610 0.273807
P8    P     P_3+3 0.622093 0.403639 0.750292 0.431980
C15   C     C_3   0.660605 0.230764 0.760997 0.356974
O23   O     O_2   0.499491 0.472490 0.780445 -0.421639
O24   O     O_3   0.557199 0.301619 0.781476 -0.518474
H23   H     H_    0.758129 0.250193 0.725505 -0.013820
H24   H     H_    0.633045 0.091290 0.700426 0.229458
C16   C     C_3   0.558393 0.150291 0.712551 -0.728232
H25   H     H_    0.509803 0.169962 0.655800 0.266076
H26   H     H_    0.457771 0.127607 0.744634 0.279775
C17   C     C_2   0.248422 0.518738 0.270089 -0.330231
C18   C     C_3   0.381814 0.507010 0.215725 0.206930
C19   C     C_2   0.310464 0.515450 0.133577 -0.274998
C20   C     C_2   0.148737 0.495476 0.112519 0.102596
C21   C     C_2   0.046170 0.465314 0.173572 -0.274564
C22   C     C_1   0.109305 0.469451 0.248581 0.293154
C23   C     C_R   0.900823 0.454597 0.862555 -0.188735
C24   C     C_R   0.831939 0.450736 0.784189 0.111809
C25   C     C_R   0.072965 0.531550 0.750495 0.304760
C26   C     C_R   0.142044 0.537909 0.829434 -0.283988
C27   C     C_R   0.058974 0.498762 0.886045 0.082657
C28   C     C_2   0.069655 0.509407 0.033683 -0.067084
C29   C     C_2   0.145397 0.500435 0.967071 -0.142913
C30   C     C_R   0.920830 0.485079 0.728687 -0.463652
H27   H     H_    0.275099 0.489540 0.970500 0.128082
H28   H     H_    0.919377 0.441772 0.156222 0.188326
H29   H     H_    0.941493 0.523879 0.030604 0.127934
H30   H     H_    0.260574 0.573567 0.846951 0.170812
H31   H     H_    0.866842 0.480215 0.668498 0.167338
C31   C     C_R   0.686209 0.948256 0.561959 -0.120295
C32   C     C_R   0.512030 0.801214 0.505171 0.217174
C33   C     C_R   0.363943 0.763759 0.463221 -0.493020
C34   C     C_R   0.258135 0.818380 0.426257 0.285903
C35   C     C_R   0.307576 0.907312 0.422158 -0.265314
C36   C     C_R   0.458125 0.948233 0.461294 -0.015662
C37   C     C_R   0.556588 0.898140 0.509574 -0.046649
C38   C     C_R   0.638406 0.089658 0.503169 -0.054357
C39   C     C_R   0.734401 0.041834 0.556683 0.032105
C40   C     C_R   0.681005 0.185911 0.503190 0.180351
C41   C     C_R   0.827821 0.225079 0.543512 -0.428355
C42   C     C_R   0.932510 0.175371 0.585915 0.164955
C43   C     C_R   0.878722 0.089461 0.601796 -0.164428
C44   C     C_R   0.502975 0.039783 0.454856 -0.092733
H32   H     H_    0.220400 0.945158 0.390864 0.209205
C45   C     C_2   0.241966 0.913027 0.608163 0.399969
H33   H     H_    0.342709 0.962606 0.608159 0.104620
O25   O     O_2   0.120675 0.912129 0.561307 -0.582876
H34   H     H_    0.910272 0.287159 0.409963 0.071115
H35   H     H_    0.115892 0.254849 0.399883 0.178025
C46   C     C_2   0.992150 0.101610 0.277995 0.856682
H36   H     H_    0.979987 0.129650 0.223162 0.028751
O26   O     O_2   0.054972 0.028772 0.280162 -0.549262
C47   C     C_2   0.863530 0.790126 0.802765 0.737393
H37   H     H_    0.985897 0.798648 0.786364 0.009074
O27   O     O_2   0.806508 0.854265 0.841308 -0.494347
C48   C     C_2   0.609055 0.695229 0.813691 0.842374
H38   H     H_    0.587896 0.646172 0.853202 -0.073021
O28   O     O_2   0.502826 0.746964 0.798595 -0.515585
C49   C     C_2   0.411914 0.881453 0.216319 0.561111
H39   H     H_    0.323254 0.887708 0.258578 0.040816
O29   O     O_2   0.370492 0.894753 0.149198 -0.549749
C50   C     C_2   0.401576 0.339760 0.299458 0.511216
H40   H     H_    0.298723 0.320858 0.254868 -0.020273
O30   O     O_2   0.393136 0.400861 0.353551 -0.542853
H41   H     H_    0.685329 0.206243 0.216127 0.278104
C51   C     C_2   0.690195 0.857403 0.176084 0.841352
H42   H     H_    0.664674 0.806797 0.123872 0.019838
O31   O     O_2   0.804072 0.914056 0.180230 -0.566265
H43   H     H_    0.028647 0.283824 0.755911 -0.031676
H44   H     H_    0.149928 0.308744 0.892079 0.237964
H45   H     H_    0.338495 0.263052 0.865676 0.296962
C52   C     C_2   0.738197 0.200513 0.834595 0.659265
H46   H     H_    0.869143 0.195797 0.843420 0.021181
O32   O     O_2   0.654667 0.179822 0.884551 -0.519995
C53   C     C_2   0.808592 0.407761 0.916370 0.456806
H47   H     H_    0.678734 0.416149 0.917660 0.069967
O33   O     O_2   0.875012 0.356450 0.957454 -0.577624
H48   H     H_    0.389770 0.538674 0.093100 0.154734
H49   H     H_    0.261699 0.570044 0.322092 0.145373
H50   H     H_    0.326937 0.692508 0.462479 0.167370
C54   C     C_2   0.975468 0.057650 0.668925 0.486862
H51   H     H_    0.104012 0.048842 0.667289 0.096563
O34   O     O_2   0.918852 0.053510 0.730819 -0.599951
H52   H     H_    0.865005 0.295214 0.539531 0.150365
C55   C     C_2   0.745920 0.910766 0.632449 0.664280
H53   H     H_    0.860848 0.877827 0.635597 0.041460
O35   O     O_2   0.668279 0.919469 0.689204 -0.545635
C56   C     C_2   0.414090 0.074667 0.388877 0.643560
H54   H     H_    0.455351 0.060883 0.331029 0.008382
O36   O     O_2   0.285271 0.110115 0.396971 -0.559669

loop_
_geom_bond_atom_site_label_1
_geom_bond_atom_site_label_2
_geom_bond_distance
_ccdc_geom_bond_type
C23   C27   1.425096 A    
C11   H17   1.078667 S    
C35   H32   1.078972 S    
C36   C37   1.412222 A    
C41   H52   1.082525 S    
C31   C37   1.433345 A    
C5    H10   1.110196 S    
C2    C3    1.520647 S    
H24   C16   1.098952 S    
C54   H51   1.075502 S    
C4    C5    1.528091 S    
C50   H40   1.084435 S    
C21   C22   1.340037 D    
C30   H31   1.081231 S    
C17   C18   1.518441 S    
Ba1   O20   2.885357 S    
Ba2   O20   2.820648 S    
C16   H26   1.108955 S    
P5    O18   1.546280 D    
C54   O34   1.219265 D    
C4    H8    1.110565 S    
O6    C10   1.406966 S    
P1    O1    1.535382 D    
C53   O33   1.220853 D    
O10   C8    1.399949 S    
C9    H15   1.105516 S    
C38   C44   1.432081 A    
C12   H19   1.111554 S    
C41   C42   1.379144 A    
C36   C44   1.410897 A    
C11   O22   1.381102 S    
C46   H36   1.085039 S    
P7    O22   1.761591 S    
C2    H3    1.109422 S    
C15   O24   1.410046 S    
C35   C36   1.417554 A    
P3    C34   1.834733 S    
C26   H30   1.082752 S    
C21   H28   1.084693 S    
C8    H13   1.105640 S    
P2    Ba1   3.431776 S    
O14   P8    1.733029 S    
P3    O11   1.750444 S    
C55   H53   1.084071 S    
C29   H27   1.084619 S    
C38   C39   1.438019 A    
C1    H2    1.113186 S    
H1    C10   1.107834 S    
C6    H34   1.107181 S    
C56   O36   1.216822 D    
C32   C37   1.454192 A    
C43   C54   1.484495 S    
O16   P7    1.787546 S    
C28   C29   1.359207 D    
P5    O17   1.730919 S    
O5    C6    1.399644 S    
Ba1   Ba2   4.476447 S    
C13   H43   1.108112 S    
C5    C45   1.485637 S    
O19   C13   1.403826 S    
C3    H5    1.109832 S    
C1    C10   1.537282 S    
C24   C30   1.401705 A    
O8    Ba1   2.765078 S    
C6    H35   1.103662 S    
O2    Ba2   2.859716 S    
Ba1   O16   2.821324 S    
C32   C33   1.402822 A    
O17   Ba2   2.765636 S    
C47   O27   1.221817 D    
C16   H25   1.104336 S    
O3    P6    1.737385 S    
P1    O5    1.752006 S    
P8    C24   1.840796 S    
O7    Ba1   2.911648 S    
C8    C9    1.542380 S    
C4    H7    1.105808 S    
C38   C40   1.451689 A    
C23   C53   1.484572 S    
C26   C27   1.422948 A    
C51   H42   1.085597 S    
C33   H50   1.082433 S    
P1    C22   1.870493 S    
C25   C26   1.413732 A    
C31   C55   1.459185 S    
C1    C49   1.508357 S    
P7    O21   1.573247 D    
P1    O2    1.584825 S    
C13   C14   1.522596 S    
P4    C25   1.878755 S    
O2    Ba1   2.922396 S    
P2    O10   1.756171 S    
C23   C24   1.407863 A    
P3    O9    1.549036 D    
P5    O19   1.747951 S    
C42   C43   1.400352 A    
O11   C2    1.405719 S    
C15   C16   1.521770 S    
C45   O25   1.219012 D    
C11   C12   1.526996 S    
C7    C46   1.504165 S    
C47   H37   1.081676 S    
C44   C56   1.460943 S    
C56   H54   1.085248 S    
C9    C48   1.508671 S    
P2    O20   1.601384 S    
C52   O32   1.221435 D    
O13   Ba2   2.923227 S    
C14   H44   1.107855 S    
C9    C47   1.510201 S    
P8    O23   1.543157 D    
P4    O12   1.535712 D    
P3    O8    1.727478 S    
C3    H6    1.108996 S    
C49   H39   1.083170 S    
C4    O15   1.391315 S    
C48   O28   1.220473 D    
C17   H49   1.085791 S    
O12   Ba2   2.826916 S    
C39   C43   1.449310 A    
C15   H23   1.111477 S    
C10   H16   1.110114 S    
C1    C51   1.506982 S    
C15   C52   1.499968 S    
Ba2   O21   2.911923 S    
C28   H29   1.084171 S    
C45   H33   1.082957 S    
C8    H14   1.111347 S    
C18   C19   1.505701 S    
C12   H41   1.109613 S    
C6    C7    1.538714 S    
Ba1   O13   2.859104 S    
C20   C21   1.520157 S    
C50   O30   1.216572 D    
C25   C30   1.392684 A    
O14   Ba2   2.879375 S    
C40   C41   1.391703 A    
O16   Ba2   2.884576 S    
C19   H48   1.084808 S    
O1    Ba1   2.826363 S    
P2    C32   1.853585 S    
C7    H11   1.103470 S    
C31   C39   1.441386 A    
P6    C18   1.857802 S    
O6    P6    1.756869 S    
C20   C28   1.495648 S    
C34   C35   1.373808 A    
C13   H21   1.110843 S    
P2    O7    1.485345 D    
C12   H18   1.111567 S    
C14   H45   1.107862 S    
C17   C22   1.321311 D    
P8    O24   1.752755 S    
P4    Ba2   3.367826 S    
P4    O13   1.584914 S    
P1    Ba1   3.367197 S    
C46   O26   1.220019 D    
C14   H22   1.109982 S    
C2    H4    1.111769 S    
C55   O35   1.220969 D    
C3    H20   1.109483 S    
C52   H46   1.080722 S    
C19   C20   1.352977 D    
P4    O15   1.742350 S    
C11   C50   1.472846 S    
C51   O31   1.219546 D    
C33   C34   1.384313 A    
C5    H9    1.109487 S    
C49   O29   1.221998 D    
C27   C29   1.502577 S    
O4    P6    1.547934 D    
C48   H38   1.085046 S    
C53   H47   1.084626 S    
O3    Ba1   2.879935 S    
P7    C40   1.866630 S    
P5    C42   1.856540 S    
C7    H12   1.111955 S    
