data_mof_unit_51203.cif
_audit_creation_date              2012-12-10T16:59:17-0500
_audit_creation_method            fapswitch 2.2
_symmetry_space_group_name_H-M    P1
_symmetry_Int_Tables_number       1
_space_group_crystal_system       triclinic
_cell_length_a                    7.729831
_cell_length_b                    8.556766
_cell_length_c                    27.702842
_cell_angle_alpha                 90.930165
_cell_angle_beta                  86.220274
_cell_angle_gamma                 93.66816
_cell_volume                      1824.46709364

loop_
_atom_site_label
_atom_site_type_symbol
_atom_type_description
_atom_site_fract_x
_atom_site_fract_y
_atom_site_fract_z
_atom_type_partial_charge
C1    C     C_R   0.545917 0.794876 0.498711 0.962007
C2    C     C_R   0.454083 0.205124 0.501289 0.962005
C3    C     C_R   0.532019 0.489409 0.897821 -0.049956
C4    C     C_R   0.467978 0.510592 0.102179 -0.049956
C5    C     C_R   0.578330 0.626777 0.871435 -0.026989
C6    C     C_R   0.421667 0.373224 0.128565 -0.026990
C7    C     C_R   0.614459 0.767517 0.895835 -0.140499
C8    C     C_R   0.385538 0.232484 0.104165 -0.140499
C9    C     C_R   0.498891 0.347246 0.872750 -0.024977
C10   C     C_R   0.501106 0.652755 0.127250 -0.024977
C11   C     C_R   0.510371 0.492745 0.646660 -0.163157
C12   C     C_R   0.489629 0.507255 0.353340 -0.163154
C13   C     C_R   0.531189 0.645229 0.024950 0.047500
C14   C     C_R   0.468807 0.354772 0.975050 0.047500
C15   C     C_R   0.450170 0.360547 0.026297 0.047460
C16   C     C_R   0.549827 0.639454 0.973703 0.047460
C17   C     C_R   0.482850 0.505493 0.050902 0.073155
C18   C     C_R   0.517147 0.494508 0.949098 0.073155
C19   C     C_R   0.558355 0.786701 0.051440 -0.225463
C20   C     C_R   0.441642 0.213300 0.948560 -0.225463
C21   C     C_R   0.544075 0.789881 0.101533 -0.141920
C22   C     C_R   0.455923 0.210120 0.898467 -0.141920
C23   C     C_R   0.502698 0.498566 0.594015 0.899502
C24   C     C_R   0.497302 0.501433 0.405984 0.899505
C25   C     C_R   0.601364 0.773993 0.945907 -0.226206
C26   C     C_R   0.398632 0.226008 0.054093 -0.226206
C27   C     C_2   0.570236 0.958296 0.497948 -0.374357
C28   C     C_2   0.429764 0.041704 0.502052 -0.374358
C29   C     C_R   0.584425 0.620557 0.820897 0.519425
C30   C     C_R   0.415572 0.379444 0.179103 0.519425
C31   C     C_R   0.506920 0.346172 0.822176 0.512582
C32   C     C_R   0.493078 0.653829 0.177823 0.512581
C33   C     C_R   0.372011 0.469170 0.727478 -0.200625
C34   C     C_R   0.627988 0.530829 0.272522 -0.200627
C35   C     C_R   0.357904 0.471642 0.677555 0.506493
C36   C     C_R   0.642096 0.528356 0.322444 0.506494
C37   C     C_R   0.673803 0.504853 0.666433 -0.288780
C38   C     C_R   0.326196 0.495148 0.333567 -0.288782
C39   C     C_R   0.686032 0.498901 0.716099 -0.087337
C40   C     C_R   0.313966 0.501101 0.283901 -0.087340
C41   C     C_R   0.535208 0.481724 0.746524 0.246738
C42   C     C_R   0.464790 0.518276 0.253476 0.246743
H1    H     H_    0.792577 0.520452 0.643548 0.205651
H2    H     H_    0.207422 0.479550 0.356452 0.205651
H3    H     H_    0.744182 0.541598 0.248405 0.151659
H4    H     H_    0.255817 0.458398 0.751594 0.151662
H5    H     H_    0.568458 0.900834 0.120060 0.193304
H6    H     H_    0.431539 0.099167 0.879940 0.193304
H7    H     H_    0.591286 0.898328 0.034874 0.139737
H8    H     H_    0.408711 0.101673 0.965126 0.139737
H9    H     H_    0.633356 0.887310 0.961402 0.141897
H10   H     H_    0.366640 0.112691 0.038598 0.141897
H11   H     H_    0.702869 0.009408 0.494019 0.179785
H12   H     H_    0.297131 0.990592 0.505981 0.179785
N1    N     N_R   0.546208 0.482117 0.797601 -0.347589
N2    N     N_R   0.453789 0.517884 0.202399 -0.347589
N3    N     N_2   0.950320 0.457960 0.486880 -0.171345
N4    N     N_2   0.049680 0.542040 0.513120 -0.171345
O1    O     O_R   0.389250 0.738570 0.503220 -0.614174
O2    O     O_R   0.610750 0.261430 0.496780 -0.614174
O3    O     O_R   0.678390 0.711630 0.494810 -0.635256
O4    O     O_R   0.321610 0.288370 0.505190 -0.635257
O5    O     O_R   0.355440 0.513440 0.575450 -0.560673
O6    O     O_R   0.644560 0.486560 0.424550 -0.560671
O7    O     O_R   0.644590 0.486500 0.567040 -0.641275
O8    O     O_R   0.355410 0.513500 0.432960 -0.641276
O9    O     O_2   0.624490 0.752112 0.795175 -0.532963
O10   O     O_2   0.375507 0.247889 0.204825 -0.532963
O11   O     O_2   0.525867 0.788965 0.202360 -0.540393
O12   O     O_2   0.474132 0.211036 0.797640 -0.540394
Zn1   Zn    Zn3+2 0.306940 0.517990 0.505620 0.963145
Zn2   Zn    Zn3+2 0.693060 0.482010 0.494380 0.963147
H13   H     H_    0.014241 0.383466 0.463358 0.197868
H14   H     H_    0.985759 0.616533 0.536642 0.197868
H15   H     H_    0.812359 0.509161 0.731024 0.167154
H16   H     H_    0.187639 0.490844 0.268976 0.167152
H17   H     H_    0.652506 0.874227 0.876280 0.193548
H18   H     H_    0.347490 0.125774 0.123720 0.193548
O13   O     O_3   0.804979 0.537317 0.340562 -0.603681
C43   C     C_3   0.869516 0.695238 0.340376 -0.278161
H19   H     H_    0.779546 0.771247 0.361515 0.161581
H20   H     H_    0.895177 0.738894 0.302814 0.173788
H21   H     H_    0.994772 0.703762 0.357902 0.191794
O14   O     O_3   0.195020 0.462678 0.659437 -0.603683
C44   C     C_3   0.130495 0.304754 0.659619 -0.278156
H22   H     H_    0.104842 0.261085 0.697181 0.173789
H23   H     H_    0.220469 0.228756 0.638478 0.161578
H24   H     H_    0.005237 0.296228 0.642095 0.191794

loop_
_geom_bond_atom_site_label_1
_geom_bond_atom_site_label_2
_ccdc_geom_bond_type
C22   H6    S    
C8    C26   A    
C14   C18   A    
C34   C42   A    
C39   C41   A    
C44   H22   S    
C19   C21   A    
C1    O1    A    
C2    O2    A    
C23   O5    A    
O2    Zn2   S    
C3    C18   A    
N3    H13   S    
C11   C37   A    
C41   N1    S    
C20   H8    S    
C42   N2    S    
C29   O9    S    
C31   O12   S    
C39   H15   S    
C12   C36   A    
C24   O8    A    
C7    H17   S    
C40   C42   A    
C24   O6    A    
C8    H18   S    
C33   H4    S    
C43   H21   S    
C5    C29   A    
C44   H23   S    
C10   C21   A    
C13   C19   A    
C14   C20   A    
O14   C44   S    
C43   H20   S    
C5    C7    A    
C28   H12   S    
C15   C26   A    
C6    C8    A    
C29   N1    A    
C30   N2    A    
C40   H16   S    
C37   H1    S    
C25   H9    S    
C38   H2    S    
C3    C9    A    
C26   H10   S    
C19   H7    S    
O8    Zn1   S    
C34   H3    S    
C4    C17   A    
O3    Zn2   S    
C4    C6    A    
C6    C30   A    
C20   C22   A    
C4    C10   A    
N4    H14   S    
C44   H24   S    
C16   C25   A    
C15   C17   A    
O5    Zn1   S    
C43   H19   S    
C3    C5    A    
C36   O13   S    
C1    O3    A    
C35   O14   S    
C27   H11   S    
C32   O11   S    
O7    Zn2   S    
C12   C24   S    
C7    C25   A    
C13   C17   A    
C33   C41   A    
C23   O7    A    
C11   C35   A    
C37   C39   A    
C38   C40   A    
N3    N4    D    
C11   C23   S    
C33   C35   A    
O4    Zn1   S    
C34   C36   A    
O6    Zn2   S    
N3    Zn2   S    
C12   C38   A    
N4    Zn1   S    
C9    C31   A    
O13   C43   S    
C10   C32   A    
C16   C18   A    
C9    C22   A    
C13   C16   A    
C27   C28   D    
C1    C27   S    
C14   C15   A    
C2    C28   S    
C31   N1    A    
C32   N2    A    
C30   O10   S    
C2    O4    A    
O1    Zn1   S    
C21   H5    S    
