data_mof_unit_41377.cif
_audit_creation_date              2012-10-26T20:21:45-0400
_audit_creation_method            fapswitch 2.2
_symmetry_space_group_name_H-M    P1
_symmetry_Int_Tables_number       1
_space_group_crystal_system       triclinic
_cell_length_a                    15.59295
_cell_length_b                    15.042462
_cell_length_c                    9.630619
_cell_angle_alpha                 90.0
_cell_angle_beta                  89.999981
_cell_angle_gamma                 90.0035
_cell_volume                      2258.9229122

loop_
_atom_site_label
_atom_site_type_symbol
_atom_type_description
_atom_site_fract_x
_atom_site_fract_y
_atom_site_fract_z
_atom_type_partial_charge
C1    C     C_R   0.119149 0.381581 0.500000 0.519533
C2    C     C_R   0.022457 0.574700 0.925977 0.345332
C3    C     C_R   0.022458 0.574700 0.074023 0.345332
C4    C     C_R   0.977542 0.425300 0.925977 0.345332
C5    C     C_R   0.477542 0.925300 0.074023 0.345331
C6    C     C_R   0.522457 0.074700 0.925977 0.345332
C7    C     C_R   0.522458 0.074700 0.074023 0.345332
C8    C     C_R   0.477542 0.925300 0.925977 0.345332
C9    C     C_R   0.781765 0.282080 0.373952 -0.142541
C10   C     C_R   0.218235 0.717920 0.626048 -0.142541
C11   C     C_R   0.218236 0.717919 0.373952 -0.142541
C12   C     C_R   0.880851 0.618419 0.500000 0.519533
C13   C     C_R   0.781764 0.282081 0.626048 -0.142541
C14   C     C_R   0.218643 0.282500 0.625991 -0.147606
C15   C     C_R   0.781357 0.717500 0.374010 -0.147607
C16   C     C_R   0.781355 0.717497 0.625990 -0.147607
C17   C     C_R   0.218645 0.282503 0.374009 -0.147606
C18   C     C_R   0.281765 0.782080 0.373952 -0.142541
C19   C     C_R   0.718235 0.217920 0.626048 -0.142541
C20   C     C_R   0.718236 0.217919 0.373952 -0.142541
C21   C     C_R   0.281764 0.782081 0.626048 -0.142541
C22   C     C_R   0.718643 0.782500 0.625990 -0.147607
C23   C     C_R   0.881197 0.381209 0.500000 0.535869
C24   C     C_R   0.281357 0.217500 0.374009 -0.147606
C25   C     C_R   0.281355 0.217497 0.625991 -0.147606
C26   C     C_R   0.718645 0.782503 0.374010 -0.147607
C27   C     C_R   0.185938 0.685677 0.500000 0.007499
C28   C     C_R   0.814062 0.314323 0.500000 0.007499
C29   C     C_R   0.813546 0.685130 0.500000 0.016487
C30   C     C_R   0.186454 0.314870 0.500000 0.016487
C31   C     C_R   0.685938 0.185677 0.500000 0.007499
C32   C     C_R   0.314062 0.814323 0.500000 0.007499
C33   C     C_R   0.313546 0.185130 0.500000 0.016487
C34   C     C_R   0.118803 0.618791 0.500000 0.535868
C35   C     C_R   0.686454 0.814870 0.500000 0.016487
C36   C     C_3   0.011291 0.288964 0.167123 -0.073624
C37   C     C_3   0.988709 0.711036 0.832877 -0.073625
C38   C     C_3   0.988711 0.711037 0.167122 -0.073624
C39   C     C_3   0.011289 0.288963 0.832878 -0.073625
C40   C     C_3   0.511291 0.788964 0.167123 -0.073625
C41   C     C_3   0.488709 0.211036 0.832877 -0.073625
C42   C     C_3   0.488711 0.211037 0.167122 -0.073625
C43   C     C_3   0.511289 0.788963 0.832878 -0.073625
C44   C     C_R   0.619149 0.881581 0.500000 0.519533
C45   C     C_R   0.380851 0.118419 0.500000 0.519532
C46   C     C_R   0.381197 0.881209 0.500000 0.535869
C47   C     C_R   0.618803 0.118791 0.500000 0.535868
C48   C     C_R   0.977542 0.425300 0.074023 0.345331
Cu1   Cu    Cu3+1 1.000000 0.500000 0.640660 1.000216
Cu2   Cu    Cu3+1 1.000000 0.500000 0.359340 1.000216
Cu3   Cu    Cu3+1 0.500000 0.000000 0.640660 1.000216
Cu4   Cu    Cu3+1 0.500000 0.000000 0.359340 1.000216
H1    H     H_    0.805219 0.306277 0.275249 0.186768
H2    H     H_    0.694781 0.193723 0.724751 0.186768
H3    H     H_    0.694782 0.193723 0.275249 0.186768
H4    H     H_    0.305218 0.806278 0.724751 0.186768
H5    H     H_    0.695752 0.807303 0.724598 0.114967
H6    H     H_    0.304248 0.192698 0.275401 0.114967
H7    H     H_    0.304243 0.192693 0.724599 0.114968
H8    H     H_    0.695757 0.807307 0.275402 0.114968
H9    H     H_    0.015760 0.276451 0.280282 0.149759
H10   H     H_    0.075894 0.308109 0.127500 0.066934
H11   H     H_    0.992871 0.224698 0.119536 0.106851
H12   H     H_    0.194781 0.693724 0.724751 0.186768
H13   H     H_    0.924106 0.691892 0.872503 0.066933
H14   H     H_    0.984239 0.723549 0.719719 0.149759
H15   H     H_    0.007130 0.775303 0.880463 0.106852
H16   H     H_    0.984239 0.723548 0.280281 0.149759
H17   H     H_    0.924108 0.691894 0.127493 0.066930
H18   H     H_    0.007134 0.775304 0.119539 0.106854
H19   H     H_    0.015762 0.276452 0.719719 0.149760
H20   H     H_    0.992866 0.224696 0.880460 0.106854
H21   H     H_    0.075892 0.308105 0.872509 0.066929
H22   H     H_    0.515761 0.776451 0.280281 0.149759
H23   H     H_    0.194782 0.693722 0.275249 0.186768
H24   H     H_    0.575894 0.808109 0.127498 0.066934
H25   H     H_    0.492870 0.724697 0.119536 0.106851
H26   H     H_    0.424106 0.191892 0.872503 0.066932
H27   H     H_    0.484239 0.223548 0.719718 0.149760
H28   H     H_    0.507130 0.275303 0.880463 0.106852
H29   H     H_    0.484239 0.223548 0.280281 0.149760
H30   H     H_    0.424108 0.191894 0.127492 0.066929
H31   H     H_    0.507134 0.275304 0.119539 0.106854
H32   H     H_    0.515761 0.776452 0.719719 0.149759
H33   H     H_    0.492866 0.724696 0.880461 0.106854
H34   H     H_    0.805218 0.306277 0.724751 0.186768
H35   H     H_    0.575892 0.808106 0.872507 0.066930
H36   H     H_    0.195752 0.307302 0.724599 0.114967
H37   H     H_    0.804248 0.692698 0.275402 0.114967
H38   H     H_    0.804244 0.692693 0.724598 0.114968
H39   H     H_    0.195757 0.307307 0.275401 0.114967
H40   H     H_    0.305219 0.806276 0.275249 0.186768
N1    N     N_R   1.000000 0.500000 0.852070 -0.272532
N2    N     N_R   1.000000 0.500000 0.147930 -0.272532
N3    N     N_R   0.500000 0.000000 0.852070 -0.272532
N4    N     N_R   0.500000 0.000000 0.147930 -0.272532
O1    O     O_R   0.090170 0.409820 0.618740 -0.513856
O2    O     O_R   0.409830 0.090180 0.381260 -0.513856
O3    O     O_R   0.409830 0.090180 0.618740 -0.513857
O4    O     O_R   0.590170 0.909820 0.381260 -0.513857
O5    O     O_R   0.409830 0.909820 0.381260 -0.462264
O6    O     O_R   0.590170 0.090180 0.618740 -0.462264
O7    O     O_R   0.590170 0.090180 0.381260 -0.462264
O8    O     O_R   0.409830 0.909820 0.618740 -0.462264
O9    O     O_3   0.945594 0.351654 0.142128 -0.534254
O10   O     O_3   0.054405 0.648346 0.857872 -0.534254
O11   O     O_3   0.054406 0.648345 0.142128 -0.534254
O12   O     O_R   0.909830 0.590180 0.381260 -0.513856
O13   O     O_3   0.945594 0.351655 0.857872 -0.534253
O14   O     O_3   0.445595 0.851654 0.142128 -0.534254
O15   O     O_3   0.554405 0.148346 0.857872 -0.534254
O16   O     O_3   0.554406 0.148345 0.142128 -0.534253
O17   O     O_3   0.445594 0.851655 0.857872 -0.534253
O18   O     O_R   0.909830 0.590180 0.618740 -0.513857
O19   O     O_R   0.090170 0.409820 0.381260 -0.513856
O20   O     O_R   0.909830 0.409820 0.381260 -0.462264
O21   O     O_R   0.090170 0.590180 0.618740 -0.462264
O22   O     O_R   0.090170 0.590180 0.381260 -0.462264
O23   O     O_R   0.909830 0.409820 0.618740 -0.462264
O24   O     O_R   0.590170 0.909820 0.618740 -0.513856

loop_
_geom_bond_atom_site_label_1
_geom_bond_atom_site_label_2
_ccdc_geom_bond_type
C10   C27   A    
C34   O22   A    
C4    O13   S    
C38   H18   S    
C11   C18   A    
C16   H38   S    
C43   H32   S    
C12   C29   S    
C33   C45   S    
C6    O15   S    
C17   H39   S    
C19   C31   A    
C41   H28   S    
Cu4   O7    S    
Cu3   O6    S    
C22   C35   A    
C42   H29   S    
C48   N2    A    
C45   O2    A    
C23   O23   A    
C5    O14   S    
C44   O24   A    
C7    O16   S    
Cu2   O19   S    
C38   O11   S    
C42   O16   S    
C23   O20   A    
Cu1   O21   S    
C40   H22   S    
C42   H30   S    
C13   H34   S    
C39   H20   S    
C13   C28   A    
C36   H11   S    
C34   O21   A    
Cu1   O18   S    
C38   H17   S    
C10   C21   A    
C47   O6    A    
C31   C47   S    
Cu2   O12   S    
C17   C30   A    
C8    N3    A    
C14   C30   A    
C20   H3    S    
C36   H10   S    
C21   C32   A    
C15   C29   A    
C12   O18   A    
C27   C34   S    
Cu3   O3    S    
C46   O5    A    
Cu4   O5    S    
C17   C24   A    
C47   O7    A    
C13   C19   A    
Cu3   Cu4   S    
C43   H33   S    
C45   O3    A    
C1    O1    A    
C41   H26   S    
C12   O12   A    
Cu2   N2    S    
C15   C26   A    
C40   O14   S    
C3    O11   S    
Cu3   O8    S    
C46   O8    A    
Cu4   O4    S    
C40   H24   S    
C37   H13   S    
C7    N4    A    
C15   H37   S    
C9    C20   A    
C48   O9    S    
C11   C27   A    
C37   H14   S    
Cu3   O24   S    
C23   C28   S    
C35   C44   S    
C8    O17   S    
C19   H2    S    
C38   H16   S    
Cu1   Cu2   S    
C5    C8    A    
C9    H1    S    
C36   H9    S    
C5    N4    A    
C4    C48   A    
C16   C22   A    
C36   O9    S    
Cu2   O22   S    
C32   C46   S    
C2    N1    A    
C10   H12   S    
C42   H31   S    
C41   H27   S    
C21   H4    S    
C6    C7    A    
C25   H7    S    
C24   C33   A    
C18   H40   S    
C2    C3    A    
C16   C29   A    
C43   H35   S    
C37   O10   S    
C11   H23   S    
C43   O17   S    
C44   O4    A    
Cu1   O23   S    
C37   H15   S    
C22   H5    S    
Cu4   O2    S    
C1    C30   S    
C2    O10   S    
Cu4   N4    S    
C3    N2    A    
Cu2   O20   S    
C39   H21   S    
C14   C25   A    
Cu1   O1    S    
C14   H36   S    
C4    N1    A    
C26   C35   A    
C39   O13   S    
C18   C32   A    
C24   H6    S    
C6    N3    A    
C41   O15   S    
Cu3   N3    S    
C39   H19   S    
C40   H25   S    
C1    O19   A    
Cu1   N1    S    
C26   H8    S    
C9    C28   A    
C25   C33   A    
C20   C31   A    
