data_mof_unit_43439.cif
_audit_creation_date              2012-12-10T19:04:16-0500
_audit_creation_method            fapswitch 2.2
_symmetry_space_group_name_H-M    P1
_symmetry_Int_Tables_number       1
_space_group_crystal_system       triclinic
_cell_length_a                    10.915676
_cell_length_b                    13.013216
_cell_length_c                    13.58169
_cell_angle_alpha                 85.203028
_cell_angle_beta                  89.37867
_cell_angle_gamma                 93.261226
_cell_volume                      1919.14553228

loop_
_atom_site_label
_atom_site_type_symbol
_atom_type_description
_atom_site_fract_x
_atom_site_fract_y
_atom_site_fract_z
_atom_type_partial_charge
C1    C     C_R   0.504136 0.480568 0.685026 0.973396
C2    C     C_1   0.509171 0.463937 0.788133 -0.147162
C3    C     C_2   0.487805 0.035854 0.460034 -0.020579
C4    C     C_R   0.742649 0.498912 0.499159 0.990543
C5    C     C_2   0.503383 0.963292 0.537277 0.331275
C6    C     C_1   0.513968 0.853479 0.523445 0.112230
C7    C     C_1   0.482912 0.146388 0.475751 0.311359
C8    C     C_R   0.507171 0.519010 0.314920 1.001332
C9    C     C_R   0.257347 0.498517 0.507297 1.137870
C10   C     C_3   0.920867 0.387786 0.552249 0.079356
C11   C     C_3   0.064107 0.382273 0.551118 0.405959
C12   C     C_3   0.120889 0.494528 0.508889 -0.431228
C13   C     C_3   0.933418 0.523447 0.387907 0.413828
C14   C     C_3   0.927675 0.583110 0.565685 -0.188136
C15   C     C_3   0.878168 0.495492 0.498686 -0.310309
C16   C     C_3   0.794028 0.664844 0.313128 -0.583880
C17   C     C_3   0.464942 0.263248 0.992696 -0.641288
C18   C     C_3   0.604473 0.729779 0.008605 -0.683772
C19   C     C_3   0.441506 0.078814 0.283555 -0.724829
C20   C     C_3   0.173975 0.217974 0.507700 -0.392592
C21   C     C_3   0.815255 0.666667 0.696448 -0.570433
C22   C     C_3   0.078255 0.520675 0.397325 0.086490
C23   C     C_3   0.070826 0.584850 0.569174 0.218135
C24   C     C_1   0.521500 0.534378 0.211826 -0.112492
C25   C     C_2   0.544393 0.542306 0.020152 0.180967
C26   C     C_2   0.517141 0.451995 0.980397 0.181135
C27   C     C_1   0.513183 0.454147 0.875637 -0.015102
C28   C     C_1   0.533933 0.542408 0.124606 0.027578
H1    H     H_    0.098648 0.656809 0.522574 0.096068
H2    H     H_    0.530709 0.348170 0.106727 0.236588
H3    H     H_    0.436665 0.198905 0.048684 0.226376
H4    H     H_    0.550803 0.244122 0.955372 0.241076
H5    H     H_    0.390344 0.271161 0.938048 0.282093
H6    H     H_    0.533608 0.647618 0.894216 0.241893
H7    H     H_    0.637146 0.793110 0.952995 0.244654
H8    H     H_    0.677664 0.718207 0.063990 0.250140
H9    H     H_    0.519866 0.752694 0.045162 0.243978
H10   H     H_    0.501236 0.911968 0.805313 0.380352
H11   H     H_    0.448642 0.930124 0.353578 0.231245
H12   H     H_    0.112684 0.602238 0.384863 0.111948
H13   H     H_    0.443246 0.044160 0.211588 0.242527
H14   H     H_    0.504593 0.149205 0.277238 0.256078
H15   H     H_    0.346411 0.099884 0.299133 0.235156
H16   H     H_    0.988604 0.222735 0.751115 0.381194
H17   H     H_    0.043615 0.295936 0.424367 0.316174
H18   H     H_    0.213173 0.192967 0.438448 0.175086
H19   H     H_    0.119161 0.151102 0.543848 0.267229
H20   H     H_    0.251602 0.237209 0.555338 0.259576
H21   H     H_    0.909314 0.302347 0.223123 0.394748
H22   H     H_    0.280535 0.361637 0.253357 0.374230
H23   H     H_    0.894412 0.393108 0.629772 0.123612
H24   H     H_    0.889226 0.520116 0.716776 0.293758
H25   H     H_    0.769823 0.647770 0.769819 0.227041
H26   H     H_    0.745725 0.696756 0.644317 0.241741
H27   H     H_    0.889073 0.727914 0.702707 0.274628
H28   H     H_    0.291029 0.575150 0.777368 0.382404
H29   H     H_    0.904473 0.658978 0.529027 0.182310
H30   H     H_    0.740807 0.254788 0.682185 0.351066
H31   H     H_    0.963326 0.692435 0.375587 0.187844
H32   H     H_    0.754168 0.719510 0.361431 0.215232
H33   H     H_    0.727913 0.599627 0.306598 0.241528
H34   H     H_    0.810755 0.705479 0.238671 0.239710
N1    N     N_1   0.479840 0.234530 0.484780 -0.067678
N2    N     N_1   0.520150 0.765470 0.515220 -0.096087
N3    N     N_2   0.909181 0.631637 0.352712 -0.327147
N4    N     N_2   0.485116 0.357883 0.040775 -0.311899
N5    N     N_2   0.578883 0.636096 0.960113 -0.309379
N6    N     N_2   0.480964 0.005051 0.360965 -0.316066
N7    N     N_2   0.098699 0.305353 0.483495 -0.254974
N8    N     N_2   0.865388 0.574672 0.662462 -0.283055
O1    O     O_R   0.492620 0.402510 0.634760 -0.568013
O2    O     O_2   0.908126 0.172293 0.574578 -0.272211
O3    O     O_3   0.709606 0.255206 0.613944 -0.484589
O4    O     O_2   0.636166 0.045293 0.677918 -0.250446
O5    O     O_2   0.415109 0.070499 0.680956 -0.280130
O6    O     O_3   0.488543 0.888689 0.738384 -0.530917
O7    O     O_2   0.249025 0.350735 0.688163 -0.244125
O8    O     O_2   0.058505 0.407821 0.752633 -0.284776
O9    O     O_3   0.065412 0.219465 0.712251 -0.487388
O10   O     O_2   0.738734 0.404078 0.314913 -0.320505
O11   O     O_2   0.871251 0.502074 0.195438 -0.247764
O12   O     O_R   0.505570 0.572960 0.644530 -0.600198
O13   O     O_3   0.948070 0.334437 0.279551 -0.488364
O14   O     O_2   0.104257 0.490137 0.196881 -0.159397
O15   O     O_2   0.274087 0.565808 0.279245 -0.360842
O16   O     O_3   0.227765 0.368229 0.312029 -0.543160
O17   O     O_2   0.197468 0.733238 0.660990 -0.264960
O18   O     O_2   0.061964 0.620251 0.770070 -0.245260
O19   O     O_3   0.263140 0.551247 0.713519 -0.498489
O20   O     O_R   0.678730 0.414780 0.495130 -0.509363
O21   O     O_R   0.691680 0.585220 0.504900 -0.665395
O22   O     O_R   0.494430 0.427040 0.355470 -0.589831
O23   O     O_R   0.507380 0.597490 0.365240 -0.631849
O24   O     O_R   0.308320 0.414780 0.495100 -0.580241
O25   O     O_R   0.321270 0.585220 0.504870 -0.589583
O26   O     O_2   0.797405 0.248521 0.436807 -0.189134
S1    S     S_3+6 0.835710 0.262611 0.540609 0.069342
S2    S     S_3+6 0.511144 0.996180 0.661006 0.056599
S3    S     S_3+6 0.112181 0.342933 0.678704 0.053900
S4    S     S_3+6 0.869802 0.439702 0.293922 0.081842
S5    S     S_3+6 0.170507 0.485222 0.293052 0.072325
S6    S     S_3+6 0.146192 0.623696 0.681620 0.095084
Zn1   Zn    Zn3+2 0.491360 0.386190 0.493470 1.124962
Zn2   Zn    Zn3+2 0.508640 0.613810 0.506530 1.020228

loop_
_geom_bond_atom_site_label_1
_geom_bond_atom_site_label_2
_ccdc_geom_bond_type
O19   S6    S    
H11   N6    S    
C3    N6    S    
C25   N5    S    
O21   Zn2   S    
O4    S2    D    
C13   N3    S    
C25   C28   S    
O3    S1    S    
C12   C23   S    
C17   N4    S    
C1    O1    A    
C22   S5    S    
C17   H5    S    
C23   H1    S    
O9    S3    S    
C18   H9    S    
C3    C7    S    
C10   C15   S    
C21   H26   S    
C23   S6    S    
O6    S2    S    
C12   C22   S    
C11   S3    S    
C1    C2    S    
C16   H32   S    
C6    N2    T    
O22   Zn1   S    
C2    C27   T    
C8    O22   A    
C18   H7    S    
C9    O25   A    
C19   H14   S    
C4    O21   A    
O10   S4    D    
O14   S5    D    
C14   N8    S    
C16   H34   S    
C10   H23   S    
O23   Zn2   S    
C19   H15   S    
C4    O20   A    
O2    S1    D    
H17   N7    S    
C26   N4    S    
C18   N5    S    
N1    Zn1   S    
C21   H27   S    
H10   O6    S    
C1    O12   A    
O5    S2    D    
C14   C23   S    
C10   S1    S    
O17   S6    D    
C22   H12   S    
O26   S1    D    
C26   C27   S    
C19   N6    S    
C20   H20   S    
C7    N1    T    
H2    N4    S    
H28   O19   S    
O24   Zn1   S    
O13   S4    S    
C13   C15   S    
C17   H3    S    
C20   N7    S    
C16   H33   S    
O15   S5    D    
O25   Zn2   S    
N2    Zn2   S    
C14   H29   S    
O1    Zn1   S    
H16   O9    S    
C8    O23   A    
C24   C28   T    
C3    C5    D    
H6    N5    S    
O18   S6    D    
C11   C12   S    
C11   N7    S    
O11   S4    D    
C21   N8    S    
H21   O13   S    
C4    C15   S    
C25   C26   D    
H31   N3    S    
C21   H25   S    
C5    C6    S    
C13   S4    S    
C8    C24   S    
C13   C22   S    
O7    S3    D    
C9    C12   S    
O20   Zn1   S    
C20   H19   S    
H24   N8    S    
C10   C11   S    
H22   O16   S    
C5    S2    S    
O8    S3    D    
C17   H4    S    
O12   Zn2   S    
C14   C15   S    
C16   N3    S    
O16   S5    S    
C18   H8    S    
C9    O24   A    
C20   H18   S    
C19   H13   S    
H30   O3    S    
