data_mof_unit_37899.cif
_audit_creation_date              2012-12-11T15:27:39-0500
_audit_creation_method            fapswitch 2.2
_symmetry_space_group_name_H-M    P1
_symmetry_Int_Tables_number       1
_space_group_crystal_system       triclinic
_cell_length_a                    23.23867
_cell_length_b                    7.299977
_cell_length_c                    15.131411
_cell_angle_alpha                 89.980019
_cell_angle_beta                  108.224095
_cell_angle_gamma                 90.016713
_cell_volume                      2438.16387231

loop_
_atom_site_label
_atom_site_type_symbol
_atom_type_description
_atom_site_fract_x
_atom_site_fract_y
_atom_site_fract_z
_atom_type_partial_charge
O1    O     O_R   0.711000 0.648610 0.341170 -0.544628
O2    O     O_R   0.289000 0.351390 0.658830 -0.523766
O3    O     O_R   0.789000 0.148610 0.158830 -0.544757
O4    O     O_R   0.211000 0.851390 0.841170 -0.524218
O5    O     O_R   0.829650 0.322030 0.336650 -0.540725
O6    O     O_R   0.170350 0.677970 0.663350 -0.532636
O7    O     O_R   0.670350 0.822030 0.163350 -0.540648
O8    O     O_R   0.329650 0.177970 0.836650 -0.532614
C1    C     C_R   0.854284 0.485807 0.356762 0.717625
C2    C     C_R   0.145714 0.514203 0.643241 0.718280
C3    C     C_R   0.645715 0.985798 0.143239 0.717461
C4    C     C_R   0.354285 0.014212 0.856758 0.718471
O9    O     O_R   0.713950 0.319280 0.352070 -0.527836
O10   O     O_R   0.286050 0.680720 0.647930 -0.548440
O11   O     O_R   0.786050 0.819280 0.147930 -0.527388
O12   O     O_R   0.213950 0.180720 0.852070 -0.548297
O13   O     O_R   0.672470 0.142870 0.174360 -0.528191
O14   O     O_R   0.327530 0.857130 0.825640 -0.536420
O15   O     O_R   0.827530 0.642870 0.325640 -0.528201
O16   O     O_R   0.172470 0.357130 0.674360 -0.536307
C5    C     C_R   0.701604 0.487567 0.375775 0.768496
C6    C     C_R   0.298391 0.512674 0.624203 0.767866
C7    C     C_R   0.798391 0.987647 0.124217 0.768058
C8    C     C_R   0.201607 0.012594 0.875786 0.768302
O17   O     O_3   0.736530 0.478650 0.191680 -0.382726
O18   O     O_3   0.263470 0.521350 0.808320 -0.382677
O19   O     O_3   0.763470 0.978650 0.308320 -0.382873
O20   O     O_3   0.236530 0.021350 0.691680 -0.382513
V1    V     V_3+5 0.752500 0.206170 0.260820 1.476659
V2    V     V_3+5 0.247500 0.793830 0.739180 1.477181
V3    V     V_3+5 0.747500 0.706170 0.239180 1.477267
V4    V     V_3+5 0.252500 0.293830 0.760820 1.477584
C9    C     C_R   0.828165 0.998651 0.052411 -0.086621
C10   C     C_R   0.171824 0.006620 0.947694 -0.087145
C11   C     C_R   0.671763 0.498168 0.447496 -0.086598
C12   C     C_R   0.328100 0.507084 0.552190 -0.087205
C13   C     C_R   0.824194 0.082770 0.895311 0.379595
C14   C     C_R   0.176925 0.048644 0.109180 0.380126
C15   C     C_R   0.675934 0.578099 0.605161 0.379858
C16   C     C_R   0.323143 0.553552 0.391029 0.379891
C17   C     C_R   0.796109 0.066363 0.964607 -0.332071
C18   C     C_R   0.204871 0.049578 0.039338 -0.332585
C19   C     C_R   0.704000 0.563135 0.535779 -0.332338
C20   C     C_R   0.295202 0.553027 0.460872 -0.332381
C21   C     C_R   0.889117 0.948677 0.073276 0.269837
C22   C     C_R   0.110053 0.964738 0.923647 0.269321
C23   C     C_R   0.610661 0.449587 0.426234 0.269716
C24   C     C_R   0.389737 0.463629 0.575918 0.269432
C25   C     C_R   0.921077 0.994004 0.009788 -0.079083
C26   C     C_R   0.078766 0.994084 0.989738 -0.079031
C27   C     C_R   0.578818 0.493539 0.490034 -0.078977
C28   C     C_R   0.421122 0.494410 0.510059 -0.079148
C29   C     C_R   0.886851 0.047566 0.918012 0.069048
C30   C     C_R   0.113717 0.021862 0.084339 0.068579
C31   C     C_R   0.613177 0.544224 0.582193 0.068920
C32   C     C_R   0.386264 0.525224 0.415672 0.068698
C33   C     C_R   0.985681 0.995854 0.035193 0.087417
C34   C     C_R   0.014277 0.004713 0.964779 0.087646
C35   C     C_R   0.514223 0.496642 0.464645 0.087456
C36   C     C_R   0.485641 0.503755 0.535111 0.087607
C37   C     C_R   0.978287 0.047508 0.873310 -0.226933
C38   C     C_R   0.022206 0.012973 0.128750 -0.226458
C39   C     C_R   0.521735 0.543690 0.626888 -0.226859
C40   C     C_R   0.477757 0.516678 0.371221 -0.226556
C41   C     C_R   0.916141 0.071835 0.850936 -0.141525
C42   C     C_R   0.084712 0.029178 0.152525 -0.141642
C43   C     C_R   0.583943 0.566885 0.649437 -0.141565
C44   C     C_R   0.415297 0.534127 0.347555 -0.141611
H1    H     H_    0.891194 0.112790 0.780542 0.173551
H2    H     H_    0.110215 0.050373 0.225084 0.173308
H3    H     H_    0.608992 0.605643 0.720127 0.173512
H4    H     H_    0.389864 0.557613 0.275160 0.173379
H5    H     H_    0.252836 0.079240 0.056674 0.124267
H6    H     H_    0.748737 0.102109 0.949554 0.124224
H7    H     H_    0.247346 0.584051 0.443771 0.124500
H8    H     H_    0.751491 0.597697 0.551130 0.124018
H9    H     H_    0.998066 0.078738 0.819299 0.175272
H10   H     H_    0.002863 0.030312 0.184462 0.175195
H11   H     H_    0.502033 0.573568 0.681124 0.175221
H12   H     H_    0.497157 0.535388 0.315652 0.175239
C45   C     C_1   0.416779 0.007008 0.918709 -0.166710
C46   C     C_1   0.583223 0.993037 0.081284 -0.166342
C47   C     C_1   0.083221 0.506985 0.581291 -0.166619
C48   C     C_1   0.916776 0.493061 0.418717 -0.166456
C49   C     C_1   0.469150 0.002441 0.969944 0.012816
C50   C     C_1   0.530853 0.997630 0.030048 0.012900
C51   C     C_1   0.030850 0.502430 0.530057 0.012855
C52   C     C_1   0.969146 0.497642 0.469953 0.012852
O21   O     O_3   0.082934 0.887146 0.837425 -0.653428
H13   H     H_    0.051167 0.801565 0.843214 0.293137
O22   O     O_3   0.914653 0.848357 0.153340 -0.653040
H14   H     H_    0.944921 0.764004 0.141673 0.293753
O23   O     O_3   0.416628 0.383470 0.661580 -0.653262
H15   H     H_    0.448171 0.297721 0.655196 0.293160
O24   O     O_3   0.584867 0.351614 0.345479 -0.653213
H16   H     H_    0.554375 0.267285 0.356552 0.293716
O25   O     O_3   0.791917 0.139804 0.806462 -0.643496
H17   H     H_    0.748938 0.158775 0.802612 0.305299
O26   O     O_3   0.210005 0.080619 0.201131 -0.643737
H18   H     H_    0.253298 0.096857 0.206199 0.305894
O27   O     O_3   0.708360 0.632291 0.694430 -0.643566
H19   H     H_    0.751398 0.650574 0.698438 0.305143
O28   O     O_3   0.290177 0.588645 0.299339 -0.643634
H20   H     H_    0.246945 0.605813 0.294403 0.306088

loop_
_geom_bond_atom_site_label_1
_geom_bond_atom_site_label_2
_ccdc_geom_bond_type
O17   V3    S    
C47   C51   T    
C51   C52   S    
O1    C5    A    
O27   H19   S    
O19   V1    S    
C9    C21   A    
O3    C7    A    
O24   H16   S    
C10   C18   A    
O15   V3    S    
C13   O25   S    
O25   H17   S    
C25   C33   A    
C33   C38   A    
C22   O21   S    
C39   H11   S    
C49   C50   S    
O7    C3    A    
C35   C40   A    
C26   C30   A    
C36   C39   A    
C40   C44   A    
O9    V1    S    
C14   C18   A    
O4    C8    A    
C25   C29   A    
C2    C47   S    
O1    V3    S    
O13   V1    S    
O2    V4    S    
O3    V1    S    
C28   C36   A    
C17   H6    S    
C1    O15   A    
C15   C31   A    
C37   H9    S    
C7    C9    S    
O2    C6    A    
C10   C22   A    
C11   C19   A    
C16   C20   A    
C43   H3    S    
C44   H4    S    
C13   C29   A    
C34   C37   A    
O11   C7    A    
C11   C23   A    
C35   C36   A    
O12   C8    A    
C40   H12   S    
O10   V2    S    
C15   O27   S    
O5    V1    S    
C3    C46   S    
C39   C43   A    
O7    V3    S    
C24   O23   S    
C38   C42   A    
O8    V4    S    
C2    O16   A    
O22   H14   S    
O18   V4    S    
C23   C27   A    
C16   C32   A    
C46   C50   T    
C8    C10   S    
C26   C34   A    
C20   H7    S    
O5    C1    A    
C31   C43   A    
O26   H18   S    
C14   C30   A    
C21   C25   A    
O8    C4    A    
O9    C5    A    
O23   H15   S    
O14   V2    S    
O6    V2    S    
C12   C20   A    
C27   C35   A    
C29   C41   A    
O16   V4    S    
C19   H8    S    
C3    O13   A    
C18   H5    S    
C38   H10   S    
C48   C52   T    
C14   O26   S    
O6    C2    A    
C15   C19   A    
O11   V3    S    
C5    C11   S    
O12   V4    S    
C6    C12   S    
C22   C26   A    
C9    C17   A    
O10   C6    A    
O20   V2    S    
C32   C44   A    
C16   O28   S    
C33   C34   A    
C42   H2    S    
C41   H1    S    
C4    C45   S    
C12   C24   A    
C27   C31   A    
C13   C17   A    
C21   O22   S    
C45   C49   T    
C1    C48   S    
C37   C41   A    
C24   C28   A    
C4    O14   A    
O28   H20   S    
C23   O24   S    
O21   H13   S    
C30   C42   A    
O4    V2    S    
C28   C32   A    
