data_mof_unit_31590.cif
_audit_creation_date              2012-10-26T19:58:22-0400
_audit_creation_method            fapswitch 2.2
_symmetry_space_group_name_H-M    P1
_symmetry_Int_Tables_number       1
_space_group_crystal_system       triclinic
_cell_length_a                    7.474305
_cell_length_b                    8.68267
_cell_length_c                    13.281174
_cell_angle_alpha                 93.928668
_cell_angle_beta                  78.018088
_cell_angle_gamma                 103.10987
_cell_volume                      820.946885735

loop_
_atom_site_label
_atom_site_type_symbol
_atom_type_description
_atom_site_fract_x
_atom_site_fract_y
_atom_site_fract_z
_atom_type_partial_charge
C1    C     C_R   0.545264 0.800053 0.502976 0.550168
C2    C     C_R   0.345828 0.504094 0.808328 0.003798
C3    C     C_2   0.570694 0.968020 0.504270 -0.151631
C4    C     C_R   0.401540 0.499797 0.694785 0.529001
C5    C     C_2   0.429523 0.031932 0.495206 -0.154730
C6    C     C_R   0.454813 0.199946 0.496862 0.557757
C7    C     C_R   0.600753 0.523088 0.306450 0.556869
C8    C     C_R   0.896259 0.671830 0.049899 0.270443
C9    C     C_R   0.657438 0.569149 0.197608 -0.035674
C10   C     C_R   0.167834 0.418204 0.853821 -0.113218
C11   C     C_R   0.122263 0.392172 0.959188 -0.107298
C12   C     C_R   0.429145 0.546113 0.979238 0.061746
C13   C     C_R   0.251893 0.453482 0.021302 -0.067846
C14   C     C_3   0.123581 0.895303 0.026894 -0.111404
C15   C     C_3   0.276398 0.699888 0.248717 -0.060682
C16   C     C_R   0.476278 0.574380 0.871996 0.035339
C17   C     C_R   0.567105 0.599643 0.039807 0.015863
C18   C     C_R   0.755257 0.658727 0.992000 0.032277
C19   C     C_R   0.795904 0.701344 0.889025 -0.135226
C20   C     C_R   0.654786 0.669133 0.831866 -0.139539
C21   C     C_R   0.523579 0.605835 0.147592 0.229953
C22   C     C_R   0.846066 0.605818 0.148141 -0.153909
Cu1   Cu    Cu3+1 0.321300 0.483160 0.488710 0.927980
Cu2   Cu    Cu3+1 0.678700 0.516840 0.511290 0.930545
H1    H     H_    0.293520 0.960523 0.486643 0.121442
H2    H     H_    0.092072 0.924861 0.110682 0.115564
H3    H     H_    0.046168 0.956352 0.985035 0.107465
H4    H     H_    0.275593 0.941583 0.998420 0.153992
H5    H     H_    0.285351 0.737399 0.328998 0.174744
H6    H     H_    0.206206 0.572641 0.247084 0.107080
H7    H     H_    0.188808 0.771938 0.224691 0.125907
H8    H     H_    0.066804 0.363688 0.806999 0.127589
H9    H     H_    0.010792 0.618671 0.579587 0.237651
H10   H     H_    0.989270 0.381502 0.420320 0.235698
H11   H     H_    0.936335 0.758832 0.852163 0.146612
H12   H     H_    0.214522 0.423046 0.101547 0.085178
H13   H     H_    0.986736 0.321088 0.992728 0.103925
H14   H     H_    0.690592 0.715961 0.755344 0.144766
H15   H     H_    0.706703 0.039428 0.512810 0.131674
H16   H     H_    0.951809 0.589552 0.187221 0.114661
N1    N     N_2   0.947230 0.542220 0.528320 -0.264271
N2    N     N_2   0.052770 0.457780 0.471680 -0.274167
O1    O     O_R   0.383920 0.714220 0.492660 -0.520641
O2    O     O_3   0.456158 0.738614 0.186447 -0.568216
O3    O     O_R   0.685730 0.742660 0.511730 -0.504893
O4    O     O_R   0.275440 0.478800 0.636790 -0.497851
O5    O     O_R   0.577250 0.507240 0.655860 -0.502572
O6    O     O_R   0.314270 0.257340 0.488270 -0.493100
O7    O     O_R   0.616080 0.285780 0.507340 -0.495755
O8    O     O_R   0.422750 0.492760 0.344140 -0.507136
O9    O     O_R   0.724560 0.521200 0.363210 -0.512706
O10   O     O_3   0.082525 0.730627 0.007656 -0.563221

loop_
_geom_bond_atom_site_label_1
_geom_bond_atom_site_label_2
_ccdc_geom_bond_type
C12   C17   A    
C8    C22   A    
Cu1   Cu2   S    
C15   H7    S    
C14   H3    S    
C21   O2    S    
C20   H14   S    
N1    N2    D    
C8    O10   S    
C2    C4    S    
C19   C20   A    
H10   N2    S    
C16   C20   A    
H9    N1    S    
Cu2   O5    S    
Cu2   O9    S    
C17   C18   A    
C3    C5    D    
C7    O9    A    
Cu1   O4    S    
C4    O4    A    
C14   H2    S    
Cu2   N1    S    
C11   C13   A    
C1    O3    A    
Cu1   N2    S    
C6    O6    A    
C13   H12   S    
C5    H1    S    
Cu2   O3    S    
C14   O10   S    
C15   O2    S    
C15   H5    S    
C6    O7    A    
C5    C6    S    
C17   C21   A    
C9    C22   A    
C10   C11   A    
C3    H15   S    
C9    C21   A    
C10   H8    S    
C2    C16   A    
C12   C13   A    
C15   H6    S    
C7    C9    S    
C18   C19   A    
Cu2   O7    S    
C11   H13   S    
C22   H16   S    
Cu1   O8    S    
C19   H11   S    
Cu1   O6    S    
C14   H4    S    
Cu1   O1    S    
C1    O1    A    
C8    C18   A    
C12   C16   A    
C7    O8    A    
C1    C3    S    
C4    O5    A    
C2    C10   A    
