data_mof_unit_64390.cif
_audit_creation_date              2013-03-05T15:50:26-0500
_audit_creation_method            fapswitch 2.2
_symmetry_space_group_name_H-M    P1
_symmetry_Int_Tables_number       1
_space_group_crystal_system       triclinic
_cell_length_a                    37.022934
_cell_length_b                    30.379402
_cell_length_c                    21.451195
_cell_angle_alpha                 90.000678
_cell_angle_beta                  54.644506
_cell_angle_gamma                 90.000495
_cell_volume                      19677.3582224

loop_
_atom_site_label
_atom_site_type_symbol
_atom_site_description
_atom_site_fract_x
_atom_site_fract_y
_atom_site_fract_z
_atom_type_partial_charge
O1    O     O_R   0.064870 0.537550 0.435160 -0.580169
O2    O     O_R   0.935130 0.537550 0.564840 -0.580230
O3    O     O_R   0.564870 0.037550 0.435160 -0.580229
O4    O     O_R   0.435130 0.037550 0.564840 -0.580152
O5    O     O_R   0.064850 0.462440 0.435150 -0.582422
O6    O     O_R   0.935150 0.462440 0.564850 -0.582414
O7    O     O_R   0.564850 0.962440 0.435150 -0.582381
O8    O     O_R   0.435150 0.962440 0.564850 -0.582390
C1    C     C_R   0.085580 0.500018 0.414428 0.793531
C2    C     C_R   0.914420 0.500018 0.585571 0.793452
C3    C     C_R   0.585579 0.000018 0.414430 0.793379
C4    C     C_R   0.414421 0.000018 0.585570 0.793477
O9    O     O_R   0.999990 0.537540 0.591580 -0.576086
O10   O     O_R   0.000010 0.537540 0.408420 -0.576120
O11   O     O_R   0.499990 0.037540 0.591580 -0.576086
O12   O     O_R   0.500010 0.037540 0.408420 -0.576052
O13   O     O_R   0.999980 0.462440 0.591580 -0.581778
O14   O     O_R   0.000020 0.462440 0.408420 -0.581750
O15   O     O_R   0.499980 0.962440 0.591580 -0.581770
O16   O     O_R   0.500020 0.962440 0.408420 -0.581801
C5    C     C_R   0.999627 0.499997 0.620452 0.829870
C6    C     C_R   0.000363 0.499998 0.379558 0.829966
C7    C     C_R   0.499636 0.999998 0.620444 0.829919
C8    C     C_R   0.500376 0.999995 0.379544 0.829793
Cu1   Cu    Cu3+1 0.000000 0.544460 0.500000 1.026276
Cu2   Cu    Cu3+1 0.500000 0.044460 0.500000 1.026293
Cu3   Cu    Cu3+1 0.000000 0.455520 0.500000 1.019932
Cu4   Cu    Cu3+1 0.500000 0.955520 0.500000 1.019968
C9    C     C_3   0.039573 0.486370 0.688659 -0.203990
C10   C     C_3   0.960479 0.486185 0.311288 -0.204113
C11   C     C_3   0.539567 0.986327 0.688668 -0.204070
C12   C     C_3   0.460370 0.986548 0.311396 -0.203949
C13   C     C_3   0.007650 0.459626 0.762598 -0.105048
C14   C     C_3   0.992534 0.459593 0.237222 -0.105133
C15   C     C_3   0.507609 0.959620 0.762634 -0.105164
C16   C     C_3   0.492166 0.959658 0.237582 -0.105019
H1    H     H_    0.072302 0.475536 0.638046 0.174003
H2    H     H_    0.927800 0.475193 0.361846 0.174077
H3    H     H_    0.572285 0.975455 0.638072 0.174028
H4    H     H_    0.427590 0.975868 0.362059 0.173938
C17   C     C_3   0.999891 0.500447 0.811551 -0.216306
C18   C     C_3   0.000100 0.500450 0.188459 -0.216500
C19   C     C_3   0.499894 0.000447 0.811549 -0.216478
C20   C     C_3   0.500117 0.000441 0.188440 -0.216209
C21   C     C_3   0.030679 0.527123 0.738493 0.343254
C22   C     C_3   0.969175 0.526979 0.261649 0.343033
C23   C     C_3   0.530720 0.027087 0.738461 0.343188
C24   C     C_3   0.469457 0.027260 0.261370 0.343440
C25   C     C_3   0.991359 0.541721 0.736889 -0.245618
C26   C     C_3   0.008420 0.541767 0.263333 -0.245359
C27   C     C_3   0.491423 0.041734 0.736827 -0.245372
C28   C     C_3   0.508845 0.041675 0.262906 -0.245690
C29   C     C_3   0.960643 0.513766 0.809284 0.285858
C30   C     C_3   0.039279 0.513962 0.190802 0.285933
C31   C     C_3   0.460666 0.013816 0.809253 0.285925
C32   C     C_3   0.539428 0.013576 0.190644 0.285821
C33   C     C_3   0.967817 0.472814 0.761443 -0.110109
C34   C     C_3   0.032302 0.472974 0.238447 -0.110008
C35   C     C_3   0.467795 0.972857 0.761455 -0.110099
C36   C     C_3   0.532060 0.972660 0.238675 -0.110223
C37   C     C_3   0.999282 0.500064 0.688866 -0.156600
C38   C     C_3   0.000701 0.500071 0.311154 -0.156447
C39   C     C_3   0.499296 0.000069 0.688850 -0.156506
C40   C     C_3   0.500725 0.000056 0.311126 -0.156703
H5    H     H_    0.984598 0.575481 0.726259 0.205617
H6    H     H_    0.015015 0.575562 0.274128 0.205603
H7    H     H_    0.484705 0.075503 0.726156 0.205595
H8    H     H_    0.515765 0.075403 0.273380 0.205619
C41   C     C_R   0.343120 0.470658 0.124328 -0.162465
C42   C     C_R   0.656880 0.470662 0.875677 -0.162451
C43   C     C_R   0.843117 0.970694 0.124271 -0.162530
C44   C     C_R   0.156882 0.970695 0.875729 -0.162544
C45   C     C_R   0.366179 0.503057 0.133758 -0.067780
C46   C     C_R   0.633821 0.503057 0.866242 -0.067769
C47   C     C_R   0.866177 0.003060 0.133763 -0.067719
C48   C     C_R   0.133823 0.003061 0.866237 -0.067729
C49   C     C_R   0.343417 0.537011 0.188024 -0.074108
C50   C     C_R   0.656583 0.537009 0.811971 -0.074102
C51   C     C_R   0.843415 0.036983 0.188100 -0.074071
C52   C     C_R   0.156585 0.036983 0.811899 -0.074080
C53   C     C_R   0.296422 0.539320 0.231167 -0.046259
C54   C     C_R   0.703578 0.539318 0.768830 -0.046252
C55   C     C_R   0.796419 0.039294 0.231251 -0.046287
C56   C     C_R   0.203581 0.039293 0.768745 -0.046294
C57   C     C_R   0.273485 0.504066 0.224328 0.020664
C58   C     C_R   0.726515 0.504066 0.775673 0.020657
C59   C     C_R   0.773482 0.004069 0.224341 0.020665
C60   C     C_R   0.226517 0.004069 0.775658 0.020676
C61   C     C_R   0.297103 0.470014 0.170719 0.111682
C62   C     C_R   0.702897 0.470017 0.829286 0.111671
C63   C     C_R   0.797101 0.970048 0.170663 0.111681
C64   C     C_R   0.202899 0.970050 0.829338 0.111696
C65   C     C_R   0.271130 0.574627 0.282030 0.323225
C66   C     C_R   0.728870 0.574624 0.717964 0.323215
C67   C     C_R   0.771126 0.074574 0.282192 0.323207
C68   C     C_R   0.228875 0.074571 0.717801 0.323217
C69   C     C_R   0.224951 0.572231 0.328677 -0.216059
C70   C     C_R   0.775050 0.572227 0.671315 -0.216032
C71   C     C_R   0.724947 0.072176 0.328832 -0.216060
C72   C     C_R   0.275054 0.072174 0.671162 -0.216093
C73   C     C_R   0.202777 0.536724 0.323995 0.044924
C74   C     C_R   0.797223 0.536722 0.676000 0.044909
C75   C     C_R   0.702774 0.036697 0.324076 0.044911
C76   C     C_R   0.297227 0.036696 0.675922 0.044930
C77   C     C_R   0.226802 0.502586 0.271210 0.067980
C78   C     C_R   0.773198 0.502586 0.728790 0.067975
C79   C     C_R   0.726800 0.002588 0.271222 0.067967
C80   C     C_R   0.273200 0.002588 0.728777 0.067974
C81   C     C_R   0.204046 0.466958 0.265510 0.073437
C82   C     C_R   0.795954 0.466961 0.734494 0.073427
C83   C     C_R   0.704043 0.966988 0.265451 0.073425
C84   C     C_R   0.295956 0.966989 0.734549 0.073441
C85   C     C_R   0.228415 0.433410 0.211172 -0.040948
C86   C     C_R   0.771585 0.433415 0.788838 -0.040960
C87   C     C_R   0.728413 0.933470 0.211044 -0.040984
C88   C     C_R   0.271587 0.933472 0.788957 -0.040967
C89   C     C_R   0.274566 0.435380 0.164125 -0.198145
C90   C     C_R   0.725433 0.435386 0.835885 -0.198127
C91   C     C_R   0.774564 0.935443 0.163999 -0.198125
C92   C     C_R   0.225435 0.935445 0.836002 -0.198150
C93   C     C_R   0.156622 0.535589 0.370452 -0.176291
C94   C     C_R   0.843378 0.535587 0.629543 -0.176263
C95   C     C_R   0.656619 0.035562 0.370528 -0.176364
C96   C     C_R   0.343382 0.035561 0.629470 -0.176403
C97   C     C_R   0.133981 0.500355 0.365909 -0.065650
C98   C     C_R   0.866019 0.500355 0.634090 -0.065655
C99   C     C_R   0.633979 0.000355 0.365915 -0.065615
C100  C     C_R   0.366021 0.000354 0.634085 -0.065603
C101  C     C_R   0.157529 0.466103 0.314080 -0.204868
C102  C     C_R   0.842471 0.466106 0.685924 -0.205012
C103  C     C_R   0.657526 0.966130 0.314020 -0.205087
C104  C     C_R   0.342473 0.966131 0.685980 -0.204899
H9    H     H_    0.361316 0.444764 0.082489 0.157831
H10   H     H_    0.638684 0.444770 0.917520 0.157832
H11   H     H_    0.861313 0.944823 0.082380 0.157794
H12   H     H_    0.138687 0.944825 0.917621 0.157792
H13   H     H_    0.206165 0.599232 0.367320 0.194485
H14   H     H_    0.793836 0.599227 0.632670 0.194496
H15   H     H_    0.706160 0.099156 0.367532 0.194494
H16   H     H_    0.293841 0.099152 0.632460 0.194481
H17   H     H_    0.138214 0.562045 0.410803 0.167353
H18   H     H_    0.861786 0.562041 0.589188 0.167367
H19   H     H_    0.638209 0.061996 0.410932 0.167329
H20   H     H_    0.361791 0.061994 0.589066 0.167305
H21   H     H_    0.139287 0.439376 0.310901 0.170350
H22   H     H_    0.860713 0.439380 0.689107 0.170313
H23   H     H_    0.639284 0.939424 0.310790 0.170248
H24   H     H_    0.360716 0.939425 0.689211 0.170291
H25   H     H_    0.293083 0.409461 0.122529 0.163902
H26   H     H_    0.706917 0.409469 0.877485 0.163906
H27   H     H_    0.793081 0.909548 0.122349 0.163908
H28   H     H_    0.206918 0.909551 0.877652 0.163901
O17   O     O_R   0.962450 0.435150 0.037500 -0.574620
O18   O     O_R   0.037550 0.435150 0.962500 -0.574797
O19   O     O_R   0.462450 0.935150 0.037500 -0.574776
O20   O     O_R   0.537550 0.935150 0.962500 -0.574532
C105  C     C_R   0.000001 0.414455 0.999996 0.749544
C106  C     C_R   0.499998 0.914457 0.000005 0.749541
O21   O     O_R   0.962450 0.500030 0.945950 -0.546142
O22   O     O_R   0.037550 0.500030 0.054050 -0.546420
O23   O     O_R   0.462450 0.000030 0.945950 -0.546318
O24   O     O_R   0.537550 0.000030 0.054050 -0.545980
O25   O     O_R   0.037540 0.500060 0.870890 -0.550769
O26   O     O_R   0.962460 0.500060 0.129110 -0.550613
O27   O     O_R   0.537540 0.000060 0.870890 -0.550699
O28   O     O_R   0.462460 0.000060 0.129110 -0.550895
C107  C     C_R   0.999981 0.500523 0.879731 0.818381
C108  C     C_R   0.000018 0.500522 0.120271 0.818490
C109  C     C_R   0.499981 0.000520 0.879730 0.818464
C110  C     C_R   0.500021 0.000520 0.120268 0.818325
Cu5   Cu    Cu3+1 0.955530 0.500030 0.044440 1.128730
Cu6   Cu    Cu3+1 0.044470 0.500030 0.955560 1.128302
Cu7   Cu    Cu3+1 0.455530 0.000030 0.044440 1.128248
Cu8   Cu    Cu3+1 0.544470 0.000030 0.955560 1.128794
O29   O     O_R   0.962440 0.564920 0.037550 -0.568109
O30   O     O_R   0.037560 0.564920 0.962450 -0.568006
O31   O     O_R   0.462440 0.064920 0.037550 -0.568046
O32   O     O_R   0.537560 0.064920 0.962450 -0.568181
C111  C     C_R   0.000001 0.585770 0.000004 0.788470
C112  C     C_R   0.499999 0.085772 0.999995 0.788417
O33   O     O_R   0.499970 0.435080 0.053010 -0.550306
O34   O     O_R   0.500030 0.435080 0.946990 -0.550314
O35   O     O_R   0.999970 0.935080 0.053010 -0.550291
O36   O     O_R   0.000030 0.935080 0.946990 -0.550286
C113  C     C_R   0.500003 0.414604 0.999997 0.893084
C114  C     C_R   0.999997 0.914603 0.000002 0.893038
O37   O     O_R   0.435150 0.499980 0.117890 -0.574512
O38   O     O_R   0.564850 0.499980 0.882110 -0.574506
O39   O     O_R   0.935150 0.999980 0.117890 -0.574548
O40   O     O_R   0.064850 0.999980 0.882110 -0.574554
O41   O     O_R   0.435090 0.499970 0.011940 -0.562886
O42   O     O_R   0.564910 0.499970 0.988060 -0.562905
O43   O     O_R   0.935090 0.999970 0.011940 -0.562913
O44   O     O_R   0.064910 0.999970 0.988060 -0.562903
C115  C     C_R   0.414495 0.500720 0.085556 0.824405
C116  C     C_R   0.585505 0.500720 0.914444 0.824396
C117  C     C_R   0.914494 0.000722 0.085557 0.824470
C118  C     C_R   0.085506 0.000722 0.914443 0.824479
Cu9   Cu    Cu3+1 0.500020 0.499960 0.062730 1.135081
Cu10  Cu    Cu3+1 0.499980 0.499960 0.937270 1.135097
Cu11  Cu    Cu3+1 0.000020 0.999960 0.062730 1.135042
Cu12  Cu    Cu3+1 0.999980 0.999960 0.937270 1.135033
O45   O     O_R   0.500060 0.564850 0.052930 -0.547945
O46   O     O_R   0.499940 0.564850 0.947070 -0.547927
O47   O     O_R   0.000060 0.064850 0.052930 -0.547988
O48   O     O_R   0.999940 0.064850 0.947070 -0.547998
C119  C     C_R   0.500002 0.585469 0.999998 0.889396
C120  C     C_R   0.999998 0.085468 0.000002 0.889570
C121  C     C_R   0.531344 0.656669 0.004578 0.255266
C122  C     C_R   0.468654 0.656666 0.995433 0.255251
C123  C     C_R   0.031382 0.156663 0.004464 0.255193
C124  C     C_R   0.968619 0.156663 0.995523 0.255215
C125  C     C_R   0.500001 0.633779 0.000001 -0.244241
C126  C     C_R   0.999998 0.133775 0.000000 -0.244261
C127  C     C_R   0.465688 0.703123 0.003011 -0.059796
C128  C     C_R   0.534299 0.703127 0.997027 -0.059788
C129  C     C_R   0.965662 0.203120 0.003095 -0.059780
C130  C     C_R   0.034351 0.203117 0.996858 -0.059780
C131  C     C_R   0.499990 0.726449 0.000025 0.000040
C132  C     C_R   0.000009 0.226443 0.999970 0.000029
C133  C     C_R   0.428827 0.726837 0.016107 -0.150972
C134  C     C_R   0.571151 0.726849 0.983951 -0.150993
C135  C     C_R   0.928771 0.226836 0.016319 -0.150972
C136  C     C_R   0.071252 0.226829 0.983602 -0.150973
C137  C     C_R   0.928821 0.273012 0.016180 0.262521
C138  C     C_R   0.071217 0.273005 0.983704 0.262550
C139  C     C_R   0.428875 0.773012 0.015961 0.262599
C140  C     C_R   0.571089 0.773025 0.984129 0.262520
C141  C     C_R   0.965667 0.296486 0.003328 -0.013314
C142  C     C_R   0.034370 0.296483 0.996568 -0.013288
C143  C     C_R   0.465682 0.796490 0.003260 -0.013292
C144  C     C_R   0.534279 0.796495 0.996835 -0.013304
C145  C     C_R   0.000014 0.273113 0.999958 0.022501
C146  C     C_R   0.499984 0.773120 0.000037 0.022475
C147  C     C_R   0.969199 0.342789 0.994049 -0.067211
C148  C     C_R   0.030842 0.342787 0.005846 -0.067273
C149  C     C_R   0.469219 0.842795 0.993986 -0.067311
C150  C     C_R   0.530733 0.842797 0.006124 -0.067185
C151  C     C_R   0.000010 0.365900 0.999974 -0.148511
C152  C     C_R   0.499987 0.865905 0.000028 -0.148410
C153  C     C_R   0.528064 0.343768 0.930974 0.254486
C154  C     C_R   0.471955 0.343765 0.069007 0.254486
C155  C     C_R   0.028028 0.843762 0.930985 0.254500
C156  C     C_R   0.971954 0.843765 0.069029 0.254499
C157  C     C_R   0.500007 0.366605 0.999992 -0.273373
C158  C     C_R   0.999993 0.866603 0.000006 -0.273382
C159  C     C_R   0.472141 0.297513 0.069082 -0.013967
C160  C     C_R   0.527881 0.297515 0.930892 -0.014003
C161  C     C_R   0.972140 0.797512 0.069111 -0.014020
C162  C     C_R   0.027839 0.797509 0.930908 -0.013990
C163  C     C_R   0.500011 0.274115 0.999985 -0.007931
C164  C     C_R   0.999990 0.774111 0.000012 -0.007927
C165  C     C_R   0.444886 0.274437 0.137376 -0.143853
C166  C     C_R   0.555139 0.274440 0.862596 -0.143828
C167  C     C_R   0.944906 0.774438 0.137415 -0.143808
C168  C     C_R   0.055071 0.774433 0.862606 -0.143828
C169  C     C_R   0.944365 0.728802 0.139074 -0.077955
C170  C     C_R   0.055616 0.728798 0.860955 -0.078049
C171  C     C_R   0.444336 0.228801 0.139023 -0.078151
C172  C     C_R   0.555685 0.228804 0.860940 -0.078035
C173  C     C_R   0.970485 0.704259 0.069728 0.032969
C174  C     C_R   0.029504 0.704259 0.930306 0.032947
C175  C     C_R   0.470470 0.204264 0.069675 0.032903
C176  C     C_R   0.529541 0.204263 0.930283 0.032930
C177  C     C_R   0.999991 0.727415 0.000015 0.089559
C178  C     C_R   0.500009 0.227419 0.999981 0.089573
C179  C     C_R   0.967904 0.657841 0.067060 -0.112749
C180  C     C_R   0.032102 0.657845 0.932978 -0.112798
C181  C     C_R   0.467866 0.157853 0.066991 -0.112826
C182  C     C_R   0.532126 0.157846 0.932962 -0.112772
C183  C     C_R   0.000002 0.634608 0.000014 -0.123063
C184  C     C_R   0.499998 0.134612 0.999983 -0.123269
H29   H     H_    0.423902 0.291915 0.191002 0.203611
H30   H     H_    0.576128 0.291921 0.808974 0.203622
H31   H     H_    0.923933 0.791919 0.191040 0.203628
H32   H     H_    0.076040 0.791912 0.808978 0.203618
C185  C     C_1   0.017227 0.415160 0.776122 0.303098
N1    N     N_1   0.024922 0.380118 0.786577 -0.247353
C186  C     C_1   0.983146 0.415077 0.223542 0.303151
N2    N     N_1   0.975591 0.379995 0.212981 -0.247499
C187  C     C_1   0.517149 0.915140 0.776173 0.303156
N3    N     N_1   0.524820 0.880088 0.786630 -0.247355
C188  C     C_1   0.482398 0.915237 0.224229 0.303082
N4    N     N_1   0.474557 0.880233 0.213897 -0.247195
C189  C     C_1   0.207100 0.396619 0.201997 0.283726
N5    N     N_1   0.190051 0.367171 0.194618 -0.196484
C190  C     C_1   0.792900 0.396628 0.798020 0.283666
N6    N     N_1   0.809949 0.367183 0.805404 -0.196411
C191  C     C_1   0.707097 0.896710 0.201794 0.283643
N7    N     N_1   0.690049 0.867288 0.194355 -0.196230
C192  C     C_1   0.292901 0.896712 0.798207 0.283720
N8    N     N_1   0.309949 0.867289 0.805645 -0.196305
N9    N     N_R   0.559096 0.632532 0.019161 0.119293
O49   O     O_R   0.587303 0.603721 0.970076 -0.370430
O50   O     O_R   0.555440 0.638792 0.082595 -0.302318
N10   N     N_R   0.440910 0.632529 0.980833 0.119291
O51   O     O_R   0.412705 0.603711 0.029905 -0.370432
O52   O     O_R   0.444566 0.638798 0.917400 -0.302308
N11   N     N_R   0.059163 0.132531 0.018986 0.119290
O53   O     O_R   0.087330 0.103690 0.969916 -0.370598
O54   O     O_R   0.055589 0.138841 0.082339 -0.302313
N12   N     N_R   0.940832 0.132527 0.981015 0.119290
O55   O     O_R   0.912663 0.103695 0.030101 -0.370595
O56   O     O_R   0.944411 0.138821 0.917655 -0.302328
C193  C     C_1   0.387916 0.704968 0.039471 0.505004
N13   N     N_1   0.355116 0.687852 0.058317 -0.118196
C194  C     C_1   0.612069 0.704989 0.960566 0.504950
N14   N     N_1   0.644874 0.687879 0.941705 -0.118225
C195  C     C_1   0.887836 0.204967 0.039822 0.504933
N15   N     N_1   0.855017 0.187850 0.058778 -0.118228
C196  C     C_1   0.112182 0.204952 0.960106 0.504960
N16   N     N_1   0.144997 0.187829 0.941158 -0.118182
N17   N     N_R   0.889075 0.295716 0.037641 0.109898
O57   O     O_R   0.867045 0.318560 0.100535 -0.299498
O58   O     O_R   0.873080 0.290804 0.997709 -0.304434
N18   N     N_R   0.110976 0.295700 0.962194 0.109868
O59   O     O_R   0.133009 0.318514 0.899269 -0.299554
O60   O     O_R   0.126981 0.290804 0.002113 -0.304479
N19   N     N_R   0.389158 0.795709 0.037261 0.109847
O61   O     O_R   0.367017 0.818490 0.100218 -0.299500
O62   O     O_R   0.373278 0.790818 0.997145 -0.304451
N20   N     N_R   0.610797 0.795735 0.962852 0.109920
O63   O     O_R   0.632892 0.818595 0.899982 -0.299442
O64   O     O_R   0.626697 0.790814 0.002931 -0.304388
C197  C     C_1   0.944384 0.366698 0.971622 0.385105
N21   N     N_1   0.924795 0.385916 0.953601 -0.186777
C198  C     C_1   0.055707 0.366699 0.028171 0.385419
N22   N     N_1   0.075338 0.385919 0.046102 -0.187074
C199  C     C_1   0.444434 0.866715 0.971510 0.385169
N23   N     N_1   0.424866 0.885942 0.953456 -0.187116
C200  C     C_1   0.555453 0.866709 0.028741 0.384794
N24   N     N_1   0.574965 0.885929 0.046915 -0.186737
N25   N     N_R   0.557781 0.367712 0.861465 0.126972
O65   O     O_R   0.589791 0.390808 0.853552 -0.371390
O66   O     O_R   0.550478 0.369508 0.809037 -0.315698
N26   N     N_R   0.442234 0.367706 0.138519 0.126970
O67   O     O_R   0.410218 0.390792 0.146439 -0.371385
O68   O     O_R   0.449539 0.369508 0.190944 -0.315702
N27   N     N_R   0.057735 0.867701 0.861465 0.126978
O69   O     O_R   0.089764 0.890783 0.853510 -0.371282
O70   O     O_R   0.050404 0.869510 0.809073 -0.315730
N28   N     N_R   0.942250 0.867708 0.138546 0.126980
O71   O     O_R   0.910227 0.890797 0.146495 -0.371288
O72   O     O_R   0.949579 0.869513 0.190942 -0.315723
C201  C     C_1   0.918922 0.709484 0.214711 0.290123
N29   N     N_1   0.898566 0.694539 0.275583 -0.156497
C202  C     C_1   0.081052 0.709473 0.785322 0.290343
N30   N     N_1   0.101403 0.694522 0.724455 -0.156316
C203  C     C_1   0.418874 0.209473 0.214652 0.290598
N31   N     N_1   0.398503 0.194518 0.275516 -0.156176
C204  C     C_1   0.581155 0.209482 0.785305 0.290310
N32   N     N_1   0.601533 0.194533 0.724436 -0.156389
C205  C     C_1   0.931373 0.633774 0.131421 0.326923
N33   N     N_1   0.902087 0.614420 0.182167 -0.132191
C206  C     C_1   0.068669 0.633797 0.868645 0.327395
N34   N     N_1   0.097986 0.614461 0.817920 -0.132316
C207  C     C_1   0.431254 0.133819 0.131274 0.327901
N35   N     N_1   0.401899 0.114498 0.181962 -0.132489
C208  C     C_1   0.568694 0.133790 0.868645 0.327284
N36   N     N_1   0.598010 0.114446 0.817931 -0.132335
N37   N     N_R   0.065547 0.556399 0.725437 0.136064
O73   O     O_R   0.064081 0.598164 0.713797 -0.334147
O74   O     O_R   0.099937 0.540313 0.719582 -0.303838
N38   N     N_R   0.934167 0.556097 0.274855 0.136228
O75   O     O_R   0.935410 0.597858 0.286797 -0.333925
O76   O     O_R   0.899873 0.539862 0.280551 -0.303655
N39   N     N_R   0.565619 0.056325 0.725380 0.136109
O77   O     O_R   0.564208 0.098087 0.713662 -0.334110
O78   O     O_R   0.599981 0.040204 0.719578 -0.303770
N40   N     N_R   0.434729 0.056690 0.274266 0.135925
O79   O     O_R   0.436434 0.098465 0.285538 -0.334398
O80   O     O_R   0.400244 0.040750 0.280278 -0.303999
N41   N     N_R   0.918232 0.529680 0.875044 0.152944
O81   O     O_R   0.881893 0.508228 0.899721 -0.308975
O82   O     O_R   0.916542 0.566110 0.908481 -0.318344
N42   N     N_R   0.081613 0.530106 0.125150 0.153003
O83   O     O_R   0.118151 0.509191 0.101040 -0.309175
O84   O     O_R   0.083073 0.566422 0.091653 -0.318575
N43   N     N_R   0.418273 0.029800 0.874961 0.153017
O85   O     O_R   0.381826 0.008713 0.899047 -0.309206
O86   O     O_R   0.416664 0.066130 0.908557 -0.318383
N44   N     N_R   0.581916 0.029279 0.124802 0.152932
O87   O     O_R   0.618106 0.007497 0.099936 -0.308909
O88   O     O_R   0.583812 0.065772 0.091334 -0.318104
C209  C     C_1   0.933406 0.442814 0.772595 0.364175
N45   N     N_1   0.906306 0.419210 0.781312 -0.219600
C210  C     C_1   0.066856 0.443135 0.227152 0.364098
N46   N     N_1   0.094068 0.419657 0.218323 -0.219914
C211  C     C_1   0.433353 0.942892 0.772640 0.364264
N47   N     N_1   0.406228 0.919314 0.781381 -0.219625
C212  C     C_1   0.566330 0.942501 0.227660 0.364329
N48   N     N_1   0.593320 0.918771 0.219051 -0.219246
C213  C     C_1   0.368922 0.567491 0.200296 0.395820
N49   N     N_1   0.389561 0.591590 0.209756 -0.184696
C214  C     C_1   0.631079 0.567484 0.799693 0.395841
N50   N     N_1   0.610440 0.591581 0.790227 -0.184670
C215  C     C_1   0.868918 0.067429 0.200427 0.395935
N51   N     N_1   0.889557 0.091503 0.209931 -0.184632
C216  C     C_1   0.131081 0.067429 0.799574 0.395909
N52   N     N_1   0.110442 0.091503 0.790072 -0.184653
N53   N     N_R   0.290968 0.614835 0.283217 0.122686
O89   O     O_R   0.279651 0.631298 0.348201 -0.299495
O90   O     O_R   0.311922 0.639604 0.222544 -0.309811
N54   N     N_R   0.709032 0.614832 0.716777 0.122683
O91   O     O_R   0.720352 0.631296 0.651792 -0.299453
O92   O     O_R   0.688075 0.639600 0.777452 -0.309811
N55   N     N_R   0.790962 0.114759 0.283472 0.122670
O93   O     O_R   0.779650 0.131156 0.348494 -0.299459
O94   O     O_R   0.811907 0.139578 0.222861 -0.309838
N56   N     N_R   0.209039 0.114754 0.716513 0.122674
O95   O     O_R   0.220350 0.131144 0.651489 -0.299512
O96   O     O_R   0.188097 0.139579 0.777118 -0.309838

loop_
_geom_bond_atom_site_label_1
_geom_bond_atom_site_label_2
_geom_bond_distance
_ccdc_geom_bond_type
C71   C75   1.393885 A    
C167  C169  1.386702 A    
C207  N35   1.157735 T    
C54   C66   1.426669 A    
C59   C63   1.411885 A    
C102  H22   1.083218 S    
N20   O64   1.301438 A    
C192  N8    1.157312 T    
C14   C18   1.540838 S    
C128  C131  1.423018 A    
C140  C144  1.417782 A    
C172  C176  1.427973 A    
C75   C95   1.394104 A    
C166  H30   1.083742 S    
C170  C174  1.427963 A    
N25   O65   1.301061 A    
C137  N17   1.438396 S    
C70   H14   1.084660 S    
C153  C157  1.404442 A    
C31   C35   1.534943 S    
C60   C80   1.410320 A    
C67   C71   1.396333 A    
C67   N55   1.433095 S    
C162  C164  1.413115 A    
C9    C13   1.550210 S    
C72   C76   1.393885 A    
C10   H2    1.110370 S    
C85   C189  1.445838 S    
O30   C111  1.299009 A    
C42   C46   1.392217 A    
C120  C126  1.467535 S    
C142  C148  1.416106 A    
O4    C4    1.300408 A    
C101  H21   1.083215 S    
C27   C39   1.548905 S    
Cu9   Cu10  2.692124 S    
C155  C162  1.405155 A    
O19   C106  1.296390 A    
C73   C77   1.408293 A    
C131  C146  1.417825 A    
C51   C215  1.451181 S    
C127  C133  1.420083 A    
C133  C193  1.451953 S    
C9    C37   1.546136 S    
C134  C194  1.451933 S    
O27   C109  1.290182 A    
C150  C152  1.406374 A    
C154  C157  1.404422 A    
O35   Cu11  1.982127 S    
C156  N28   1.436775 S    
O26   C108  1.290153 A    
C58   C62   1.411879 A    
N28   O71   1.301063 A    
O16   Cu4   1.975296 S    
C70   C74   1.393891 A    
O44   Cu11  1.970752 S    
C121  C125  1.404124 A    
O7    Cu4   1.969401 S    
C9    C21   1.541618 S    
N18   O59   1.301360 A    
O34   C113  1.295587 A    
O15   C7    1.294683 A    
C50   C54   1.423093 A    
N40   O80   1.300221 A    
C206  N34   1.157738 T    
C144  C146  1.421301 A    
O22   Cu6   1.975559 S    
O9    C5    1.294220 A    
C195  N15   1.157729 T    
O41   Cu10  1.970752 S    
C65   N53   1.433090 S    
O25   Cu6   1.975852 S    
N10   O51   1.301062 A    
C161  C167  1.394666 A    
C144  C150  1.416076 A    
C211  N47   1.157053 T    
O8    Cu4   1.969405 S    
C169  C173  1.427980 A    
C16   C20   1.540741 S    
C181  C207  1.452173 S    
C210  N46   1.157077 T    
C62   C90   1.399929 A    
O39   C117  1.296243 A    
C123  C130  1.417606 A    
C35   C39   1.538550 S    
O3    Cu2   1.969969 S    
C56   C60   1.426132 A    
N26   O67   1.301059 A    
C33   C37   1.538607 S    
C4    C100  1.461497 S    
C140  N20   1.438388 S    
C213  N49   1.157826 T    
C133  C139  1.402777 A    
C171  C175  1.427949 A    
O36   C114  1.295601 A    
C36   C40   1.538631 S    
O20   C106  1.296498 A    
Cu5   O29   1.982333 S    
C25   C29   1.543495 S    
O21   C107  1.290146 A    
C143  C146  1.421316 A    
C27   C31   1.543476 S    
O22   C108  1.290187 A    
C99   C103  1.398972 A    
O3    C3    1.300410 A    
C97   C101  1.398979 A    
C24   C28   1.541110 S    
C59   C79   1.410323 A    
C208  N36   1.157741 T    
C42   H10   1.085550 S    
C98   C102  1.398979 A    
C168  H32   1.083743 S    
C165  H29   1.083740 S    
C47   C51   1.412099 A    
C35   C211  1.469049 S    
C20   C24   1.531190 S    
C129  C135  1.420076 A    
C139  C143  1.417812 A    
N19   O62   1.301438 A    
C203  N31   1.157698 T    
C204  N32   1.157701 T    
C89   H25   1.085456 S    
N40   O79   1.300274 A    
C182  C208  1.452180 S    
O5    C1    1.301937 A    
C36   C212  1.469035 S    
C12   C16   1.550199 S    
N18   O60   1.301450 A    
N17   O58   1.301437 A    
O38   Cu10  1.969604 S    
C122  C127  1.417630 A    
C182  C184  1.414542 A    
N38   O75   1.300350 A    
O5    Cu3   1.969401 S    
C95   C99   1.397257 A    
C154  N26   1.436776 S    
C168  C170  1.386677 A    
C103  H23   1.083223 S    
C15   C19   1.540781 S    
C82   C86   1.412208 A    
C155  N27   1.436776 S    
O23   C109  1.290155 A    
C148  C198  1.454182 S    
C185  N1    1.157018 T    
C66   N54   1.433097 S    
C71   H15   1.084663 S    
C58   C78   1.410319 A    
C41   C61   1.389650 A    
C69   H13   1.084659 S    
N42   O84   1.300564 A    
C162  C168  1.394658 A    
N12   O56   1.301149 A    
C156  C161  1.405168 A    
C10   C14   1.550239 S    
O13   Cu3   1.975287 S    
C11   C39   1.546117 S    
C132  C145  1.417804 A    
N54   O91   1.301128 A    
C12   C40   1.546148 S    
O35   C114  1.295599 A    
O40   Cu12  1.969604 S    
C122  N10   1.436381 S    
C57   C77   1.410318 A    
O27   Cu8   1.975852 S    
C138  C142  1.417837 A    
C1    C97   1.461537 S    
C88   C92   1.394981 A    
C153  N25   1.436773 S    
C3    C99   1.461497 S    
C93   C97   1.397273 A    
N9    O49   1.301067 A    
C30   N42   1.458039 S    
N11   O54   1.301147 A    
C130  C132  1.423008 A    
O8    C4    1.301923 A    
C155  C158  1.404435 A    
C191  N7    1.157310 T    
C27   H7    1.110228 S    
O15   Cu4   1.975287 S    
C17   C29   1.536008 S    
N56   O95   1.301131 A    
C85   C89   1.394984 A    
C83   C103  1.405551 A    
C61   C89   1.399928 A    
O28   C110  1.290232 A    
C87   C91   1.394983 A    
C81   C101  1.405550 A    
C33   C209  1.469057 S    
C63   C91   1.399934 A    
C136  C196  1.451940 S    
C9    H1    1.110341 S    
O33   Cu9   1.982127 S    
C65   C69   1.396339 A    
C84   C88   1.412210 A    
C14   C34   1.542226 S    
C19   C31   1.536025 S    
C77   C81   1.419659 A    
C161  C164  1.413100 A    
C45   C49   1.412076 A    
O14   C6    1.294698 A    
C79   C83   1.419663 A    
C10   C22   1.541632 S    
C48   C52   1.412100 A    
C16   C188  1.467566 S    
C55   C59   1.426126 A    
C75   C79   1.408300 A    
C135  C137  1.402804 A    
C76   C96   1.394101 A    
C111  C183  1.483675 S    
C122  C125  1.404109 A    
C148  C151  1.406509 A    
O10   C6    1.294167 A    
C64   C92   1.399936 A    
C123  N11   1.436390 S    
C215  N51   1.157827 T    
O44   C118  1.296987 A    
C19   C23   1.531280 S    
C68   C72   1.396333 A    
C7    C39   1.460168 S    
C156  C158  1.404450 A    
N55   O94   1.301347 A    
C141  C145  1.421305 A    
O41   C115  1.296966 A    
C175  C181  1.416688 A    
C123  C126  1.404096 A    
C149  C152  1.406452 A    
C188  N4    1.157013 T    
C147  C197  1.454176 S    
Cu11  O47   1.982406 S    
C2    C98   1.461534 S    
C53   C57   1.426126 A    
Cu6   O30   1.982334 S    
C34   C38   1.538570 S    
Cu9   O45   1.982406 S    
C14   C186  1.467600 S    
N44   O87   1.300207 A    
C114  C158  1.458226 S    
C34   C210  1.469103 S    
C52   C56   1.423101 A    
C52   C216  1.451185 S    
C174  C177  1.426139 A    
C205  N33   1.157743 T    
C19   C109  1.464462 S    
N43   O85   1.300489 A    
C129  C132  1.423004 A    
N37   O74   1.300238 A    
O20   Cu8   1.982057 S    
C26   C30   1.543504 S    
O21   Cu5   1.975560 S    
O42   C116  1.296966 A    
N41   O82   1.300475 A    
C78   C82   1.419657 A    
C44   C64   1.389647 A    
N28   O72   1.301070 A    
C124  C129  1.417617 A    
C66   C70   1.396340 A    
C15   C35   1.542192 S    
C18   C22   1.531351 S    
C90   H26   1.085454 S    
C180  C206  1.452183 S    
C179  C183  1.414507 A    
C176  C182  1.416765 A    
C186  N2    1.157031 T    
C41   C45   1.392216 A    
Cu8   O32   1.982334 S    
C5    C37   1.460188 S    
C44   C48   1.392225 A    
C96   C100  1.397260 A    
N10   O52   1.301156 A    
N20   O63   1.301350 A    
C8    C40   1.460212 S    
C11   C23   1.541605 S    
C139  N19   1.438358 S    
C12   C24   1.541621 S    
C18   C108  1.464468 S    
N53   O89   1.301122 A    
N25   O66   1.301066 A    
O12   Cu2   1.975502 S    
N44   O88   1.300428 A    
C25   C37   1.548903 S    
C194  N14   1.157727 T    
C93   H17   1.084859 S    
O1    C1    1.300416 A    
O18   C105  1.296431 A    
N26   O68   1.301066 A    
C28   C40   1.548886 S    
C202  N30   1.157701 T    
C29   C33   1.534924 S    
C23   C27   1.541068 S    
C54   C58   1.426123 A    
C73   C93   1.394104 A    
O43   Cu12  1.970752 S    
C80   C84   1.419666 A    
O37   Cu9   1.969607 S    
C141  C147  1.416086 A    
N11   O53   1.301066 A    
C173  C177  1.426164 A    
C189  N5    1.157311 T    
C127  C131  1.423018 A    
O23   Cu7   1.975560 S    
C165  C171  1.386676 A    
N27   O69   1.301062 A    
O24   C110  1.290102 A    
O46   C119  1.297872 A    
C21   C25   1.541099 S    
C50   C214  1.451182 S    
O34   Cu10  1.982132 S    
N39   O78   1.300225 A    
C60   C64   1.411884 A    
C17   C21   1.531250 S    
C84   C104  1.405548 A    
C112  C184  1.483739 S    
C124  C126  1.404112 A    
C159  C163  1.413118 A    
C10   C38   1.546132 S    
C11   C15   1.550196 S    
C76   C80   1.408298 A    
O40   C118  1.296246 A    
C209  N45   1.157057 T    
O28   Cu7   1.975852 S    
C57   C61   1.411882 A    
C147  C151  1.406451 A    
C68   N56   1.433091 S    
O6    C2    1.301936 A    
C47   C117  1.460670 S    
O32   C112  1.299061 A    
C214  N50   1.157828 T    
C45   C115  1.460631 S    
C130  C136  1.420065 A    
C32   N44   1.457948 S    
C143  C149  1.416124 A    
C13   C17   1.540776 S    
C198  N22   1.157880 T    
C48   C118  1.460670 S    
C18   C30   1.536050 S    
C51   C55   1.423098 A    
N17   O57   1.301353 A    
N38   O76   1.300261 A    
C82   C102  1.405547 A    
O2    Cu1   1.969971 S    
O10   Cu1   1.975502 S    
O17   C105  1.296513 A    
C197  N21   1.157876 T    
C31   N43   1.457983 S    
C44   H12   1.085553 S    
N19   O61   1.301374 A    
C21   N37   1.455175 S    
C32   C36   1.534877 S    
C43   C63   1.389650 A    
C176  C178  1.426131 A    
C193  N13   1.157734 T    
C46   C50   1.412072 A    
C181  C184  1.414525 A    
C167  H31   1.083743 S    
C124  N12   1.436390 S    
C74   C94   1.394105 A    
C216  N52   1.157827 T    
O13   C5    1.294662 A    
C175  C178  1.426100 A    
C43   C47   1.392224 A    
Cu5   Cu6   2.685553 S    
C153  C160  1.405161 A    
C199  N23   1.157874 T    
N39   O77   1.300268 A    
C200  N24   1.157866 T    
C212  N48   1.157050 T    
C13   C185  1.467573 S    
Cu7   Cu8   2.685553 S    
O7    C3    1.301925 A    
C25   H5    1.110228 S    
N54   O92   1.301346 A    
C173  C179  1.416775 A    
C43   H11   1.085553 S    
C160  C166  1.394672 A    
C86   C190  1.445841 S    
N43   O86   1.300532 A    
C119  C125  1.467614 S    
C142  C145  1.421309 A    
C24   N40   1.455140 S    
C56   C68   1.426685 A    
O42   Cu9   1.970752 S    
C136  C138  1.402788 A    
C20   C32   1.535995 S    
C169  C201  1.447585 S    
C72   H16   1.084663 S    
C105  C151  1.475072 S    
C190  N6    1.157306 T    
C87   C191  1.445846 S    
N55   O93   1.301130 A    
C174  C180  1.416712 A    
C49   C53   1.423094 A    
N56   O96   1.301346 A    
C28   H8    1.110216 S    
C160  C163  1.413097 A    
C81   C85   1.412209 A    
O19   Cu7   1.982058 S    
O11   C7    1.294188 A    
C166  C172  1.386706 A    
O12   C8    1.294251 A    
O1    Cu1   1.969969 S    
O9    Cu1   1.975502 S    
C42   C62   1.389653 A    
C23   N39   1.455184 S    
C100  C104  1.398971 A    
N53   O90   1.301342 A    
C20   C110  1.464465 S    
C91   H27   1.085458 S    
C46   C116  1.460634 S    
O4    Cu2   1.969971 S    
C92   H28   1.085456 S    
C121  C128  1.417641 A    
O36   Cu12  1.982132 S    
C104  H24   1.083222 S    
O16   C8    1.294643 A    
O33   C113  1.295589 A    
O11   Cu2   1.975502 S    
O29   C111  1.299035 A    
C196  N16   1.157727 T    
O39   Cu11  1.969607 S    
C187  N3    1.157013 T    
O45   C119  1.297864 A    
C150  C200  1.454166 S    
C94   C98   1.397275 A    
O25   C107  1.290195 A    
Cu10  O46   1.982401 S    
C6    C38   1.460155 S    
C172  C204  1.447583 S    
C53   C65   1.426671 A    
O6    Cu3   1.969405 S    
C180  C183  1.414492 A    
Cu7   O31   1.982333 S    
O31   C112  1.299024 A    
C55   C67   1.426685 A    
O17   Cu5   1.982058 S    
O18   Cu6   1.982057 S    
C171  C203  1.447585 S    
C26   H6    1.110260 S    
C163  C178  1.418597 A    
C86   C90   1.394984 A    
C159  C165  1.394662 A    
N27   O70   1.301069 A    
C49   C213  1.451179 S    
C26   C38   1.548947 S    
C94   H18   1.084857 S    
O2    C2    1.300416 A    
N42   O83   1.300566 A    
C113  C157  1.458184 S    
C30   C34   1.535003 S    
O47   C120  1.297854 A    
N12   O55   1.301064 A    
C41   H9    1.085550 S    
O37   C115  1.296245 A    
C135  C195  1.451937 S    
O14   Cu3   1.975296 S    
C16   C36   1.542140 S    
C22   N38   1.455249 S    
O24   Cu8   1.975559 S    
C13   C33   1.542165 S    
Cu1   Cu3   2.701947 S    
N37   O73   1.300313 A    
C22   C26   1.541088 S    
C88   C192  1.445843 S    
Cu2   Cu4   2.701947 S    
C154  C159  1.405140 A    
C179  C205  1.452200 S    
C15   C187  1.467558 S    
C149  C199  1.454170 S    
N9    O50   1.301143 A    
N41   O81   1.300303 A    
C138  N18   1.438403 S    
O43   C117  1.296987 A    
C17   C107  1.464471 S    
C11   H3    1.110337 S    
C74   C78   1.408296 A    
C29   N41   1.457971 S    
C12   H4    1.110330 S    
C170  C202  1.447588 S    
C128  C134  1.420096 A    
C164  C177  1.418621 A    
Cu11  Cu12  2.692124 S    
O38   C116  1.296251 A    
C137  C141  1.417816 A    
C134  C140  1.402806 A    
Cu12  O48   1.982401 S    
C95   H19   1.084863 S    
C121  N9    1.436381 S    
C96   H20   1.084862 S    
O26   Cu5   1.975852 S    
C83   C87   1.412210 A    
C201  N29   1.157703 T    
O48   C120  1.297843 A    
C69   C73   1.393894 A    
C28   C32   1.543494 S    
C106  C152  1.474972 S    
