data_mof_unit_58925.cif
_audit_creation_date              2012-12-10T19:48:00-0500
_audit_creation_method            fapswitch 2.2
_symmetry_space_group_name_H-M    P1
_symmetry_Int_Tables_number       1
_space_group_crystal_system       triclinic
_cell_length_a                    15.011781
_cell_length_b                    14.111929
_cell_length_c                    10.626033
_cell_angle_alpha                 90.004572
_cell_angle_beta                  89.964112
_cell_angle_gamma                 89.999871
_cell_volume                      2251.07350595

loop_
_atom_site_label
_atom_site_type_symbol
_atom_type_description
_atom_site_fract_x
_atom_site_fract_y
_atom_site_fract_z
_atom_type_partial_charge
C1    C     C_R   0.327672 0.499990 0.499895 0.862001
C2    C     C_R   0.534563 0.795450 0.599904 0.004364
C3    C     C_R   0.565509 0.204665 0.561694 0.014501
C4    C     C_R   0.465438 0.795440 0.400095 0.004429
C5    C     C_R   0.499999 0.053424 0.500001 0.136701
C6    C     C_R   0.500000 0.946682 0.500001 0.144534
C7    C     C_R   0.513707 0.499974 0.260285 0.895952
C8    C     C_R   0.486283 0.499983 0.739711 0.895956
C9    C     C_R   0.549922 0.674099 0.109950 -0.136937
C10   C     C_R   0.450542 0.325487 0.889593 -0.122518
C11   C     C_R   0.450200 0.674151 0.890085 -0.136952
C12   C     C_R   0.672328 0.499990 0.500106 0.862033
C13   C     C_R   0.549269 0.325431 0.110351 -0.122535
C14   C     C_R   0.526566 0.759807 0.053670 -0.170575
C15   C     C_R   0.473701 0.239792 0.946027 -0.162356
C16   C     C_R   0.473627 0.759834 0.946391 -0.170624
C17   C     C_R   0.526026 0.239762 0.053896 -0.162423
C18   C     C_R   0.479951 0.586826 0.940716 0.092756
C19   C     C_R   0.519868 0.412822 0.059402 0.084810
C20   C     C_R   0.520096 0.586804 0.059296 0.092724
C21   C     C_R   0.480019 0.412845 0.940573 0.084795
C22   C     C_R   0.472070 0.499881 0.875638 -0.266953
C23   C     C_R   0.048093 0.499839 0.500059 0.116692
C24   C     C_R   0.527903 0.499851 0.124354 -0.266940
C25   C     C_R   0.094032 0.579395 0.544334 -0.178874
C26   C     C_R   0.905880 0.420276 0.544076 -0.181419
C27   C     C_R   0.905971 0.579416 0.455770 -0.178880
C28   C     C_R   0.094121 0.420298 0.455852 -0.181411
C29   C     C_R   0.185989 0.579668 0.543637 -0.200967
C30   C     C_R   0.813923 0.420091 0.543401 -0.193659
C31   C     C_R   0.814014 0.579686 0.456457 -0.200969
C32   C     C_R   0.186077 0.420111 0.456526 -0.193658
C33   C     C_R   0.231953 0.499931 0.500015 -0.022805
C34   C     C_R   0.951909 0.499839 0.499960 0.116696
C35   C     C_R   0.768048 0.499930 0.499992 -0.022826
C36   C     C_R   0.432985 0.105237 0.437591 -0.287923
C37   C     C_R   0.534602 0.894866 0.602296 -0.287387
C38   C     C_R   0.567014 0.105244 0.562411 -0.287916
C39   C     C_R   0.465398 0.894855 0.397705 -0.287401
C40   C     C_R   0.434491 0.204659 0.438307 0.014447
H1    H     H_    0.547129 0.173387 0.095346 0.135890
H2    H     H_    0.941035 0.358949 0.580034 0.130085
H3    H     H_    0.941202 0.640709 0.419802 0.131211
H4    H     H_    0.058965 0.358987 0.419823 0.130084
H5    H     H_    0.221026 0.641413 0.578612 0.150727
H6    H     H_    0.778820 0.358346 0.578285 0.145949
H7    H     H_    0.778978 0.641445 0.421542 0.150749
H8    H     H_    0.221181 0.358380 0.421577 0.145935
H9    H     H_    0.378857 0.069612 0.389906 0.133782
H10   H     H_    0.560610 0.930467 0.684619 0.131698
H11   H     H_    0.621142 0.069624 0.610097 0.133779
H12   H     H_    0.452347 0.826204 0.905112 0.134170
H13   H     H_    0.439391 0.930448 0.315382 0.131703
H14   H     H_    0.382897 0.243744 0.389821 0.127880
H15   H     H_    0.562039 0.756557 0.678465 0.143762
H16   H     H_    0.617103 0.243756 0.610180 0.127875
H17   H     H_    0.437964 0.756539 0.321532 0.143776
H18   H     H_    0.452541 0.173441 0.904556 0.135895
H19   H     H_    0.547900 0.826155 0.094969 0.134184
H20   H     H_    0.591971 0.676637 0.192580 0.148421
H21   H     H_    0.408696 0.322861 0.806768 0.152187
H22   H     H_    0.408151 0.676735 0.807457 0.148439
H23   H     H_    0.591128 0.322754 0.193158 0.152226
H24   H     H_    0.058801 0.640673 0.580372 0.131208
N1    N     N_R   0.500000 0.252470 0.500000 -0.096840
N2    N     N_R   0.500000 0.747530 0.500000 -0.096310
O1    O     O_R   0.369060 0.579480 0.500010 -0.623513
O2    O     O_R   0.630940 0.420520 0.499990 -0.634341
O3    O     O_R   0.630940 0.579480 0.499990 -0.623525
O4    O     O_R   0.369060 0.420520 0.500010 -0.634347
O5    O     O_R   0.499990 0.579480 0.316780 -0.625717
O6    O     O_R   0.500010 0.420520 0.683220 -0.616933
O7    O     O_R   0.500010 0.579480 0.683220 -0.625731
O8    O     O_R   0.499990 0.420520 0.316780 -0.616966
Zn1   Zn    Zn3+2 0.500000 0.606140 0.500000 0.932649
Zn2   Zn    Zn3+2 0.500000 0.393860 0.500000 0.931479

loop_
_geom_bond_atom_site_label_1
_geom_bond_atom_site_label_2
_ccdc_geom_bond_type
C4    N2    A    
C12   O3    A    
C11   C18   A    
C32   H8    S    
O6    Zn2   S    
C11   H22   S    
C1    C33   S    
C14   H19   S    
C12   O2    A    
N1    Zn2   S    
O8    Zn2   S    
C30   C35   A    
C19   C21   A    
C2    H15   S    
C7    O5    A    
C5    C6    S    
C7    C24   S    
C5    C36   A    
C29   C33   A    
C3    H16   S    
C26   C34   A    
C20   C24   A    
C3    C38   A    
C4    H17   S    
C8    C22   S    
C27   C34   A    
C31   H7    S    
C5    C38   A    
O7    Zn1   S    
C3    N1    A    
C7    O8    A    
C10   C21   A    
C25   C29   A    
C8    O6    A    
C13   C19   A    
C27   C31   A    
C36   C40   A    
C38   H11   S    
C28   H4    S    
C29   H5    S    
C25   H24   S    
C9    C14   A    
C11   C16   A    
C9    C20   A    
C13   H23   S    
C4    C39   A    
C28   C32   A    
C23   C34   S    
C6    C37   A    
C23   C28   A    
C12   C35   S    
C26   C30   A    
C40   H14   S    
C40   N1    A    
O4    Zn2   S    
C15   H18   S    
C14   C16   A    
C10   H21   S    
O1    Zn1   S    
C26   H2    S    
C15   C17   A    
C18   C22   A    
C30   H6    S    
C16   H12   S    
C2    N2    A    
O2    Zn2   S    
C1    O4    A    
C13   C17   A    
C10   C15   A    
C9    H20   S    
C32   C33   A    
C19   C24   A    
O5    Zn1   S    
C37   H10   S    
C2    C37   A    
C39   H13   S    
N2    Zn1   S    
C31   C35   A    
C8    O7    A    
C1    O1    A    
O3    Zn1   S    
C18   C20   A    
C23   C25   A    
C17   H1    S    
C27   H3    S    
C6    C39   A    
C21   C22   A    
C36   H9    S    
