data_mof_unit_24849.cif
_audit_creation_date              2012-12-11T14:40:05-0500
_audit_creation_method            fapswitch 2.2
_symmetry_space_group_name_H-M    P1
_symmetry_Int_Tables_number       1
_space_group_crystal_system       triclinic
_cell_length_a                    19.650287
_cell_length_b                    10.906425
_cell_length_c                    19.443849
_cell_angle_alpha                 90.324935
_cell_angle_beta                  97.633677
_cell_angle_gamma                 90.022418
_cell_volume                      4130.09695639

loop_
_atom_site_label
_atom_site_type_symbol
_atom_type_description
_atom_site_fract_x
_atom_site_fract_y
_atom_site_fract_z
_atom_type_partial_charge
C1    C     C_R   0.707179 0.002232 0.366402 0.561903
C2    C     C_R   0.293542 0.002545 0.634309 0.587862
C3    C     C_R   0.207179 0.502232 0.366402 0.561903
C4    C     C_R   0.793542 0.502545 0.634309 0.587862
C5    C     C_3   0.790895 0.337820 0.486003 -0.127294
C6    C     C_3   0.274754 0.347546 0.512000 -0.142794
C7    C     C_3   0.290895 0.837820 0.486003 -0.127295
C8    C     C_3   0.774754 0.847547 0.512000 -0.142794
C9    C     C_3   0.751943 0.420028 0.429808 0.026678
C10   C     C_3   0.248106 0.419635 0.571258 0.036512
C11   C     C_3   0.251943 0.920028 0.429808 0.026678
C12   C     C_3   0.748106 0.919635 0.571258 0.036511
C13   C     C_3   0.697537 0.446631 0.477187 0.274711
C14   C     C_3   0.271591 0.539597 0.542317 0.300580
C15   C     C_3   0.197537 0.946630 0.477188 0.274711
C16   C     C_3   0.771591 0.039598 0.542317 0.300579
C17   C     C_3   0.737920 0.560272 0.505754 -0.183495
C18   C     C_3   0.198823 0.553314 0.499979 -0.128738
C19   C     C_3   0.237920 0.060272 0.505754 -0.183495
C20   C     C_3   0.698822 0.053313 0.499979 -0.128738
C21   C     C_3   0.793483 0.533171 0.457282 -0.182525
C22   C     C_3   0.176317 0.431002 0.529974 -0.166204
C23   C     C_3   0.293482 0.033172 0.457282 -0.182525
C24   C     C_3   0.676317 0.931002 0.529974 -0.166204
C25   C     C_3   0.833151 0.451163 0.513969 -0.199659
C26   C     C_3   0.202260 0.358131 0.470479 -0.175439
C27   C     C_3   0.333151 0.951164 0.513969 -0.199660
C28   C     C_3   0.702260 0.858131 0.470479 -0.175439
C29   C     C_3   0.777812 0.477372 0.560776 0.016207
C30   C     C_3   0.224165 0.478760 0.440579 0.008137
C31   C     C_3   0.277812 0.977372 0.560776 0.016207
C32   C     C_3   0.724165 0.978760 0.440579 0.008137
C33   C     C_3   0.506945 0.266492 0.977698 0.417662
C34   C     C_3   0.458197 0.276775 0.032438 0.398562
C35   C     C_3   0.006945 0.766492 0.977698 0.417661
C36   C     C_3   0.958197 0.776775 0.032438 0.398562
C37   C     C_3   0.544032 0.159370 0.016369 0.353816
C38   C     C_3   0.408990 0.184315 0.992414 0.289862
C39   C     C_3   0.044031 0.659370 0.016369 0.353816
C40   C     C_3   0.908990 0.684315 0.992414 0.289862
C41   C     C_3   0.495521 0.169924 0.071814 -0.046671
C42   C     C_3   0.457686 0.174497 0.937274 -0.056871
C43   C     C_3   0.995521 0.669924 0.071814 -0.046671
C44   C     C_3   0.957686 0.674497 0.937274 -0.056871
C45   C     C_R   0.535044 0.180060 0.337839 0.535469
C46   C     C_R   0.464669 0.179775 0.661929 0.557312
C47   C     C_R   0.035044 0.680060 0.337839 0.535469
C48   C     C_R   0.964669 0.679775 0.661929 0.557312
C49   C     C_3   0.446130 0.075783 0.032590 -0.222292
C50   C     C_3   0.495243 0.065527 0.976043 -0.192263
C51   C     C_3   0.946130 0.575783 0.032590 -0.222292
C52   C     C_3   0.995243 0.565527 0.976043 -0.192263
C53   C     C_1   0.779938 0.470409 0.914021 0.079404
C54   C     C_1   0.235623 0.428271 0.094694 0.075135
C55   C     C_1   0.279938 0.970409 0.914021 0.079403
C56   C     C_1   0.735623 0.928271 0.094694 0.075135
C57   C     C_1   0.756731 0.434039 0.041194 0.034003
C58   C     C_1   0.250242 0.415160 0.963776 0.089921
C59   C     C_1   0.256731 0.934039 0.041194 0.034003
C60   C     C_1   0.750242 0.915160 0.963776 0.089921
C61   C     C_1   0.768680 0.453981 0.972507 0.060640
C62   C     C_1   0.243551 0.420791 0.034677 0.088648
C63   C     C_1   0.268680 0.953981 0.972507 0.060640
C64   C     C_1   0.743551 0.920791 0.034677 0.088648
C65   C     C_1   0.747206 0.408797 0.099192 0.047753
C66   C     C_1   0.255884 0.400618 0.903580 0.080497
C67   C     C_1   0.247206 0.908797 0.099192 0.047753
C68   C     C_1   0.755884 0.900618 0.903580 0.080497
C69   C     C_R   0.740327 0.367442 0.360466 0.538234
C70   C     C_R   0.259569 0.367453 0.639987 0.569384
C71   C     C_R   0.240327 0.867442 0.360466 0.538234
C72   C     C_R   0.759569 0.867453 0.639987 0.569384
C73   C     C_R   0.721600 0.953013 0.163411 0.575297
C74   C     C_R   0.294401 0.995521 0.845471 0.568232
C75   C     C_R   0.221600 0.453013 0.163411 0.575296
C76   C     C_R   0.794401 0.495521 0.845471 0.568232
C77   C     C_R   0.527400 0.178381 0.142835 0.598419
C78   C     C_R   0.436648 0.182838 0.863013 0.589717
C79   C     C_R   0.027400 0.678381 0.142835 0.598419
C80   C     C_R   0.936648 0.682838 0.863013 0.589717
C81   C     C_R   0.736451 0.362081 0.165268 0.559296
C82   C     C_R   0.263711 0.362195 0.834978 0.561150
C83   C     C_R   0.236450 0.862081 0.165268 0.559296
C84   C     C_R   0.763711 0.862195 0.834978 0.561150
C85   C     C_1   0.485182 0.171151 0.594463 -0.008919
C86   C     C_1   0.513290 0.171768 0.404735 0.005795
C87   C     C_1   0.985182 0.671151 0.594463 -0.008919
C88   C     C_1   0.013290 0.671768 0.404735 0.005795
C89   C     C_1   0.502938 0.167450 0.464150 -0.047597
C90   C     C_1   0.494724 0.167224 0.534777 -0.055683
C91   C     C_1   0.002937 0.667450 0.464150 -0.047597
C92   C     C_1   0.994724 0.667224 0.534777 -0.055683
C93   C     C_3   0.735790 0.366168 0.532844 0.408309
C94   C     C_3   0.296421 0.468543 0.481886 0.346948
C95   C     C_3   0.235790 0.866168 0.532844 0.408308
C96   C     C_3   0.796421 0.968544 0.481886 0.346947
Cr1   Cr    Cr6+3 0.765830 0.160660 0.268180 1.079570
Cr2   Cr    Cr6+3 0.234170 0.160660 0.731820 1.042534
Cr3   Cr    Cr6+3 0.265830 0.660660 0.268180 1.079570
Cr4   Cr    Cr6+3 0.734170 0.660660 0.731820 1.042535
Cr5   Cr    Cr6+3 0.612110 0.009150 0.248770 1.048979
Cr6   Cr    Cr6+3 0.387890 0.009150 0.751230 1.033242
Cr7   Cr    Cr6+3 0.112110 0.509150 0.248770 1.048979
Cr8   Cr    Cr6+3 0.887890 0.509150 0.751230 1.033241
Cr9   Cr    Cr6+3 0.615930 0.324050 0.248450 1.106601
Cr10  Cr    Cr6+3 0.384070 0.324050 0.751550 1.040806
Cr11  Cr    Cr6+3 0.115930 0.824050 0.248450 1.106601
Cr12  Cr    Cr6+3 0.884070 0.824050 0.751550 1.040805
H1    H     H_    0.810862 0.247382 0.472700 0.153809
H2    H     H_    0.309952 0.268020 0.519851 0.119666
H3    H     H_    0.310862 0.747382 0.472699 0.153808
H4    H     H_    0.809952 0.768020 0.519851 0.119666
H5    H     H_    0.211520 0.142173 0.522004 0.122900
H6    H     H_    0.666100 0.135753 0.490178 0.169353
H7    H     H_    0.711521 0.642173 0.522004 0.122900
H8    H     H_    0.166100 0.635754 0.490178 0.169353
H9    H     H_    0.816334 0.600864 0.424574 0.147407
H10   H     H_    0.127250 0.415204 0.551061 0.142515
H11   H     H_    0.316333 0.100865 0.424574 0.147407
H12   H     H_    0.627250 0.915204 0.551061 0.142515
H13   H     H_    0.889316 0.452691 0.531181 0.125368
H14   H     H_    0.173151 0.284420 0.439780 0.158049
H15   H     H_    0.389316 0.952693 0.531181 0.125368
H16   H     H_    0.673151 0.784419 0.439780 0.158050
H17   H     H_    0.420762 0.999003 0.056516 0.153547
H18   H     H_    0.511360 0.979612 0.951956 0.174809
H19   H     H_    0.920763 0.499003 0.056516 0.153547
H20   H     H_    0.011360 0.479612 0.951956 0.174809
O1    O     O_R   0.783230 0.287800 0.346510 -0.537518
O2    O     O_R   0.216770 0.287800 0.653490 -0.539909
O3    O     O_R   0.283230 0.787800 0.346510 -0.537518
O4    O     O_R   0.716770 0.787800 0.653490 -0.539908
O5    O     O_R   0.554500 0.081650 0.170370 -0.486401
O6    O     O_R   0.445500 0.081650 0.829630 -0.512941
O7    O     O_R   0.054500 0.581650 0.170370 -0.486401
O8    O     O_R   0.945500 0.581650 0.829630 -0.512941
O9    O     O_R   0.545430 0.285140 0.163100 -0.446386
O10   O     O_R   0.454570 0.285140 0.836900 -0.428442
O11   O     O_R   0.045430 0.785140 0.163100 -0.446386
O12   O     O_R   0.954570 0.785140 0.836900 -0.428442
O13   O     O_R   0.677850 0.374730 0.185500 -0.474496
O14   O     O_R   0.322150 0.374730 0.814500 -0.496717
O15   O     O_R   0.177850 0.874730 0.185500 -0.474496
O16   O     O_R   0.822150 0.874730 0.814500 -0.496718
O17   O     O_3   0.664630 0.164620 0.255130 -0.297131
O18   O     O_3   0.335370 0.164620 0.744870 -0.334992
O19   O     O_3   0.164630 0.664620 0.255130 -0.297131
O20   O     O_3   0.835370 0.664620 0.744870 -0.334992
O21   O     O_R   0.760130 0.037060 0.338610 -0.440856
O22   O     O_R   0.239870 0.037060 0.661390 -0.474836
O23   O     O_R   0.260130 0.537060 0.338610 -0.440856
O24   O     O_R   0.739870 0.537060 0.661390 -0.474836
O25   O     O_R   0.666620 0.921370 0.332440 -0.519169
O26   O     O_R   0.333380 0.921370 0.667560 -0.475402
O27   O     O_R   0.166620 0.421370 0.332440 -0.519169
O28   O     O_R   0.833380 0.421370 0.667560 -0.475402
O29   O     O_R   0.557170 0.082420 0.312350 -0.529691
O30   O     O_R   0.442830 0.082420 0.687650 -0.519975
O31   O     O_R   0.057170 0.582420 0.312350 -0.529691
O32   O     O_R   0.942830 0.582420 0.687650 -0.519975
O33   O     O_R   0.548310 0.285980 0.316250 -0.483007
O34   O     O_R   0.451690 0.285980 0.683750 -0.525011
O35   O     O_R   0.048310 0.785980 0.316250 -0.483007
O36   O     O_R   0.951690 0.785980 0.683750 -0.525011
O37   O     O_R   0.680520 0.375500 0.327470 -0.467753
O38   O     O_R   0.319480 0.375500 0.672530 -0.518719
O39   O     O_R   0.180520 0.875500 0.327470 -0.467753
O40   O     O_R   0.819480 0.875500 0.672530 -0.518720
O41   O     O_R   0.780350 0.286970 0.193350 -0.509080
O42   O     O_R   0.219650 0.286970 0.806650 -0.508071
O43   O     O_R   0.280350 0.786970 0.193350 -0.509080
O44   O     O_R   0.719650 0.786970 0.806650 -0.508070
O45   O     O_R   0.757460 0.036290 0.196640 -0.476958
O46   O     O_R   0.242540 0.036290 0.803360 -0.464705
O47   O     O_R   0.257460 0.536290 0.196640 -0.476958
O48   O     O_R   0.742540 0.536290 0.803360 -0.464705
O49   O     O_R   0.663740 0.920540 0.179290 -0.491478
O50   O     O_R   0.336260 0.920540 0.820710 -0.498470
O51   O     O_R   0.163740 0.420540 0.179290 -0.491478
O52   O     O_R   0.836260 0.420540 0.820710 -0.498470
F1    F     F_    0.704734 0.290529 0.576218 -0.609444
F2    F     F_    0.356053 0.481957 0.452246 -0.678366
F3    F     F_    0.204734 0.790529 0.576218 -0.609444
F4    F     F_    0.856053 0.981958 0.452246 -0.678367
O53   O     O_3   0.627143 0.444887 0.451167 -0.548542
C97   C     C_3   0.587507 0.462466 0.505705 0.009605
H21   H     H_    0.608786 0.534708 0.543340 0.131837
H22   H     H_    0.584827 0.375168 0.534320 0.186215
C98   C     C_3   0.514772 0.498744 0.475159 -0.221211
H23   H     H_    0.495182 0.434329 0.432648 0.229815
H24   H     H_    0.480805 0.491367 0.516084 0.154385
C99   C     C_3   0.512118 0.629424 0.447010 -0.396440
H25   H     H_    0.530126 0.695918 0.488992 0.114670
H26   H     H_    0.458469 0.652729 0.425712 0.181279
H27   H     H_    0.544861 0.637669 0.404882 0.189695
O54   O     O_3   0.302167 0.629214 0.589941 -0.497005
C100  C     C_3   0.373229 0.647187 0.587622 -0.001009
H28   H     H_    0.384279 0.745004 0.600234 0.178349
H29   H     H_    0.389344 0.632532 0.535870 0.153564
C101  C     C_3   0.416854 0.569757 0.641714 -0.245575
H30   H     H_    0.393187 0.568240 0.690518 0.213655
H31   H     H_    0.419106 0.475585 0.620614 0.194576
C102  C     C_3   0.489801 0.619997 0.658448 -0.473110
H32   H     H_    0.514263 0.630006 0.610605 0.129763
H33   H     H_    0.521135 0.556203 0.693966 0.178851
H34   H     H_    0.488981 0.710916 0.684374 0.156595
O55   O     O_3   0.127143 0.944886 0.451167 -0.548544
C103  C     C_3   0.087507 0.962464 0.505705 0.009604
H35   H     H_    0.108786 0.034707 0.543340 0.131837
H36   H     H_    0.084828 0.875166 0.534321 0.186215
C104  C     C_3   0.014772 0.998741 0.475159 -0.221210
H37   H     H_    0.995183 0.934329 0.432646 0.229816
H38   H     H_    0.980804 0.991359 0.516083 0.154388
C105  C     C_3   0.012117 0.129424 0.447014 -0.396444
H39   H     H_    0.030118 0.195916 0.489000 0.114667
H40   H     H_    0.958467 0.152727 0.425710 0.181284
H41   H     H_    0.044865 0.137676 0.404891 0.189693
O56   O     O_3   0.802167 0.129215 0.589940 -0.497006
C106  C     C_3   0.873229 0.147187 0.587622 -0.001011
H42   H     H_    0.884279 0.245005 0.600233 0.178348
H43   H     H_    0.889344 0.132530 0.535871 0.153566
C107  C     C_3   0.916853 0.069759 0.641716 -0.245575
H44   H     H_    0.893185 0.068245 0.690519 0.213654
H45   H     H_    0.919105 0.975586 0.620618 0.194578
C108  C     C_3   0.989800 0.119998 0.658451 -0.473109
H46   H     H_    0.014264 0.129995 0.610608 0.129764
H47   H     H_    0.021132 0.056210 0.693973 0.178851
H48   H     H_    0.988980 0.210922 0.684370 0.156594
F5    F     F_    0.614616 0.147176 0.029920 -0.610060
F6    F     F_    0.338856 0.199008 0.979175 -0.664118
F7    F     F_    0.114616 0.647176 0.029920 -0.610060
F8    F     F_    0.838856 0.699008 0.979175 -0.664118
F9    F     F_    0.539537 0.364006 0.950635 -0.551164
F10   F     F_    0.438193 0.384504 0.061771 -0.573454
F11   F     F_    0.039537 0.864006 0.950635 -0.551164
F12   F     F_    0.938193 0.884504 0.061771 -0.573454

loop_
_geom_bond_atom_site_label_1
_geom_bond_atom_site_label_2
_ccdc_geom_bond_type
C58   C62   S    
C79   O11   A    
C102  H32   S    
C82   O42   A    
C67   C83   S    
C3    C30   S    
C17   C29   S    
C9    C21   S    
C14   C18   S    
C7    C27   S    
C19   C23   S    
C35   C36   S    
C8    C96   S    
Cr12  O16   S    
C82   O14   A    
C19   C31   S    
Cr6   O30   S    
C52   H20   S    
Cr7   O19   S    
C38   F6    S    
C38   C49   S    
C47   O31   A    
Cr4   O24   S    
C37   F5    S    
Cr12  O36   S    
Cr5   O17   S    
C57   C61   S    
C77   O5    A    
C2    O22   A    
C33   C42   S    
Cr10  O38   S    
C102  H33   S    
Cr9   O9    S    
C9    C69   S    
C74   O46   A    
C93   F1    S    
C8    H4    S    
C15   C95   S    
Cr2   O46   S    
C11   C71   S    
Cr10  O10   S    
Cr3   O43   S    
C83   O43   A    
C19   H5    S    
C43   C79   S    
C46   O30   A    
C70   O2    A    
C108  H48   S    
Cr1   O41   S    
C98   H24   S    
C73   O49   A    
C100  H29   S    
C9    C13   S    
C36   C40   S    
C21   H9    S    
C59   C67   T    
C43   C51   S    
C15   C19   S    
C55   C74   S    
C53   C61   T    
C58   C66   T    
C12   C16   S    
C98   C99   S    
Cr9   O37   S    
C101  H30   S    
C6    C94   S    
C55   C63   T    
Cr4   O48   S    
C56   C64   T    
C16   O56   S    
C50   H18   S    
C47   C88   S    
C81   O41   A    
C40   F8    S    
C75   O51   A    
C39   F7    S    
Cr6   O26   S    
C103  C104  S    
C4    C29   S    
C16   C20   S    
C46   C85   S    
C47   O35   A    
C44   C52   S    
C81   O13   A    
C39   C52   S    
Cr12  O40   S    
Cr5   O29   S    
C2    O26   A    
C18   C22   S    
C87   C92   T    
C73   O45   A    
C72   O40   A    
C98   H23   S    
C34   C41   S    
C11   C15   S    
Cr8   O32   S    
C78   O10   A    
C45   O33   A    
C41   C49   S    
C29   C93   S    
C72   O4    A    
Cr7   O31   S    
C25   C29   S    
C4    O24   A    
C102  H34   S    
Cr11  O39   S    
C89   C90   S    
C16   C96   S    
C13   O53   S    
C24   H12   S    
C27   C31   S    
O55   C103  S    
C68   C84   S    
C99   H27   S    
C20   C24   S    
C28   C32   S    
C76   O48   A    
C45   O29   A    
C10   C14   S    
C18   H8    S    
C91   C92   S    
Cr12  O12   S    
C27   H15   S    
C105  H39   S    
C103  H35   S    
C39   C43   S    
Cr2   O18   S    
C107  C108  S    
C76   O52   A    
Cr5   O25   S    
C80   O12   A    
Cr3   O23   S    
Cr3   O3    S    
C105  H41   S    
C1    C32   S    
C10   C22   S    
C51   C52   S    
C13   C93   S    
C2    C31   S    
C99   H26   S    
C6    H2    S    
C100  C101  S    
C35   C39   S    
Cr6   O6    S    
C5    C9    S    
C33   F9    S    
C106  H43   S    
Cr11  O11   S    
Cr11  O19   S    
C65   C81   S    
C104  H37   S    
C74   O50   A    
C88   C91   T    
C44   C80   S    
C8    C12   S    
C104  H38   S    
Cr9   O17   S    
Cr2   O2    S    
C3    O27   A    
C33   C34   S    
C36   C43   S    
C48   C87   S    
Cr8   O28   S    
C1    O21   A    
C35   C44   S    
C78   O6    A    
C42   C50   S    
C18   C30   S    
C10   C70   S    
Cr7   O27   S    
C4    O28   A    
Cr11  O35   S    
C26   C30   S    
Cr2   O22   S    
C23   C27   S    
C25   H13   S    
C96   F4    S    
Cr6   O50   S    
C5    C25   S    
C59   C63   S    
C85   C90   T    
C53   C76   S    
C35   F11   S    
C97   H22   S    
C34   F10   S    
C106  H42   S    
C49   H17   S    
Cr4   O44   S    
C17   H7    S    
C33   C37   S    
C20   C32   S    
C22   H10   S    
C75   O47   A    
C21   C25   S    
C107  H45   S    
Cr10  O14   S    
Cr1   O21   S    
C56   C73   S    
Cr8   O8    S    
C108  H46   S    
C34   C38   S    
Cr1   O17   S    
O56   C106  S    
Cr8   O52   S    
C24   C28   S    
C77   O9    A    
O54   C100  S    
C84   O44   A    
C86   C89   T    
C80   O8    A    
C6    C10   S    
C5    C93   S    
C7    C95   S    
C28   H16   S    
C42   C78   S    
C48   O36   A    
Cr5   O5    S    
C36   F12   S    
C40   C51   S    
C79   O7    A    
C12   C24   S    
C3    O23   A    
C83   O15   A    
Cr10  O18   S    
C13   C17   S    
Cr7   O7    S    
C60   C64   S    
C51   H19   S    
C99   H25   S    
C48   O32   A    
C97   C98   S    
C70   O38   A    
C45   C86   S    
C14   O54   S    
C105  H40   S    
Cr3   O19   S    
Cr8   O20   S    
C32   C96   S    
C103  H36   S    
Cr4   O4    S    
Cr6   O18   S    
C106  C107  S    
C41   C77   S    
C37   C50   S    
C95   F3    S    
O53   C97   S    
C6    C26   S    
C5    H1    S    
Cr4   O20   S    
C101  C102  S    
C8    C28   S    
C11   C23   S    
C108  H47   S    
C7    H3    S    
Cr7   O51   S    
Cr10  O34   S    
C37   C41   S    
C100  H28   S    
C12   C72   S    
Cr9   O13   S    
C69   O37   A    
C1    O25   A    
Cr1   O45   S    
Cr5   O49   S    
C31   C95   S    
Cr1   O1    S    
C54   C75   S    
Cr2   O42   S    
C38   C42   S    
C40   C44   S    
C104  C105  S    
Cr3   O47   S    
C23   H11   S    
C60   C68   T    
C71   O3    A    
C69   O1    A    
C49   C50   S    
C22   C26   S    
C30   C94   S    
C84   O16   A    
C54   C62   T    
Cr9   O33   S    
C71   O39   A    
C26   H14   S    
Cr12  O20   S    
C97   H21   S    
C20   H6    S    
C94   F2    S    
Cr11  O15   S    
C107  H44   S    
C14   C94   S    
C101  H31   S    
C15   O55   S    
C66   C82   S    
C7    C11   S    
C46   O34   A    
C57   C65   T    
C17   C21   S    
