data_mof_unit_39522.cif
_audit_creation_date              2012-12-10T17:43:16-0500
_audit_creation_method            fapswitch 2.2
_symmetry_space_group_name_H-M    P1
_symmetry_Int_Tables_number       1
_space_group_crystal_system       triclinic
_cell_length_a                    15.154048
_cell_length_b                    13.952702
_cell_length_c                    10.79787
_cell_angle_alpha                 92.031878
_cell_angle_beta                  85.539093
_cell_angle_gamma                 90.010492
_cell_volume                      2274.74564354

loop_
_atom_site_label
_atom_site_type_symbol
_atom_type_description
_atom_site_fract_x
_atom_site_fract_y
_atom_site_fract_z
_atom_type_partial_charge
C1    C     C_R   0.329197 0.499625 0.500603 0.885849
C2    C     C_R   0.670843 0.500700 0.501006 0.858963
C3    C     C_R   0.953650 0.517420 0.504865 -0.007553
C4    C     C_R   0.047066 0.513318 0.503850 -0.017955
C5    C     C_R   0.913719 0.488804 0.396360 -0.052226
C6    C     C_R   0.088882 0.542521 0.610885 0.000668
C7    C     C_R   0.944925 0.593559 0.712649 -0.086786
C8    C     C_R   0.056552 0.465095 0.283117 -0.096489
C9    C     C_R   0.038700 0.589109 0.711517 0.415422
C10   C     C_R   0.966340 0.482598 0.283414 0.462570
C11   C     C_R   0.437999 0.796045 0.574757 0.109147
C12   C     C_R   0.558167 0.201310 0.422897 0.102227
C13   C     C_R   0.567083 0.792736 0.434786 0.118051
C14   C     C_R   0.437800 0.208909 0.576544 0.121565
C15   C     C_R   0.569555 0.895872 0.435999 -0.180007
C16   C     C_R   0.437518 0.105695 0.583260 -0.157843
C17   C     C_R   0.440315 0.898935 0.584662 -0.159427
C18   C     C_R   0.567667 0.101120 0.438698 -0.169481
C19   C     C_R   0.504205 0.948782 0.510552 -0.041867
C20   C     C_R   0.503455 0.051851 0.511912 -0.046773
C21   C     C_R   0.636737 0.948394 0.367547 0.408774
C22   C     C_R   0.374890 0.054483 0.660771 0.364808
C23   C     C_R   0.381629 0.953899 0.668838 0.382314
C24   C     C_R   0.639707 0.048706 0.379140 0.401972
C25   C     C_R   0.503071 0.498739 0.259062 1.003430
C26   C     C_R   0.498166 0.501290 0.740595 0.996222
C27   C     C_3   0.436755 0.554314 0.054208 0.423903
C28   C     C_3   0.566034 0.446498 0.944284 0.446889
C29   C     C_3   0.512104 0.590434 0.964477 0.461177
C30   C     C_3   0.491037 0.410191 0.033736 0.404173
C31   C     C_3   0.421065 0.465929 0.967915 -0.405342
C32   C     C_3   0.581869 0.534566 0.031033 -0.395738
C33   C     C_3   0.497696 0.502844 0.877647 -0.184385
C34   C     C_3   0.505035 0.497427 0.121284 -0.206147
C35   C     C_R   0.821963 0.475535 0.398452 -0.098233
C36   C     C_R   0.181248 0.528081 0.613079 -0.042842
C37   C     C_R   0.767986 0.505500 0.503856 -0.192831
C38   C     C_R   0.232031 0.498742 0.503830 -0.199895
C39   C     C_R   0.806193 0.554473 0.603834 -0.016206
C40   C     C_R   0.189699 0.460460 0.402298 -0.034056
C41   C     C_R   0.900662 0.554431 0.610022 -0.057974
C42   C     C_R   0.098223 0.476895 0.395963 -0.073027
Cu1   Cu    Cu3+1 0.500000 0.597420 0.500000 1.054985
Cu2   Cu    Cu3+1 0.500000 0.402580 0.500000 1.042841
H1    H     H_    0.356491 0.438285 0.941654 0.213512
H2    H     H_    0.647351 0.560498 0.056388 0.210046
N1    N     N_R   0.500000 0.743810 0.500000 -0.288676
N2    N     N_R   0.500000 0.256190 0.500000 -0.282053
O1    O     O_R   0.370260 0.582280 0.500030 -0.566635
O2    O     O_R   0.629740 0.417720 0.499970 -0.555555
O3    O     O_R   0.629740 0.582280 0.499970 -0.592784
O4    O     O_R   0.370260 0.417720 0.500030 -0.593758
O5    O     O_R   0.499980 0.582260 0.316850 -0.556134
O6    O     O_R   0.500020 0.417740 0.683150 -0.574955
O7    O     O_R   0.500020 0.582260 0.683150 -0.534195
O8    O     O_R   0.499980 0.417740 0.316850 -0.546748
O9    O     O_3   0.371949 0.610207 0.124590 -0.550365
C43   C     C_3   0.317675 0.655441 0.044491 -0.132387
H3    H     H_    0.287194 0.602642 0.981876 0.205238
H4    H     H_    0.355077 0.710283 0.990371 0.195714
H5    H     H_    0.263165 0.692788 0.101404 0.170898
O10   O     O_3   0.629359 0.387351 0.876111 -0.558308
C44   C     C_3   0.698897 0.368001 0.950372 -0.205078
H6    H     H_    0.674055 0.347390 0.045044 0.172845
H7    H     H_    0.743166 0.431056 0.956252 0.235701
H8    H     H_    0.738489 0.307243 0.906586 0.173007
O11   O     O_3   0.519275 0.683038 0.916499 -0.539496
C45   C     C_3   0.555530 0.745633 0.003564 -0.290107
H9    H     H_    0.625961 0.727415 0.013227 0.182933
H10   H     H_    0.516166 0.746148 0.095025 0.209073
H11   H     H_    0.554460 0.819265 0.968639 0.151579
O12   O     O_3   0.485294 0.316238 0.077403 -0.575528
C46   C     C_3   0.454440 0.253781 0.985195 -0.197400
H12   H     H_    0.494556 0.258897 0.894890 0.203413
H13   H     H_    0.383265 0.267274 0.974390 0.197985
H14   H     H_    0.460192 0.179038 0.015365 0.188650
C47   C     C_2   0.784355 0.431118 0.287849 0.981893
O13   O     O_2   0.725713 0.471738 0.238230 -0.640529
O14   O     O_R   0.821030 0.345213 0.236434 -0.713357
H15   H     H_    0.794274 0.322986 0.157513 0.334714
C48   C     C_2   0.219726 0.512534 0.732630 0.838758
O15   O     O_2   0.290074 0.548847 0.755326 -0.616961
O16   O     O_R   0.178099 0.449025 0.815056 -0.784836
H16   H     H_    0.213106 0.439530 0.889646 0.337241
C49   C     C_2   0.745399 0.610961 0.692527 0.895073
O17   O     O_2   0.691828 0.569914 0.762327 -0.591704
O18   O     O_R   0.747160 0.711106 0.692139 -0.703119
H17   H     H_    0.701523 0.741561 0.755148 0.338967
C50   C     C_2   0.237464 0.388982 0.317085 0.908338
O19   O     O_2   0.207544 0.307967 0.305853 -0.564090
O20   O     O_R   0.315241 0.414152 0.248802 -0.729350
H18   H     H_    0.339255 0.359070 0.192748 0.355806
C51   C     C_2   0.895477 0.638818 0.822701 0.845598
O21   O     O_2   0.901640 0.725097 0.844248 -0.551466
O22   O     O_R   0.840900 0.582370 0.900705 -0.770951
H19   H     H_    0.801086 0.622188 0.962409 0.320107
C52   C     C_2   0.103640 0.443161 0.160335 0.893047
O23   O     O_2   0.168165 0.489906 0.124202 -0.643658
O24   O     O_R   0.071644 0.369329 0.085265 -0.694731
H20   H     H_    0.110311 0.356246 0.005953 0.345803
O25   O     O_3   0.083710 0.646503 0.793669 -0.589456
C53   C     C_3   0.070525 0.616406 0.917213 -0.193397
H21   H     H_    0.035105 0.546753 0.928104 0.199920
H22   H     H_    0.034984 0.673642 0.974518 0.180124
H23   H     H_    0.135802 0.609427 0.954902 0.198080
O26   O     O_3   0.932947 0.511113 0.174558 -0.559419
C54   C     C_3   0.922172 0.612009 0.184335 -0.314645
H24   H     H_    0.983684 0.649036 0.210126 0.157047
H25   H     H_    0.865586 0.632927 0.251582 0.195741
H26   H     H_    0.907354 0.638897 0.093865 0.204443
C55   C     C_2   0.365791 0.745778 0.643005 1.017929
O27   O     O_2   0.377649 0.712541 0.743326 -0.546193
O28   O     O_R   0.281230 0.747145 0.599807 -0.740275
H27   H     H_    0.234751 0.719285 0.660681 0.362559
C56   C     C_2   0.594851 0.237732 0.303535 0.992608
O29   O     O_2   0.638453 0.310401 0.299932 -0.579143
O30   O     O_R   0.585305 0.182560 0.194644 -0.756488
H28   H     H_    0.621961 0.206953 0.120036 0.334371
C57   C     C_2   0.642141 0.738685 0.371837 0.992938
O31   O     O_2   0.713033 0.738325 0.418952 -0.548084
O32   O     O_R   0.634927 0.694639 0.255303 -0.796360
H29   H     H_    0.692795 0.664585 0.220006 0.320738
C58   C     C_2   0.362901 0.263896 0.638195 0.989213
O33   O     O_2   0.368570 0.302305 0.740498 -0.629626
O34   O     O_R   0.282888 0.265839 0.581916 -0.752208
H30   H     H_    0.235015 0.303059 0.633906 0.335179
O35   O     O_3   0.703292 0.902849 0.292419 -0.548822
C59   C     C_3   0.686005 0.912302 0.166803 -0.225146
H31   H     H_    0.704526 0.984799 0.134497 0.214715
H32   H     H_    0.615504 0.897563 0.150899 0.116017
H33   H     H_    0.727229 0.859370 0.109125 0.182346
O36   O     O_3   0.312378 0.102759 0.740437 -0.591014
C60   C     C_3   0.226507 0.082826 0.703592 -0.163258
H34   H     H_    0.201573 0.013653 0.739719 0.211332
H35   H     H_    0.223238 0.083083 0.600801 0.169118
H36   H     H_    0.180886 0.139591 0.744790 0.185468
O37   O     O_3   0.330184 0.910667 0.762444 -0.573015
C61   C     C_3   0.374208 0.918597 0.872764 -0.241096
H37   H     H_    0.381163 0.994715 0.904694 0.176747
H38   H     H_    0.440231 0.883342 0.860597 0.163472
H39   H     H_    0.334257 0.881627 0.947010 0.187160
O38   O     O_3   0.713845 0.094848 0.327180 -0.571557
C62   C     C_3   0.769222 0.119173 0.422471 -0.212854
H40   H     H_    0.790372 0.054204 0.469479 0.175221
H41   H     H_    0.736556 0.171464 0.491595 0.146472
H42   H     H_    0.829655 0.153883 0.380384 0.219208

loop_
_geom_bond_atom_site_label_1
_geom_bond_atom_site_label_2
_ccdc_geom_bond_type
C62   H42   S    
Cu2   N2    S    
O18   H17   S    
C44   H7    S    
O25   C53   S    
C27   C29   S    
O22   H19   S    
C54   H25   S    
C46   H12   S    
C11   N1    A    
C19   C20   A    
C25   O8    A    
C12   N2    A    
C59   H31   S    
C6    C9    A    
C48   O15   D    
C61   H37   S    
C58   O33   D    
C39   C41   A    
C47   O13   D    
C15   C19   A    
C17   C23   A    
C18   C24   A    
C35   C37   A    
C25   O5    A    
C29   C32   S    
C30   C31   S    
C58   O34   S    
O26   C54   S    
C43   H4    S    
C56   O29   D    
C29   C33   S    
C53   H23   S    
C62   H41   S    
C2    O2    A    
C13   C57   S    
C29   O11   S    
Cu1   O5    S    
C11   C17   A    
O16   H16   S    
C24   O38   S    
O36   C60   S    
C56   O30   S    
C1    O1    A    
C60   H36   S    
C54   H24   S    
C31   C33   S    
C40   C50   S    
C50   O20   S    
C25   C34   S    
C12   C56   S    
Cu2   O4    S    
C43   H5    S    
C40   C42   A    
C44   H8    S    
C51   O22   S    
C9    O25   S    
C26   O7    A    
C46   H13   S    
C26   O6    A    
C52   O24   S    
C23   O37   S    
C52   O23   D    
C49   O18   S    
C27   C34   S    
C7    C51   S    
C30   C34   S    
C27   C31   S    
O11   C45   S    
C28   C32   S    
C4    C6    A    
C27   O9    S    
O20   H18   S    
C13   N1    A    
Cu1   O1    S    
C14   N2    A    
C43   H3    S    
C49   O17   D    
C11   C55   S    
C35   C47   S    
O14   H15   S    
C32   C34   S    
C8    C52   S    
O10   C44   S    
Cu2   O8    S    
C26   C33   S    
O24   H20   S    
C36   C48   S    
C16   C20   A    
C47   O14   S    
C55   O28   S    
C51   O21   D    
C53   H22   S    
O32   H29   S    
C57   O32   S    
C61   H38   S    
C1    C38   S    
Cu1   O7    S    
C28   C33   S    
C13   C15   A    
Cu1   Cu2   S    
O34   H30   S    
C54   H26   S    
C14   C16   A    
C10   O26   S    
C21   O35   S    
C39   C49   S    
C3    C4    A    
C59   H33   S    
O28   H27   S    
Cu2   O2    S    
C7    C9    A    
C3    C41   A    
C16   C22   A    
C14   C58   S    
C55   O27   D    
C22   O36   S    
O38   C62   S    
C32   H2    S    
C45   H9    S    
C8    C42   A    
O12   C46   S    
C3    C5    A    
C61   H39   S    
C59   H32   S    
C48   O16   S    
C30   O12   S    
C57   O31   D    
O37   C61   S    
C28   C30   S    
C62   H40   S    
C5    C10   A    
C37   C39   A    
O30   H28   S    
C38   C40   A    
C2    C37   S    
Cu1   O3    S    
O9    C43   S    
C60   H34   S    
C4    C42   A    
C45   H11   S    
C5    C35   A    
C36   C38   A    
C17   C19   A    
C6    C36   A    
C18   C20   A    
C7    C41   A    
C53   H21   S    
C1    O4    A    
C2    O3    A    
C44   H6    S    
Cu2   O6    S    
C15   C21   A    
C46   H14   S    
C8    C10   A    
C31   H1    S    
C21   C24   A    
C12   C18   A    
C60   H35   S    
C45   H10   S    
C22   C23   A    
C50   O19   D    
Cu1   N1    S    
O35   C59   S    
C28   O10   S    
