data_mof_unit_34556.cif
_audit_creation_date              2013-03-05T15:50:34-0500
_audit_creation_method            fapswitch 2.2
_symmetry_space_group_name_H-M    P1
_symmetry_Int_Tables_number       1
_space_group_crystal_system       triclinic
_cell_length_a                    8.392189
_cell_length_b                    15.158747
_cell_length_c                    17.470171
_cell_angle_alpha                 97.125552
_cell_angle_beta                  96.106118
_cell_angle_gamma                 98.245299
_cell_volume                      2164.99411305

loop_
_atom_site_label
_atom_site_type_symbol
_atom_site_description
_atom_site_fract_x
_atom_site_fract_y
_atom_site_fract_z
_atom_type_partial_charge
P1    P     P_3+3 0.994810 0.708030 0.567580 0.521903
O1    O     O_2   0.167760 0.722240 0.545330 -0.365366
O2    O     O_3   0.895630 0.608830 0.542770 -0.310844
O3    O     O_3   0.383340 0.666720 0.405900 -0.347971
O4    O     O_2   0.297141 0.815904 0.460754 -0.379471
O5    O     O_3   0.010467 0.725970 0.670313 -0.561488
O6    O     O_3   0.361257 0.812780 0.319317 -0.481502
C1    C     C_3   0.503888 0.912923 0.241489 -0.715609
H1    H     H_    0.487359 0.967227 0.286915 0.226159
P2    P     P_3+3 0.329370 0.428660 0.324010 0.477135
P3    P     P_3+3 0.918095 0.614314 0.265450 0.522519
O7    O     O_2   0.160650 0.456070 0.313260 -0.290834
O8    O     O_3   0.956180 0.620960 0.366010 -0.393133
O9    O     O_2   0.043550 0.561759 0.229597 -0.315702
O10   O     O_3   0.295166 0.313968 0.286905 -0.619255
O11   O     O_3   0.969454 0.723906 0.244087 -0.482398
C2    C     C_3   0.943638 0.784197 0.307905 0.552782
H2    H     H_    0.042534 0.788814 0.356400 0.145458
H3    H     H_    0.826347 0.762286 0.329118 -0.029212
C3    C     C_3   0.942036 0.877316 0.284626 -0.920203
H4    H     H_    0.885120 0.918839 0.327453 0.198566
H5    H     H_    0.067570 0.911216 0.283987 0.305992
C4    C     C_3   0.663520 0.288887 0.289045 0.457687
H6    H     H_    0.590529 0.326675 0.326260 0.067264
C5    C     C_3   0.565908 0.198885 0.249135 -0.878810
H7    H     H_    0.534006 0.154192 0.292413 0.277643
H8    H     H_    0.453530 0.209396 0.214439 0.225019
H9    H     H_    0.637774 0.164030 0.208607 0.285765
Ba1   Ba    Ba6+2 0.159600 0.544390 0.464780 1.628553
C6    C     C_3   0.164306 0.768654 0.708312 0.380187
H10   H     H_    0.264036 0.749821 0.676705 0.100433
C7    C     C_3   0.173760 0.871229 0.719637 -1.010414
H11   H     H_    0.165839 0.896372 0.662998 0.258445
H12   H     H_    0.290412 0.904827 0.753698 0.273327
H13   H     H_    0.075041 0.891765 0.751717 0.250765
C8    C     C_3   0.195502 0.260838 0.327789 0.276322
H14   H     H_    0.104915 0.297701 0.353427 0.106276
C9    C     C_3   0.106653 0.179669 0.268748 -0.487522
H15   H     H_    0.032564 0.205263 0.222217 0.236226
H16   H     H_    0.196514 0.144096 0.240514 0.186120
P4    P     P_3+3 0.815490 0.291960 0.432360 0.501463
O12   O     O_2   0.642530 0.277700 0.454650 -0.402852
O13   O     O_3   0.914670 0.391160 0.457170 -0.322094
O14   O     O_3   0.426950 0.333280 0.594040 -0.431455
O15   O     O_3   0.805659 0.272057 0.330376 -0.552933
P5    P     P_3+3 0.881552 0.389005 0.738667 0.518347
O16   O     O_3   0.389270 0.546240 0.592370 -0.381449
O17   O     O_3   0.854110 0.379030 0.633930 -0.347946
O18   O     O_2   0.760456 0.446782 0.771270 -0.375524
O19   O     O_3   0.835774 0.289354 0.779472 -0.550612
Ba2   Ba    Ba6+2 0.650580 0.455600 0.535150 1.633543
P6    P     P_3+3 0.424111 0.783446 0.411289 0.476439
C10   C     C_3   0.490736 0.821785 0.273722 0.342477
H17   H     H_    0.608965 0.821669 0.307773 -0.039224
H18   H     H_    0.628601 0.930910 0.226531 0.206612
O20   O     O_3   0.421020 0.453750 0.407560 -0.418217
C11   C     C_3   0.597717 0.734599 0.673320 0.156940
H19   H     H_    0.711142 0.707306 0.664822 0.136751
H20   H     H_    0.523887 0.731663 0.615972 0.110632
C12   C     C_3   0.638129 0.832102 0.713430 -0.537449
H21   H     H_    0.522321 0.856792 0.722144 0.228679
P7    P     P_3+3 0.476773 0.571704 0.690616 0.468918
O21   O     O_2   0.649640 0.543870 0.686710 -0.301090
O22   O     O_3   0.507248 0.686931 0.721838 -0.564972
H22   H     H_    0.872811 0.872435 0.226102 0.290645
C13   C     C_3   0.808299 0.210440 0.725236 0.246261
H23   H     H_    0.726117 0.218466 0.673418 0.138909
C14   C     C_3   0.725663 0.133691 0.764781 -0.659919
H24   H     H_    0.704210 0.070383 0.724170 0.232573
H25   H     H_    0.605159 0.146325 0.777981 0.207387
P8    P     P_3+3 0.378374 0.216879 0.591485 0.479666
C15   C     C_3   0.404777 0.271105 0.740966 0.322391
H26   H     H_    0.326176 0.317546 0.718691 0.120418
O23   O     O_2   0.513701 0.175310 0.553494 -0.372474
O24   O     O_3   0.399401 0.192359 0.687486 -0.536974
H27   H     H_    0.529927 0.308512 0.751584 0.124791
H28   H     H_    0.268296 0.295273 0.838713 0.175798
C16   C     C_3   0.345015 0.246488 0.817286 -0.893315
H29   H     H_    0.266224 0.179724 0.806274 0.266443
C17   C     C_R   0.634334 0.831500 0.459988 0.152770
H30   H     H_    0.668988 0.699637 0.485700 0.161885
C18   C     C_R   0.888410 0.792923 0.519056 0.244665
C19   C     C_R   0.079791 0.229505 0.508547 -0.465663
C20   C     C_R   0.173277 0.170190 0.539264 0.386377
C21   C     C_R   0.106193 0.079375 0.536052 -0.317328
C22   C     C_R   0.946619 0.045144 0.499638 0.042406
C23   C     C_R   0.852891 0.108560 0.469701 -0.016046
C24   C     C_R   0.875513 0.950816 0.494037 0.119399
C25   C     C_R   0.706886 0.924237 0.465661 0.007850
C26   C     C_R   0.615938 0.991743 0.445719 -0.192492
C27   C     C_R   0.692297 0.077413 0.438380 -0.138136
C28   C     C_R   0.964019 0.882803 0.518639 -0.363358
C29   C     C_R   0.725972 0.768713 0.487631 -0.469716
C30   C     C_R   0.919961 0.202544 0.475441 0.220873
H31   H     H_    0.091734 0.898311 0.538301 0.185905
H32   H     H_    0.134649 0.297492 0.507080 0.144813
H33   H     H_    0.177280 0.038033 0.566244 0.187980
H34   H     H_    0.617825 0.122801 0.416633 0.204581
H35   H     H_    0.538870 0.545269 0.858553 0.190116
C31   C     C_R   0.602547 0.535030 0.280667 -0.466589
C32   C     C_R   0.444866 0.489377 0.255820 0.333078
C33   C     C_R   0.386928 0.475729 0.176068 -0.278634
C34   C     C_R   0.486418 0.505111 0.121111 0.007977
C35   C     C_R   0.649535 0.547029 0.146204 -0.118557
C36   C     C_R   0.706089 0.562649 0.226937 0.142852
C37   C     C_R   0.414060 0.516208 0.837324 -0.193531
C38   C     C_R   0.355378 0.514687 0.758575 0.159957
C39   C     C_R   0.088316 0.445143 0.782581 0.326218
C40   C     C_R   0.146321 0.446375 0.861041 -0.215378
C41   C     C_R   0.308883 0.483380 0.889185 0.002962
C42   C     C_1   0.367013 0.488360 0.971167 0.051917
C43   C     C_1   0.418242 0.494387 0.039576 0.105787
C44   C     C_R   0.190831 0.483851 0.734192 -0.585525
H36   H     H_    0.066213 0.418128 0.899570 0.183985
H37   H     H_    0.265174 0.440082 0.156543 0.183622
H38   H     H_    0.648655 0.544061 0.341834 0.167394
C45   C     C_2   0.465053 0.744627 0.208373 0.950795
O25   O     O_2   0.570666 0.736147 0.166168 -0.690861
O26   O     O_R   0.316991 0.686370 0.193389 -0.695997
H39   H     H_    0.306821 0.643881 0.143008 0.321000
C46   C     C_2   0.189797 0.738194 0.787201 0.987739
O27   O     O_2   0.083876 0.686281 0.808876 -0.604353
O28   O     O_R   0.335394 0.769778 0.835802 -0.747775
H40   H     H_    0.339331 0.743967 0.886679 0.348791
C47   C     C_2   0.304427 0.234797 0.391202 0.375126
H41   H     H_    0.357466 0.285950 0.439322 0.113739
O29   O     O_2   0.336148 0.158859 0.389647 -0.619104
C48   C     C_2   0.384909 0.913317 0.170576 1.157556
O30   O     O_2   0.434609 0.934565 0.111071 -0.588964
O31   O     O_R   0.218895 0.888769 0.172539 -0.754725
H42   H     H_    0.151841 0.891419 0.121306 0.333552
C49   C     C_2   0.999766 0.111914 0.303944 0.558618
H43   H     H_    0.049497 0.080369 0.351287 0.057075
O32   O     O_2   0.857217 0.089073 0.277729 -0.586686
C50   C     C_2   0.736803 0.837510 0.791434 0.786254
H44   H     H_    0.851363 0.812211 0.795784 -0.006554
O33   O     O_2   0.687080 0.868443 0.850605 -0.502394
C51   C     C_2   0.726513 0.890900 0.664300 0.463911
H45   H     H_    0.853738 0.890133 0.660236 0.060371
O34   O     O_2   0.654916 0.940244 0.628229 -0.539079
C52   C     C_2   0.964667 0.187196 0.699807 0.922790
O35   O     O_2   0.053355 0.243186 0.673384 -0.697868
O36   O     O_R   0.007368 0.102017 0.705375 -0.800482
H46   H     H_    0.119326 0.096406 0.691057 0.346555
C53   C     C_2   0.823548 0.121120 0.839151 1.232394
O37   O     O_2   0.845096 0.179829 0.895585 -0.559111
O38   O     O_R   0.889584 0.042084 0.843201 -0.780375
H47   H     H_    0.953378 0.041480 0.895725 0.336549
C54   C     C_2   0.479766 0.246172 0.881612 1.189046
O39   O     O_2   0.487015 0.177953 0.911474 -0.556505
O40   O     O_R   0.594038 0.322933 0.909736 -0.699772
H48   H     H_    0.575485 0.376455 0.882661 0.302229
C55   C     C_2   0.444936 0.986616 0.457652 1.191986
O41   O     O_2   0.409169 0.983457 0.523282 -0.604261
O42   O     O_R   0.325022 0.985211 0.395585 -0.781514
H49   H     H_    0.212155 0.978040 0.411836 0.311451
C56   C     C_2   0.761236 0.574791 0.089507 0.637882
H50   H     H_    0.863142 0.628544 0.107202 0.076715
O43   O     O_2   0.743572 0.536700 0.022668 -0.575160
C57   C     C_2   0.116040 0.501703 0.660390 1.166105
O44   O     O_2   0.025007 0.556711 0.660974 -0.526435
O45   O     O_R   0.124277 0.446008 0.592313 -0.695473
H51   H     H_    0.190505 0.397962 0.603916 0.280639
C58   C     C_2   0.709248 0.343365 0.226212 0.462303
H52   H     H_    0.615323 0.355727 0.183130 0.001059
O46   O     O_2   0.850930 0.372147 0.221488 -0.521590

loop_
_geom_bond_atom_site_label_1
_geom_bond_atom_site_label_2
_geom_bond_distance
_ccdc_geom_bond_type
C1    H1    1.104891 S    
C13   C14   1.543267 S    
C7    H12   1.108932 S    
C56   H50   1.082727 S    
C4    O15   1.399681 S    
C23   C27   1.391124 A    
O7    Ba1   2.815791 S    
P4    O12   1.535056 D    
C42   C43   1.214017 T    
C31   H38   1.082094 S    
C35   C56   1.491560 S    
C15   H27   1.104845 S    
C48   O30   1.222788 D    
O16   P7    1.766473 S    
C53   O37   1.222696 D    
C26   C27   1.390571 A    
O28   H40   1.013862 S    
C13   C52   1.503790 S    
H28   C16   1.104867 S    
C5    H9    1.110692 S    
P5    O18   1.542385 D    
C31   C36   1.406456 A    
C32   C33   1.405703 A    
O3    P6    1.742115 S    
O1    Ba1   2.870302 S    
O8    Ba1   2.770841 S    
C58   H52   1.083529 S    
C9    H16   1.110208 S    
O6    P6    1.766895 S    
Ba2   O20   2.781403 S    
P2    O10   1.750130 S    
C54   O40   1.397472 S    
C21   C22   1.415946 A    
C9    H15   1.112586 S    
P3    O9    1.546787 D    
C22   C24   1.455480 A    
C11   H20   1.112920 S    
C37   C38   1.407303 A    
O36   H46   1.010067 S    
C23   C30   1.441920 A    
C2    C3    1.518147 S    
C18   C28   1.419324 A    
C39   C40   1.401872 A    
O14   P8    1.746974 S    
P1    O1    1.534686 D    
C17   C25   1.436614 A    
O2    Ba1   2.941206 S    
C41   C42   1.452227 S    
C38   C44   1.395415 A    
P7    O22   1.737726 S    
C33   H37   1.083583 S    
O38   H47   1.013741 S    
C37   C41   1.415490 A    
C1    C48   1.507373 S    
O17   Ba2   2.771508 S    
C8    C47   1.488389 S    
C14   H24   1.100505 S    
P5    C39   1.858752 S    
P3    C36   1.856488 S    
C15   C16   1.542899 S    
C4    H6    1.104083 S    
O4    P6    1.537871 D    
C55   O42   1.394594 S    
P2    O20   1.551222 S    
O3    Ba1   2.812096 S    
O12   Ba2   2.870791 S    
C13   H23   1.108397 S    
C56   O43   1.220758 D    
C18   C29   1.393453 A    
Ba1   O13   2.851991 S    
C58   O46   1.221461 D    
P4    O13   1.595139 S    
C15   O24   1.413769 S    
C1    H18   1.109984 S    
C35   C36   1.418836 A    
C53   O38   1.396656 S    
P5    O17   1.804349 S    
P1    O5    1.769441 S    
C6    C7    1.532360 S    
C7    H13   1.107622 S    
C24   C28   1.435623 A    
C3    H22   1.109449 S    
C50   H44   1.083794 S    
Ba2   O21   2.815975 S    
C20   C21   1.402517 A    
O2    Ba2   2.852572 S    
C16   H29   1.109593 S    
O11   C2    1.407357 S    
C11   C12   1.529491 S    
O16   Ba2   2.947211 S    
P7    C38   1.858439 S    
P1    C18   1.900306 S    
C10   H17   1.101611 S    
C19   C30   1.385563 A    
C28   H31   1.073038 S    
C34   C43   1.457824 S    
P1    O2    1.595140 S    
C52   O36   1.400553 S    
C9    C49   1.499126 S    
C39   C44   1.390001 A    
P8    C20   1.857994 S    
P7    O21   1.573780 D    
H30   C29   1.081867 S    
P3    O11   1.751442 S    
C19   C20   1.394423 A    
C6    C46   1.510595 S    
O40   H48   1.010941 S    
P1    Ba1   3.420277 S    
C2    H2    1.109300 S    
C24   C25   1.431218 A    
C26   C55   1.464456 S    
O19   C13   1.405388 S    
C12   C50   1.504082 S    
C46   O27   1.223808 D    
P2    O7    1.531111 D    
C40   H36   1.083326 S    
O14   Ba2   2.811525 S    
C49   O32   1.219044 D    
O5    C6    1.413386 S    
Ba1   O16   2.781960 S    
C47   H41   1.079706 S    
C5    H8    1.108008 S    
O6    C10   1.415066 S    
O10   C8    1.391028 S    
O42   H49   1.012401 S    
C11   O22   1.395901 S    
C4    C58   1.502608 S    
Ba1   Ba2   4.606966 S    
C50   O33   1.220744 D    
H35   C37   1.083137 S    
C8    H14   1.105899 S    
C17   C29   1.405527 A    
C22   C23   1.438905 A    
P2    C32   1.862136 S    
C3    H5    1.105765 S    
C15   H26   1.108476 S    
C27   H34   1.070501 S    
C48   O31   1.394756 S    
C1    C10   1.549328 S    
P8    O23   1.545710 D    
O26   H39   1.012142 S    
O45   H51   1.004595 S    
C51   O34   1.217752 D    
Ba1   O20   2.947995 S    
P4    C30   1.904167 S    
P5    O19   1.759726 S    
C45   O25   1.222263 D    
C7    H11   1.102554 S    
C45   O26   1.396812 S    
O31   H42   1.013730 S    
C5    H7    1.104734 S    
P6    C17   1.877571 S    
C54   O39   1.220825 D    
C57   O44   1.208853 D    
P8    O24   1.758581 S    
P3    O8    1.739561 S    
P2    Ba1   3.398167 S    
O13   Ba2   2.941976 S    
C11   H19   1.107733 S    
C6    H10   1.102106 S    
C19   H32   1.071307 S    
C8    C9    1.546677 S    
C31   C32   1.399659 A    
C2    H3    1.109478 S    
C49   H43   1.081129 S    
C10   C45   1.503964 S    
C4    C5    1.529867 S    
C44   C57   1.446608 S    
C33   C34   1.409702 A    
C46   O28   1.397776 S    
C21   H33   1.071987 S    
C51   H45   1.079181 S    
C3    H4    1.108864 S    
C14   H25   1.098534 S    
C40   C41   1.409601 A    
C34   C35   1.422535 A    
C47   O29   1.215886 D    
P4    O15   1.760812 S    
C12   H21   1.108821 S    
C25   C26   1.416685 A    
C52   O35   1.215120 D    
P4    Ba2   3.420765 S    
C14   C53   1.509456 S    
C16   C54   1.508067 S    
C57   O45   1.384612 S    
C55   O41   1.220543 D    
C12   C51   1.488919 S    
