data_mof_unit_62771.cif
_audit_creation_date              2012-12-10T21:03:04-0500
_audit_creation_method            fapswitch 2.2
_symmetry_space_group_name_H-M    P1
_symmetry_Int_Tables_number       1
_space_group_crystal_system       triclinic
_cell_length_a                    25.91003
_cell_length_b                    42.991431
_cell_length_c                    25.109192
_cell_angle_alpha                 90.000028
_cell_angle_beta                  121.089274
_cell_angle_gamma                 89.999871
_cell_volume                      23951.9478988

loop_
_atom_site_label
_atom_site_type_symbol
_atom_type_description
_atom_site_fract_x
_atom_site_fract_y
_atom_site_fract_z
_atom_type_partial_charge
C1    C     C_R   1.000000 0.165752 0.500000 0.504659
C2    C     C_R   0.618484 0.249953 0.737066 0.034435
C3    C     C_R   0.658591 0.130994 0.511104 -0.097058
C4    C     C_R   0.282012 0.277485 0.508290 -0.146267
C5    C     C_R   0.717986 0.722516 0.491706 -0.146267
C6    C     C_R   0.717987 0.277484 0.491708 -0.146267
C7    C     C_R   0.282023 0.722517 0.508311 -0.146271
C8    C     C_R   0.782014 0.777484 0.508294 -0.146267
C9    C     C_R   0.217988 0.222515 0.491710 -0.146267
C10   C     C_R   0.217977 0.777483 0.491689 -0.146271
C11   C     C_R   0.782013 0.222516 0.508292 -0.146267
C12   C     C_R   0.304671 0.249099 0.501834 0.023086
C13   C     C_R   0.618484 0.750047 0.737066 0.034435
C14   C     C_R   0.695329 0.750901 0.498166 0.023084
C15   C     C_R   0.695329 0.249099 0.498166 0.023085
C16   C     C_R   0.304671 0.750901 0.501834 0.023079
C17   C     C_R   0.804671 0.749099 0.501834 0.023085
C18   C     C_R   0.195328 0.250901 0.498166 0.023085
C19   C     C_R   0.195328 0.749099 0.498166 0.023079
C20   C     C_R   0.804671 0.250901 0.501834 0.023085
C21   C     C_R   0.272897 0.221146 0.494167 -0.027342
C22   C     C_R   0.727105 0.778853 0.505837 -0.027343
C23   C     C_R   0.727104 0.221147 0.505836 -0.027343
C24   C     C_R   0.381516 0.249952 0.262934 0.034435
C25   C     C_R   0.272885 0.778852 0.494145 -0.027348
C26   C     C_R   0.772895 0.721147 0.494163 -0.027343
C27   C     C_R   0.227103 0.278853 0.505833 -0.027342
C28   C     C_R   0.227114 0.721148 0.505855 -0.027348
C29   C     C_R   0.772896 0.278853 0.494164 -0.027343
C30   C     C_R   0.013926 0.114952 0.460783 -0.128306
C31   C     C_R   0.986072 0.885048 0.539215 -0.128306
C32   C     C_R   0.986072 0.114952 0.539215 -0.128306
C33   C     C_R   0.013926 0.885048 0.460784 -0.128305
C34   C     C_R   0.513928 0.614952 0.460784 -0.128306
C35   C     C_R   0.718390 0.249974 0.936839 0.346713
C36   C     C_R   0.486074 0.385048 0.539216 -0.128306
C37   C     C_R   0.486073 0.614952 0.539216 -0.128305
C38   C     C_R   0.513928 0.385048 0.460785 -0.128306
C39   C     C_R   0.013934 0.082511 0.460782 -0.121330
C40   C     C_R   0.986064 0.917489 0.539217 -0.121330
C41   C     C_R   0.986063 0.082511 0.539216 -0.121330
C42   C     C_R   0.013934 0.917489 0.460782 -0.121330
C43   C     C_R   0.513936 0.582511 0.460783 -0.121330
C44   C     C_R   0.486066 0.417489 0.539218 -0.121330
C45   C     C_R   0.486065 0.582511 0.539218 -0.121330
C46   C     C_R   0.281609 0.750026 0.063161 0.346713
C47   C     C_R   0.513937 0.417489 0.460784 -0.121330
C48   C     C_R   0.999998 0.065938 0.499999 0.033004
C49   C     C_R   0.999999 0.934062 0.499999 0.033004
C50   C     C_R   0.500001 0.565938 0.500001 0.033004
C51   C     C_R   0.500002 0.434062 0.500001 0.033004
C52   C     C_R   0.999999 0.131474 0.500000 0.035135
C53   C     C_R   1.000000 0.868526 0.500000 0.035135
C54   C     C_R   0.500000 0.631474 0.500000 0.035135
C55   C     C_R   0.500000 0.368526 0.500000 0.035135
C56   C     C_R   0.860180 0.250365 0.500659 0.501164
C57   C     C_R   0.281609 0.249974 0.063161 0.346713
C58   C     C_R   0.139820 0.749635 0.499340 0.501166
C59   C     C_R   0.139820 0.250364 0.499341 0.501162
C60   C     C_R   0.860180 0.749635 0.500659 0.501163
C61   C     C_R   0.360180 0.750365 0.500660 0.501167
C62   C     C_R   0.639820 0.249635 0.499341 0.501163
C63   C     C_R   0.639820 0.750365 0.499341 0.501163
C64   C     C_R   0.360180 0.249635 0.500659 0.501163
C65   C     C_R   0.500002 0.468415 0.500001 0.346790
C66   C     C_R   0.500001 0.531585 0.500001 0.346789
C67   C     C_R   0.999999 0.968415 0.499999 0.346789
C68   C     C_R   0.718390 0.750026 0.936839 0.346713
C69   C     C_R   0.999998 0.031585 0.499999 0.346790
C70   C     C_R   0.084227 0.250028 0.668513 0.502364
C71   C     C_R   0.915773 0.749972 0.331487 0.502366
C72   C     C_R   0.915773 0.250028 0.331487 0.502365
C73   C     C_R   0.084227 0.749972 0.668513 0.502365
C74   C     C_R   0.584227 0.750028 0.668513 0.502366
C75   C     C_R   0.415773 0.249972 0.331487 0.502365
C76   C     C_R   0.415773 0.750028 0.331487 0.502365
C77   C     C_R   0.584227 0.249972 0.668513 0.502364
C78   C     C_R   0.898171 0.230201 0.229908 -0.128160
C79   C     C_R   0.218390 0.749974 0.936839 0.346713
C80   C     C_R   0.101828 0.769798 0.770092 -0.128160
C81   C     C_R   0.101828 0.230202 0.770092 -0.128159
C82   C     C_R   0.898171 0.769799 0.229908 -0.128159
C83   C     C_R   0.398171 0.730202 0.229908 -0.128159
C84   C     C_R   0.601828 0.269798 0.770092 -0.128160
C85   C     C_R   0.601829 0.730201 0.770092 -0.128160
C86   C     C_R   0.398171 0.269798 0.229908 -0.128159
C87   C     C_R   0.865742 0.230198 0.165038 -0.121058
C88   C     C_R   0.134258 0.769802 0.834962 -0.121058
C89   C     C_R   0.134258 0.230198 0.834962 -0.121058
C90   C     C_R   0.781609 0.250026 0.063161 0.346713
C91   C     C_R   0.865742 0.769802 0.165038 -0.121059
C92   C     C_R   0.365742 0.730198 0.165038 -0.121058
C93   C     C_R   0.634258 0.269802 0.834962 -0.121058
C94   C     C_R   0.634258 0.730198 0.834962 -0.121058
C95   C     C_R   0.365742 0.269802 0.165038 -0.121058
C96   C     C_R   0.815985 0.250047 0.131868 0.032736
C97   C     C_R   0.184015 0.749953 0.868132 0.032736
C98   C     C_R   0.184015 0.250047 0.868132 0.032736
C99   C     C_R   0.815985 0.749953 0.131868 0.032736
C100  C     C_R   0.315985 0.750047 0.131868 0.032736
C101  C     C_R   0.781609 0.749974 0.063161 0.346713
C102  C     C_R   0.684015 0.249953 0.868132 0.032736
C103  C     C_R   0.684015 0.750047 0.868132 0.032736
C104  C     C_R   0.315985 0.249953 0.131868 0.032736
C105  C     C_R   0.799391 0.269908 0.164997 -0.121318
C106  C     C_R   0.200609 0.730092 0.835003 -0.121319
C107  C     C_R   0.200609 0.269908 0.835003 -0.121319
C108  C     C_R   0.799391 0.730092 0.164997 -0.121318
C109  C     C_R   0.299391 0.769908 0.164997 -0.121319
C110  C     C_R   0.700609 0.230092 0.835003 -0.121318
C111  C     C_R   0.700609 0.769907 0.835003 -0.121318
C112  C     C_R   1.000000 0.834248 0.500000 0.504660
C113  C     C_R   0.218390 0.250026 0.936839 0.346713
C114  C     C_R   0.299391 0.230092 0.164997 -0.121318
C115  C     C_R   0.831833 0.269905 0.229871 -0.128475
C116  C     C_R   0.168167 0.730095 0.770129 -0.128476
C117  C     C_R   0.168167 0.269905 0.770129 -0.128475
C118  C     C_R   0.831833 0.730095 0.229871 -0.128475
C119  C     C_R   0.331833 0.769905 0.229871 -0.128476
C120  C     C_R   0.668167 0.230095 0.770129 -0.128475
C121  C     C_R   0.668167 0.769905 0.770129 -0.128475
C122  C     C_R   0.331833 0.230095 0.229871 -0.128475
C123  C     C_R   0.950879 0.385001 0.452837 -0.141256
C124  C     C_R   0.049118 0.614999 0.547168 -0.141260
C125  C     C_R   0.049121 0.385001 0.547164 -0.141256
C126  C     C_R   0.950880 0.614999 0.452835 -0.141254
C127  C     C_R   0.450882 0.885001 0.452832 -0.141261
C128  C     C_R   0.549121 0.114999 0.547163 -0.141256
C129  C     C_R   0.549119 0.885001 0.547165 -0.141254
C130  C     C_R   0.450879 0.114999 0.452836 -0.141255
C131  C     C_R   0.950835 0.417446 0.452842 -0.133767
C132  C     C_R   0.500000 0.665752 0.500000 0.504660
C133  C     C_R   0.049161 0.582554 0.547164 -0.133766
C134  C     C_R   0.049164 0.417445 0.547159 -0.133767
C135  C     C_R   0.950837 0.582554 0.452840 -0.133766
C136  C     C_R   0.450839 0.917446 0.452836 -0.133766
C137  C     C_R   0.549165 0.082554 0.547158 -0.133767
C138  C     C_R   0.549163 0.917445 0.547160 -0.133766
C139  C     C_R   0.450836 0.082555 0.452840 -0.133767
C140  C     C_R   0.999999 0.434031 0.500001 0.032289
C141  C     C_R   0.999999 0.565969 0.500002 0.032292
C142  C     C_R   0.500001 0.934031 0.499998 0.032292
C143  C     C_R   0.500000 0.334248 0.500000 0.504659
C144  C     C_R   0.500001 0.065969 0.499999 0.032289
C145  C     C_R   1.000000 0.368501 0.500000 0.030622
C146  C     C_R   1.000000 0.631499 0.500001 0.030622
C147  C     C_R   0.500000 0.868501 0.499999 0.030622
C148  C     C_R   0.500000 0.131499 0.500000 0.030622
C149  C     C_R   0.500001 0.031596 0.499999 0.345622
C150  C     C_R   0.500001 0.968404 0.499998 0.345623
C151  C     C_R   0.999999 0.531596 0.500002 0.345623
C152  C     C_R   0.999999 0.468404 0.500001 0.345622
C153  C     C_R   0.123611 0.348849 0.461647 -0.094990
C154  C     C_R   0.881516 0.250047 0.262934 0.034435
C155  C     C_R   0.876380 0.651149 0.538341 -0.094988
C156  C     C_R   0.876382 0.348851 0.538345 -0.094989
C157  C     C_R   0.123661 0.651138 0.461717 -0.094980
C158  C     C_R   0.623620 0.848851 0.461659 -0.094988
C159  C     C_R   0.376389 0.151151 0.538353 -0.094990
C160  C     C_R   0.376338 0.848862 0.538282 -0.094980
C161  C     C_R   0.623618 0.151149 0.461654 -0.094990
C162  C     C_R   0.145721 0.319442 0.459848 -0.065391
C163  C     C_R   0.854273 0.680556 0.540144 -0.065390
C164  C     C_R   0.854275 0.319444 0.540147 -0.065391
C165  C     C_R   0.118484 0.749953 0.737066 0.034435
C166  C     C_R   0.145755 0.680546 0.459896 -0.065384
C167  C     C_R   0.645727 0.819444 0.459856 -0.065390
C168  C     C_R   0.354279 0.180558 0.540152 -0.065391
C169  C     C_R   0.354244 0.819454 0.540103 -0.065384
C170  C     C_R   0.645725 0.180556 0.459853 -0.065391
C171  C     C_R   0.202934 0.309847 0.508034 0.052870
C172  C     C_R   0.797062 0.690153 0.491957 0.052872
C173  C     C_R   0.797063 0.309847 0.491960 0.052871
C174  C     C_R   0.202960 0.690154 0.508080 0.052879
C175  C     C_R   0.702938 0.809847 0.508042 0.052872
C176  C     C_R   0.118484 0.250047 0.737066 0.034435
C177  C     C_R   0.297066 0.190153 0.491966 0.052870
C178  C     C_R   0.297040 0.809846 0.491919 0.052879
C179  C     C_R   0.702937 0.190153 0.508039 0.052871
C180  C     C_R   1.000000 0.334255 0.500000 0.497612
C181  C     C_R   1.000000 0.665744 0.500000 0.497609
C182  C     C_R   0.500000 0.834255 0.500000 0.497609
C183  C     C_R   0.500000 0.165745 0.500000 0.497612
C184  C     C_R   0.237794 0.330313 0.557541 -0.087655
C185  C     C_R   0.762200 0.669690 0.442447 -0.087655
C186  C     C_R   0.762202 0.330311 0.442452 -0.087655
C187  C     C_R   0.881516 0.749953 0.262934 0.034436
C188  C     C_R   0.237826 0.669700 0.557607 -0.087653
C189  C     C_R   0.737799 0.830310 0.557553 -0.087655
C190  C     C_R   0.262206 0.169687 0.442459 -0.087655
C191  C     C_R   0.262173 0.830299 0.442392 -0.087653
C192  C     C_R   0.737798 0.169689 0.557548 -0.087655
C193  C     C_R   0.215547 0.359728 0.559049 -0.112180
C194  C     C_R   0.784445 0.640274 0.440935 -0.112180
C195  C     C_R   0.784447 0.359727 0.440941 -0.112180
C196  C     C_R   0.215595 0.640284 0.559138 -0.112182
C197  C     C_R   0.715555 0.859726 0.559065 -0.112180
C198  C     C_R   0.381516 0.750047 0.262934 0.034435
C199  C     C_R   0.284453 0.140272 0.440951 -0.112180
C200  C     C_R   0.284405 0.859716 0.440861 -0.112181
C201  C     C_R   0.715553 0.140273 0.559059 -0.112180
C202  C     C_R   0.158583 0.369006 0.511094 -0.097057
C203  C     C_R   0.841407 0.630994 0.488889 -0.097057
C204  C     C_R   0.841409 0.369006 0.488895 -0.097058
C205  C     C_R   0.158640 0.630993 0.511185 -0.097060
C206  C     C_R   0.658593 0.869006 0.511111 -0.097056
C207  C     C_R   0.341417 0.130994 0.488905 -0.097057
C208  C     C_R   0.341360 0.869007 0.488814 -0.097060
H1    H     H_    0.936292 0.214638 0.254155 0.137549
H2    H     H_    0.717967 0.676573 0.404950 0.108189
H3    H     H_    0.079519 0.643910 0.424646 0.109073
H4    H     H_    0.579472 0.856072 0.424587 0.109066
H5    H     H_    0.420538 0.143932 0.575426 0.109066
H6    H     H_    0.420481 0.856090 0.575354 0.109073
H7    H     H_    0.579469 0.143930 0.424582 0.109067
H8    H     H_    0.118426 0.304225 0.420812 0.095066
H9    H     H_    0.881568 0.695771 0.579183 0.095065
H10   H     H_    0.881569 0.304227 0.579185 0.095066
H11   H     H_    0.118457 0.695755 0.420845 0.095060
H12   H     H_    0.618432 0.804229 0.420817 0.095065
H13   H     H_    0.717968 0.323428 0.404955 0.108190
H14   H     H_    0.381574 0.195775 0.579188 0.095066
H15   H     H_    0.381543 0.804246 0.579155 0.095060
H16   H     H_    0.618430 0.195773 0.420815 0.095066
H17   H     H_    0.282054 0.676592 0.595103 0.108189
H18   H     H_    0.782033 0.823427 0.595050 0.108189
H19   H     H_    0.217972 0.176569 0.404962 0.108189
H20   H     H_    0.217945 0.823408 0.404896 0.108189
H21   H     H_    0.782032 0.176572 0.595045 0.108190
H22   H     H_    0.242544 0.375367 0.597346 0.110851
H23   H     H_    0.757447 0.624637 0.402635 0.110851
H24   H     H_    0.757449 0.375365 0.402642 0.110851
H25   H     H_    0.063708 0.785362 0.745845 0.137549
H26   H     H_    0.242597 0.624654 0.597451 0.110850
H27   H     H_    0.742553 0.875363 0.597365 0.110851
H28   H     H_    0.257456 0.124633 0.402654 0.110851
H29   H     H_    0.257403 0.875345 0.402548 0.110849
H30   H     H_    0.742551 0.124635 0.597358 0.110851
H31   H     H_    0.306182 0.298877 0.512853 0.130550
H32   H     H_    0.693815 0.701123 0.487140 0.130552
H33   H     H_    0.693816 0.298877 0.487143 0.130552
H34   H     H_    0.306202 0.701125 0.512891 0.130565
H35   H     H_    0.806185 0.798877 0.512860 0.130552
H36   H     H_    0.063708 0.214638 0.745845 0.137549
H37   H     H_    0.193818 0.201123 0.487147 0.130550
H38   H     H_    0.193798 0.798874 0.487109 0.130565
H39   H     H_    0.806184 0.201123 0.512857 0.130552
H40   H     H_    0.024862 0.127071 0.430054 0.136375
H41   H     H_    0.975137 0.872929 0.569946 0.136375
H42   H     H_    0.975136 0.127071 0.569945 0.136375
H43   H     H_    0.024863 0.872929 0.430054 0.136376
H44   H     H_    0.524863 0.627071 0.430054 0.136375
H45   H     H_    0.475137 0.372929 0.569946 0.136375
H46   H     H_    0.475137 0.627071 0.569946 0.136375
H47   H     H_    0.936292 0.785362 0.254155 0.137548
H48   H     H_    0.524864 0.372929 0.430054 0.136376
H49   H     H_    0.024878 0.070464 0.430000 0.138194
H50   H     H_    0.975119 0.929536 0.569998 0.138194
H51   H     H_    0.975119 0.070464 0.569997 0.138194
H52   H     H_    0.024878 0.929535 0.430001 0.138195
H53   H     H_    0.524881 0.570464 0.430002 0.138194
H54   H     H_    0.475122 0.429536 0.569999 0.138194
H55   H     H_    0.475121 0.570465 0.569999 0.138195
H56   H     H_    0.524881 0.429535 0.430003 0.138194
H57   H     H_    0.879743 0.214610 0.140971 0.139030
H58   H     H_    0.436292 0.714638 0.254155 0.137549
H59   H     H_    0.120256 0.785390 0.859029 0.139030
H60   H     H_    0.120257 0.214610 0.859029 0.139030
H61   H     H_    0.879743 0.785390 0.140970 0.139030
H62   H     H_    0.379743 0.714610 0.140971 0.139030
H63   H     H_    0.620256 0.285390 0.859029 0.139030
H64   H     H_    0.620257 0.714610 0.859029 0.139030
H65   H     H_    0.379743 0.285390 0.140970 0.139030
H66   H     H_    0.761303 0.285493 0.140894 0.138842
H67   H     H_    0.238697 0.714507 0.859106 0.138841
H68   H     H_    0.238696 0.285493 0.859106 0.138842
H69   H     H_    0.563708 0.285362 0.745845 0.137549
H70   H     H_    0.761304 0.714507 0.140894 0.138842
H71   H     H_    0.261303 0.785493 0.140894 0.138841
H72   H     H_    0.738697 0.214507 0.859106 0.138842
H73   H     H_    0.738696 0.785493 0.859106 0.138842
H74   H     H_    0.261304 0.214507 0.140894 0.138842
H75   H     H_    0.817946 0.285468 0.254091 0.137644
H76   H     H_    0.182054 0.714532 0.745909 0.137643
H77   H     H_    0.182053 0.285468 0.745909 0.137645
H78   H     H_    0.817947 0.714532 0.254091 0.137645
H79   H     H_    0.317946 0.785468 0.254091 0.137643
H80   H     H_    0.563708 0.714638 0.745845 0.137548
H81   H     H_    0.682053 0.214532 0.745909 0.137644
H82   H     H_    0.682053 0.785468 0.745909 0.137645
H83   H     H_    0.317947 0.214532 0.254091 0.137645
H84   H     H_    0.912429 0.372845 0.415826 0.138775
H85   H     H_    0.087566 0.627155 0.584180 0.138771
H86   H     H_    0.087571 0.372844 0.584174 0.138776
H87   H     H_    0.912433 0.627156 0.415822 0.138774
H88   H     H_    0.412434 0.872845 0.415819 0.138771
H89   H     H_    0.587571 0.127155 0.584174 0.138775
H90   H     H_    0.587567 0.872844 0.584178 0.138774
H91   H     H_    0.436292 0.285362 0.254155 0.137549
H92   H     H_    0.412429 0.127156 0.415826 0.138776
H93   H     H_    0.912217 0.429482 0.415834 0.136186
H94   H     H_    0.087777 0.570518 0.584174 0.136183
H95   H     H_    0.087782 0.429482 0.584167 0.136187
H96   H     H_    0.912220 0.570518 0.415830 0.136186
H97   H     H_    0.412223 0.929482 0.415826 0.136183
H98   H     H_    0.587783 0.070518 0.584165 0.136186
H99   H     H_    0.587779 0.929482 0.584170 0.136186
H100  H     H_    0.412218 0.070518 0.415833 0.136187
H101  H     H_    0.141609 0.391847 0.512189 0.120522
H102  H     H_    0.282028 0.323431 0.595038 0.108189
H103  H     H_    0.858380 0.608153 0.487791 0.120521
H104  H     H_    0.858382 0.391847 0.487799 0.120521
H105  H     H_    0.141677 0.608152 0.512297 0.120509
H106  H     H_    0.641620 0.891847 0.512209 0.120521
H107  H     H_    0.358391 0.108153 0.487810 0.120522
H108  H     H_    0.358322 0.891848 0.487702 0.120509
H109  H     H_    0.641618 0.108153 0.512201 0.120521
H110  H     H_    0.079462 0.356068 0.424574 0.109066
H111  H     H_    0.920528 0.643928 0.575413 0.109066
H112  H     H_    0.920531 0.356070 0.575418 0.109067
N1    N     N_R   0.733501 0.269151 0.030912 -0.229928
N2    N     N_R   0.297466 0.730874 0.030969 -0.229877
N3    N     N_R   0.297466 0.269126 0.030968 -0.229877
N4    N     N_R   0.702534 0.730874 0.969031 -0.229877
N5    N     N_R   0.202534 0.769126 0.969031 -0.229877
N6    N     N_R   0.797466 0.230874 0.030969 -0.229877
N7    N     N_R   0.797466 0.769126 0.030968 -0.229877
N8    N     N_R   0.202534 0.230874 0.969031 -0.229877
N9    N     N_R   0.047481 0.484523 0.545335 -0.233177
N10   N     N_R   0.952516 0.515477 0.454668 -0.233177
N11   N     N_R   0.952516 0.484524 0.454668 -0.233177
N12   N     N_R   0.266499 0.730849 0.969088 -0.229928
N13   N     N_R   0.047481 0.515476 0.545335 -0.233178
N14   N     N_R   0.547484 0.984523 0.545332 -0.233177
N15   N     N_R   0.452518 0.015477 0.454665 -0.233177
N16   N     N_R   0.452519 0.984524 0.454665 -0.233177
N17   N     N_R   0.547483 0.015476 0.545332 -0.233177
N18   N     N_R   0.986548 0.015474 0.537786 -0.230621
N19   N     N_R   0.013448 0.984526 0.462212 -0.230620
N20   N     N_R   0.013448 0.015474 0.462212 -0.230620
N21   N     N_R   0.986549 0.984526 0.537786 -0.230621
N22   N     N_R   0.486552 0.515474 0.537788 -0.230621
N23   N     N_R   0.266499 0.269151 0.969088 -0.229928
N24   N     N_R   0.513452 0.484526 0.462214 -0.230621
N25   N     N_R   0.513451 0.515474 0.462214 -0.230620
N26   N     N_R   0.486552 0.484526 0.537788 -0.230621
N27   N     N_R   0.733501 0.730849 0.030912 -0.229928
N28   N     N_R   0.233501 0.769151 0.030912 -0.229928
N29   N     N_R   0.766499 0.230849 0.969088 -0.229928
N30   N     N_R   0.766499 0.769151 0.969088 -0.229928
N31   N     N_R   0.233501 0.230849 0.030912 -0.229927
N32   N     N_R   0.702534 0.269126 0.969031 -0.229877
O1    O     O_3   0.000000 0.250010 0.500000 -0.433285
O2    O     O_R   0.487810 0.319320 0.536380 -0.545921
O3    O     O_R   0.487810 0.680680 0.536380 -0.545921
O4    O     O_R   0.512190 0.319320 0.463620 -0.545921
O5    O     O_R   0.951470 0.319330 0.463670 -0.542184
O6    O     O_R   0.048530 0.680670 0.536330 -0.542184
O7    O     O_R   0.048530 0.319330 0.536330 -0.542183
O8    O     O_R   0.951470 0.680670 0.463670 -0.542182
O9    O     O_R   0.451470 0.819330 0.463670 -0.542184
O10   O     O_R   0.548530 0.180670 0.536330 -0.542184
O11   O     O_R   0.548530 0.819330 0.536330 -0.542181
O12   O     O_3   1.000000 0.749990 0.500000 -0.433285
O13   O     O_R   0.451470 0.180670 0.463670 -0.542183
O14   O     O_R   0.902360 0.231840 0.536340 -0.550564
O15   O     O_R   0.097640 0.768160 0.463660 -0.550565
O16   O     O_R   0.097640 0.231840 0.463660 -0.550563
O17   O     O_R   0.902360 0.768160 0.536340 -0.550564
O18   O     O_R   0.402360 0.731840 0.536340 -0.550565
O19   O     O_R   0.597640 0.268160 0.463660 -0.550563
O20   O     O_R   0.597640 0.731840 0.463660 -0.550563
O21   O     O_R   0.402360 0.268160 0.536340 -0.550563
O22   O     O_R   0.133980 0.268190 0.536340 -0.529229
O23   O     O_3   0.500000 0.750010 0.500000 -0.433285
O24   O     O_R   0.866020 0.731810 0.463660 -0.529230
O25   O     O_R   0.866020 0.268190 0.463660 -0.529230
O26   O     O_R   0.133980 0.731810 0.536340 -0.529231
O27   O     O_R   0.633980 0.768190 0.536340 -0.529229
O28   O     O_R   0.366020 0.231810 0.463660 -0.529229
O29   O     O_R   0.366020 0.768190 0.463660 -0.529231
O30   O     O_R   0.633980 0.231810 0.536340 -0.529230
O31   O     O_R   0.038940 0.231840 0.638630 -0.546346
O32   O     O_R   0.961060 0.768160 0.361370 -0.546346
O33   O     O_R   0.961060 0.231840 0.361370 -0.546346
O34   O     O_3   0.500000 0.249990 0.500000 -0.433285
O35   O     O_R   0.038940 0.768160 0.638630 -0.546345
O36   O     O_R   0.538940 0.731840 0.638630 -0.546346
O37   O     O_R   0.461060 0.268160 0.361370 -0.546346
O38   O     O_R   0.461060 0.731840 0.361370 -0.546346
O39   O     O_R   0.538940 0.268160 0.638630 -0.546345
O40   O     O_R   0.099660 0.268190 0.638640 -0.545822
O41   O     O_R   0.900340 0.731810 0.361360 -0.545822
O42   O     O_R   0.900340 0.268190 0.361360 -0.545822
O43   O     O_R   0.099660 0.731810 0.638640 -0.545821
O44   O     O_R   0.599660 0.768190 0.638640 -0.545821
O45   O     O_R   0.012190 0.180680 0.463620 -0.545921
O46   O     O_R   0.400340 0.231810 0.361360 -0.545822
O47   O     O_R   0.400340 0.768190 0.361360 -0.545821
O48   O     O_R   0.599660 0.231810 0.638640 -0.545822
O49   O     O_R   0.987810 0.819320 0.536380 -0.545922
O50   O     O_R   0.987810 0.180680 0.536380 -0.545921
O51   O     O_R   0.012190 0.819320 0.463620 -0.545921
O52   O     O_R   0.512190 0.680680 0.463620 -0.545921
Zn1   Zn    Zn3+2 0.930660 0.275970 0.448070 0.939921
Zn2   Zn    Zn3+2 0.017430 0.775960 0.448080 0.931866
Zn3   Zn    Zn3+2 0.017430 0.224040 0.448080 0.931865
Zn4   Zn    Zn3+2 0.982570 0.775960 0.551920 0.931866
Zn5   Zn    Zn3+2 0.482570 0.724040 0.551920 0.931866
Zn6   Zn    Zn3+2 0.517430 0.275960 0.448080 0.931865
Zn7   Zn    Zn3+2 0.517430 0.724040 0.448080 0.931866
Zn8   Zn    Zn3+2 0.482570 0.275960 0.551920 0.931865
Zn9   Zn    Zn3+2 0.069340 0.724030 0.551930 0.939920
Zn10  Zn    Zn3+2 0.069340 0.275970 0.551930 0.939921
Zn11  Zn    Zn3+2 0.930660 0.724030 0.448070 0.939921
Zn12  Zn    Zn3+2 0.430660 0.775970 0.448070 0.939920
Zn13  Zn    Zn3+2 0.569340 0.224030 0.551930 0.939920
Zn14  Zn    Zn3+2 0.569340 0.775970 0.551930 0.939921
Zn15  Zn    Zn3+2 0.430660 0.224030 0.448070 0.939921
Zn16  Zn    Zn3+2 0.982570 0.224040 0.551920 0.931865

loop_
_geom_bond_atom_site_label_1
_geom_bond_atom_site_label_2
_ccdc_geom_bond_type
C38   H48   S    
C101  N7    A    
C133  H94   S    
C203  H103  S    
C59   O16   A    
C150  N16   A    
N7    N30   A    
C30   H40   S    
C124  C133  A    
C105  H66   S    
C126  H87   S    
C184  C193  A    
C200  H29   S    
C32   C52   A    
O20   Zn7   S    
C131  C140  A    
N8    N31   A    
C114  H74   S    
C38   C55   A    
C123  C145  A    
O41   Zn11  S    
C66   N22   A    
C75   O37   A    
C180  O7    A    
C10   H38   S    
C4    C12   A    
O30   Zn13  S    
C140  C152  S    
O18   Zn5   S    
C23   C179  S    
C88   C97   A    
C112  O51   A    
C7    C28   A    
C21   C177  S    
C161  H7    S    
C26   C172  S    
C100  C109  A    
C200  C208  A    
O35   Zn4   S    
C113  N23   A    
C120  H81   S    
O23   Zn14  S    
C190  C199  A    
C60   O24   A    
C19   C58   S    
C192  H21   S    
C11   C20   A    
C166  C174  A    
C72   C154  S    
N10   N11   A    
C181  O8    A    
C81   C176  A    
C201  H30   S    
C157  C205  A    
C127  C136  A    
C175  C189  A    
O27   Zn14  S    
C40   H50   S    
C25   C178  S    
C82   C91   A    
C190  H19   S    
C130  H92   S    
C128  H89   S    
C72   O33   A    
C24   C75   S    
C183  O13   A    
C163  C172  A    
C170  H16   S    
C99   C101  S    
C186  H13   S    
C46   N2    A    
C82   H47   S    
C36   C44   A    
C46   N28   A    
C37   C45   A    
O15   Zn2   S    
C150  N14   A    
C189  C197  A    
C16   C25   A    
C57   C104  S    
C146  C181  S    
C79   C97   S    
C106  H67   S    
C71   C187  S    
O7    Zn10  S    
C159  C207  A    
C54   C132  S    
C8    C17   A    
C89   H60   S    
C115  H75   S    
C80   C88   A    
C36   C55   A    
C151  N13   A    
N14   N17   A    
C9    C21   A    
C1    O50   A    
C45   C50   A    
C11   C23   A    
C4    H31   S    
C84   C93   A    
C3    H109  S    
C65   N26   A    
C129  C147  A    
C86   C95   A    
N15   N16   A    
C132  O52   A    
C68   N4    A    
C37   H46   S    
C13   C85   A    
C204  H104  S    
C70   C176  S    
C166  H11   S    
C64   O21   A    
C86   H91   S    
C78   C87   A    
C5    H32   S    
C119  C198  A    
C68   C103  S    
C20   C56   S    
C35   C102  S    
C135  H96   S    
C22   C175  S    
C60   O17   A    
C162  H8    S    
C99   C108  A    
C63   O20   A    
C81   H36   S    
C153  H110  S    
C12   C64   S    
C57   N31   A    
C40   C49   A    
N4    N27   A    
C92   H62   S    
C31   H41   S    
C65   N24   A    
C79   N12   A    
C139  C144  A    
C132  O3    A    
C42   H52   S    
N1    N32   A    
O23   Zn12  S    
O24   Zn11  S    
C63   O27   A    
C32   C41   A    
C181  O6    A    
C35   N29   A    
C77   O48   A    
C94   H64   S    
C87   C96   A    
O22   Zn10  S    
C155  C203  A    
O6    Zn9   S    
O2    Zn8   S    
C55   C143  S    
C162  C171  A    
C191  C200  A    
C73   C165  S    
O46   Zn15  S    
C92   C100  A    
C2    C120  A    
C61   O29   A    
C139  H100  S    
C77   O39   A    
C155  C163  A    
C124  C146  A    
C73   O35   A    
C90   N6    A    
C74   O36   A    
C160  C208  A    
C205  H105  S    
O38   Zn7   S    
C93   H63   S    
O11   Zn14  S    
C172  C185  A    
C160  C169  A    
O1    Zn16  S    
C160  H6    S    
O21   Zn8   S    
O36   Zn5   S    
C208  H108  S    
O16   Zn3   S    
C6    H33   S    
C19   C28   A    
C163  H9    S    
O34   Zn13  S    
C137  C144  A    
C157  H3    S    
C134  H95   S    
C37   C54   A    
O8    Zn11  S    
C117  H77   S    
C4    C27   A    
C53   C112  S    
C167  C175  A    
C30   C52   A    
C197  C206  A    
C177  C190  A    
C194  H23   S    
C131  H93   S    
C34   C43   A    
C118  C187  A    
C43   C50   A    
C90   C96   S    
C47   H56   S    
N18   N21   A    
N3    N23   A    
C89   C98   A    
C14   C22   A    
O40   Zn10  S    
C125  C145  A    
C70   O40   A    
C28   C174  S    
C155  H111  S    
C57   N3    A    
C148  C183  S    
C156  H112  S    
O5    Zn1   S    
O25   Zn1   S    
C195  H24   S    
C58   O26   A    
C151  N10   A    
C9    C18   A    
C62   O19   A    
N24   N25   A    
C16   C61   S    
N9    N13   A    
C39   C48   A    
C183  O10   A    
C91   C99   A    
C24   C86   A    
C125  C134  A    
O34   Zn15  S    
C96   C105  A    
C191  H20   S    
C159  H5    S    
C85   H80   S    
C169  C178  A    
C2    C84   A    
C189  H18   S    
C185  C194  A    
C125  H86   S    
C197  H27   S    
C13   C121  A    
O47   Zn12  S    
C95   C104  A    
O45   Zn3   S    
C121  H82   S    
C193  H22   S    
C119  H79   S    
C75   O46   A    
C113  N8    A    
C44   H54   S    
C45   H55   S    
O9    Zn12  S    
C168  C177  A    
C31   C40   A    
C103  C111  A    
C51   C65   S    
O10   Zn13  S    
C41   H51   S    
C136  C142  A    
C158  C167  A    
O23   Zn7   S    
C192  C201  A    
C79   N5    A    
N5    N28   A    
C9    H37   S    
C143  O4    A    
O28   Zn15  S    
C81   C89   A    
C56   O25   A    
O23   Zn5   S    
C111  H73   S    
C130  C139  A    
C109  H71   S    
C105  C115  A    
C110  H72   S    
C158  H4    S    
C152  N9    A    
C158  C206  A    
C171  C184  A    
N6    N29   A    
C1    O45   A    
N22   N26   A    
C43   H53   S    
O14   Zn16  S    
C128  C148  A    
C98   C113  S    
C47   C51   A    
C195  C204  A    
C8    H35   S    
O50   Zn16  S    
O39   Zn8   S    
C106  C116  A    
C76   O47   A    
C67   N19   A    
N19   N20   A    
C10   C19   A    
O51   Zn2   S    
C24   C122  A    
C71   O41   A    
C35   N32   A    
C83   C198  A    
C107  H68   S    
C5    C14   A    
C90   N1    A    
C207  H107  S    
C87   H57   S    
O12   Zn2   S    
C97   C106  A    
C147  C182  S    
O32   Zn2   S    
C7    C16   A    
C126  C135  A    
C115  C154  A    
O13   Zn15  S    
C3    C201  A    
C116  C165  A    
C116  H76   S    
C161  C170  A    
C33   C42   A    
C80   C165  A    
C109  C119  A    
C153  C202  A    
C164  H10   S    
C193  C202  A    
C69   N18   A    
C123  C131  A    
C80   H25   S    
C83   H58   S    
C78   C154  A    
C122  H83   S    
C168  H14   S    
C93   C102  A    
C88   H59   S    
C206  H106  S    
C101  N27   A    
C133  C141  A    
C95   H65   S    
C153  C162  A    
O1    Zn10  S    
C142  C150  S    
C2    C77   S    
C76   C198  S    
C199  H28   S    
C14   C63   S    
C7    H34   S    
C15   C62   S    
C149  N17   A    
C66   N25   A    
C1    C52   S    
C118  H78   S    
O49   Zn4   S    
C3    C161  A    
C143  O2    A    
C5    C26   A    
C6    C29   A    
C13   C74   S    
O43   Zn9   S    
C62   O30   A    
O1    Zn1   S    
C185  H2    S    
O34   Zn8   S    
C64   O28   A    
C107  C117  A    
C68   N30   A    
C127  H88   S    
C145  C180  S    
C152  N11   A    
O31   Zn16  S    
C44   C51   A    
O48   Zn13  S    
C111  C121  A    
C48   C69   S    
C126  C146  A    
O29   Zn12  S    
O12   Zn11  S    
C83   C92   A    
C196  H26   S    
C17   C26   A    
O33   Zn3   S    
C59   O22   A    
C134  C140  A    
C71   O32   A    
O44   Zn14  S    
C32   H42   S    
C129  H90   S    
C159  C168  A    
C56   O14   A    
C196  C205  A    
C33   H43   S    
C39   H49   S    
C174  C188  A    
C6    C15   A    
O12   Zn4   S    
C136  H97   S    
O26   Zn9   S    
C129  C138  A    
C30   C39   A    
O52   Zn7   S    
C15   C23   A    
C69   N20   A    
O17   Zn4   S    
C184  H102  S    
C182  O11   A    
C108  H70   S    
C20   C29   A    
O42   Zn1   S    
C33   C53   A    
C138  C142  A    
C173  C186  A    
C67   N21   A    
C179  C192  A    
C130  C148  A    
O37   Zn6   S    
C108  C118  A    
C186  C195  A    
C164  C173  A    
C188  H17   S    
C110  C120  A    
C61   O18   A    
C17   C60   S    
C12   C21   A    
C114  C122  A    
C70   O31   A    
C128  C137  A    
C144  C149  S    
C123  H84   S    
C85   C94   A    
C18   C59   S    
C8    C22   A    
C135  C141  A    
C84   H69   S    
C199  C207  A    
O1    Zn3   S    
O34   Zn6   S    
C202  H101  S    
C31   C53   A    
C50   C66   S    
C78   H1    S    
C156  C164  A    
C38   C47   A    
C104  C114  A    
C138  H99   S    
C117  C176  A    
O19   Zn6   S    
C180  O5    A    
C124  H85   S    
C156  C204  A    
C27   C171  S    
C167  H12   S    
C112  O49   A    
C141  C151  S    
O4    Zn6   S    
C46   C100  S    
C49   C67   S    
C170  C179  A    
C18   C27   A    
C29   C173  S    
C91   H61   S    
C157  C166  A    
C94   C103  A    
C34   C54   A    
C36   H45   S    
C82   C187  A    
C11   H39   S    
C149  N15   A    
C72   O42   A    
C10   C25   A    
C178  C191  A    
C169  H15   S    
C194  C203  A    
O3    Zn5   S    
C41   C48   A    
N2    N12   A    
C102  C110  A    
C42   C49   A    
C58   O15   A    
O12   Zn9   S    
C188  C196  A    
C76   O38   A    
C34   H44   S    
C73   O43   A    
C182  O9    A    
C74   O44   A    
C137  H98   S    
C127  C147  A    
C98   C107  A    
