data_mof_unit_59418.cif
_audit_creation_date              2012-12-10T17:40:57-0500
_audit_creation_method            fapswitch 2.2
_symmetry_space_group_name_H-M    P1
_symmetry_Int_Tables_number       1
_space_group_crystal_system       triclinic
_cell_length_a                    14.934038
_cell_length_b                    15.180179
_cell_length_c                    9.93625
_cell_angle_alpha                 89.526485
_cell_angle_beta                  90.000616
_cell_angle_gamma                 89.996495
_cell_volume                      2252.48455883

loop_
_atom_site_label
_atom_site_type_symbol
_atom_type_description
_atom_site_fract_x
_atom_site_fract_y
_atom_site_fract_z
_atom_type_partial_charge
C1    C     C_R   0.382563 0.878154 0.500513 0.861702
C2    C     C_R   0.382584 0.121864 0.499544 0.861659
C3    C     C_R   0.882562 0.378156 0.500512 0.861696
C4    C     C_R   0.882579 0.621859 0.499544 0.861640
C5    C     C_R   0.244619 0.181053 0.577021 -0.207664
C6    C     C_R   0.244495 0.819071 0.423239 -0.197467
C7    C     C_R   0.744576 0.681012 0.576935 -0.207677
C8    C     C_R   0.744478 0.319087 0.423257 -0.197453
C9    C     C_R   0.680978 0.745518 0.578633 -0.196427
C10   C     C_R   0.680892 0.254569 0.421535 -0.196804
C11   C     C_R   0.181022 0.245559 0.578716 -0.196469
C12   C     C_R   0.180908 0.754554 0.421519 -0.196839
C13   C     C_R   0.693381 0.821570 0.501901 -0.102857
C14   C     C_R   0.693377 0.178439 0.498070 -0.097754
C15   C     C_R   0.193392 0.321581 0.501900 -0.102894
C16   C     C_R   0.193381 0.678435 0.498070 -0.097761
C17   C     C_R   0.336445 0.000575 0.139629 -0.199138
C18   C     C_R   0.836445 0.500575 0.139629 -0.199131
C19   C     C_R   0.255723 0.000451 0.069954 -0.320332
C20   C     C_R   0.755723 0.500451 0.069954 -0.320341
C21   C     C_R   0.255121 0.999955 0.929565 0.466158
C22   C     C_R   0.755121 0.499957 0.929565 0.466171
C23   C     C_R   0.336274 0.999584 0.860395 -0.161384
C24   C     C_R   0.836274 0.499585 0.860395 -0.161355
C25   C     C_R   0.419345 0.999909 0.927859 0.081883
C26   C     C_R   0.919344 0.499910 0.927859 0.081873
C27   C     C_R   0.419408 0.000164 0.072177 0.174145
C28   C     C_R   0.919408 0.500164 0.072177 0.174146
C29   C     C_R   0.577108 0.999929 0.071424 -0.102491
C30   C     C_R   0.077108 0.499929 0.071424 -0.102485
C31   C     C_R   0.621886 0.117479 0.499542 0.844088
C32   C     C_R   0.621879 0.882516 0.500408 0.842184
C33   C     C_R   0.121887 0.617477 0.499542 0.844087
C34   C     C_R   0.121883 0.382520 0.500408 0.842189
C35   C     C_R   0.577072 1.000000 0.928455 -0.090142
C36   C     C_R   0.077072 0.499999 0.928455 -0.090140
C37   C     C_R   0.418198 0.285944 0.354013 -0.177022
C38   C     C_R   0.418336 0.713929 0.645552 -0.187198
C39   C     C_R   0.918238 0.785978 0.354168 -0.177007
C40   C     C_R   0.918352 0.213917 0.645512 -0.187174
C41   C     C_R   0.433301 0.365642 0.286993 -0.140188
C42   C     C_R   0.433555 0.634135 0.712253 -0.134821
C43   C     C_R   0.933370 0.865700 0.287230 -0.140177
C44   C     C_R   0.933581 0.134115 0.712197 -0.134817
C45   C     C_R   0.869251 0.932076 0.291383 -0.126602
C46   C     C_R   0.869464 0.067743 0.708028 -0.122414
C47   C     C_R   0.369183 0.432018 0.291145 -0.126659
C48   C     C_R   0.369441 0.567761 0.708077 -0.122454
C49   C     C_R   0.789571 0.918698 0.361691 -0.189518
C50   C     C_R   0.789698 0.081198 0.637942 -0.192999
C51   C     C_R   0.289532 0.418664 0.361534 -0.189492
C52   C     C_R   0.289686 0.581207 0.637971 -0.192988
C53   C     C_R   0.772614 0.837638 0.428475 0.094464
C54   C     C_R   0.772668 0.162318 0.571355 0.094845
C55   C     C_R   0.272598 0.337626 0.428395 0.094496
C56   C     C_R   0.272663 0.662321 0.571371 0.094888
C57   C     C_R   0.337748 0.271078 0.425741 0.105575
C58   C     C_R   0.337799 0.728875 0.574068 0.103345
C59   C     C_R   0.837764 0.771091 0.425820 0.105578
C60   C     C_R   0.837805 0.228871 0.574049 0.103323
C61   C     C_R   0.320998 0.192592 0.498951 -0.104779
C62   C     C_R   0.320957 0.807447 0.501115 -0.088383
C63   C     C_R   0.820988 0.692581 0.498947 -0.104750
C64   C     C_R   0.820954 0.307451 0.501115 -0.088376
H1    H     H_    0.233325 0.120995 0.634414 0.183343
H2    H     H_    0.233140 0.879188 0.365976 0.143517
H3    H     H_    0.733261 0.620932 0.634264 0.183317
H4    H     H_    0.733116 0.379212 0.366009 0.143499
H5    H     H_    0.331257 0.999021 0.753731 0.217110
H6    H     H_    0.831256 0.499023 0.753731 0.217108
H7    H     H_    0.640144 0.000017 0.874880 0.142061
H8    H     H_    0.140144 0.500016 0.874881 0.142054
H9    H     H_    0.470429 0.237047 0.350399 0.152561
H10   H     H_    0.470544 0.762843 0.649192 0.152838
H11   H     H_    0.970464 0.737075 0.350547 0.152521
H12   H     H_    0.970561 0.262831 0.649146 0.152827
H13   H     H_    0.495374 0.376255 0.232958 0.130973
H14   H     H_    0.495706 0.623446 0.766069 0.151892
H15   H     H_    0.995462 0.876330 0.233248 0.130955
H16   H     H_    0.995739 0.123420 0.765997 0.151896
H17   H     H_    0.881560 0.994382 0.240921 0.137476
H18   H     H_    0.881841 0.005384 0.758304 0.143113
H19   H     H_    0.381472 0.494308 0.240626 0.137464
H20   H     H_    0.381813 0.505405 0.758364 0.143105
H21   H     H_    0.742752 0.972924 0.365263 0.143047
H22   H     H_    0.742867 0.026986 0.634363 0.143365
H23   H     H_    0.242719 0.472895 0.365110 0.143082
H24   H     H_    0.242860 0.526991 0.634386 0.143367
H25   H     H_    0.621038 0.735052 0.637658 0.150912
H26   H     H_    0.620898 0.265079 0.362639 0.143799
H27   H     H_    0.121104 0.235110 0.637799 0.150949
H28   H     H_    0.120923 0.765057 0.362610 0.143811
H29   H     H_    0.640205 0.999855 0.124936 0.143415
H30   H     H_    0.140205 0.499855 0.124936 0.143397
H31   H     H_    0.330903 0.001041 0.246251 0.219888
H32   H     H_    0.830903 0.501041 0.246251 0.219885
H33   H     H_    0.193506 0.000693 0.126017 0.144094
H34   H     H_    0.693506 0.500693 0.126017 0.144099
N1    N     N_R   0.498810 0.000000 0.142780 -0.114483
N2    N     N_R   0.998810 0.500000 0.142780 -0.114479
N3    N     N_R   0.498740 0.000000 0.857170 -0.111760
N4    N     N_R   0.998740 0.500000 0.857170 -0.111759
O1    O     O_R   0.408390 0.908380 0.614690 -0.640218
O2    O     O_R   0.408390 0.091620 0.614690 -0.625894
O3    O     O_R   0.908390 0.408380 0.614690 -0.640217
O4    O     O_R   0.908390 0.591620 0.614690 -0.625880
O5    O     O_R   0.408370 0.908380 0.385360 -0.628144
O6    O     O_R   0.408370 0.091620 0.385360 -0.642621
O7    O     O_R   0.908370 0.408380 0.385360 -0.628143
O8    O     O_R   0.908370 0.591620 0.385360 -0.642605
O9    O     O_R   0.591620 0.091610 0.614640 -0.608874
O10   O     O_R   0.591620 0.908390 0.614640 -0.630257
O11   O     O_R   0.091620 0.591610 0.614640 -0.608874
O12   O     O_R   0.091620 0.408390 0.614640 -0.630264
O13   O     O_R   0.591610 0.091610 0.385310 -0.630889
O14   O     O_R   0.591610 0.908390 0.385310 -0.611080
O15   O     O_R   0.091610 0.591610 0.385310 -0.630890
O16   O     O_R   0.091610 0.408390 0.385310 -0.611095
Zn1   Zn    Zn3+2 0.500010 0.000000 0.653130 0.937912
Zn2   Zn    Zn3+2 0.000010 0.500000 0.653130 0.937913
Zn3   Zn    Zn3+2 0.499980 0.000000 0.346870 0.933968
Zn4   Zn    Zn3+2 0.999980 0.500000 0.346870 0.933970
O17   O     O_3   0.176453 0.999854 0.856687 -0.792140
H35   H     H_    0.125154 0.000492 0.920084 0.327443
O18   O     O_3   0.676453 0.499856 0.856687 -0.792134
H36   H     H_    0.625153 0.500494 0.920084 0.327439

loop_
_geom_bond_atom_site_label_1
_geom_bond_atom_site_label_2
_ccdc_geom_bond_type
C34   O16   A    
C29   H29   S    
C58   C62   A    
O13   Zn3   S    
C18   H32   S    
C23   H5    S    
C13   C32   S    
C14   C31   S    
C1    C62   S    
C53   C59   A    
C24   H6    S    
O17   H35   S    
C54   C60   A    
C3    C64   S    
C3    O3    A    
C33   O15   A    
C4    C63   S    
C27   N1    A    
C50   C54   A    
C6    H2    S    
C40   C60   A    
C36   N4    A    
C19   C21   A    
C24   C26   A    
C5    C11   A    
C6    C12   A    
O7    Zn4   S    
C43   H15   S    
C30   N2    A    
C1    O1    A    
C18   C20   A    
O9    Zn1   S    
O16   Zn4   S    
C9    C13   A    
C37   H9    S    
C46   H18   S    
C11   C15   A    
C12   C16   A    
C40   H12   S    
C40   C44   A    
O3    Zn2   S    
C17   H31   S    
C47   H19   S    
O6    Zn3   S    
C15   C34   S    
N2    Zn4   S    
C2    C61   S    
N1    Zn3   S    
O2    Zn1   S    
C28   N2    A    
C35   H7    S    
C38   C58   A    
O12   Zn2   S    
C31   O13   A    
C44   C46   A    
C46   C50   A    
C13   C53   A    
C19   H33   S    
O1    Zn1   S    
O14   Zn3   S    
C29   N1    A    
N3    Zn1   S    
C49   H21   S    
C44   H16   S    
C18   C28   A    
C5    H1    S    
C10   C14   A    
C9    H25   S    
C22   O18   S    
C39   C43   A    
C4    O4    A    
C48   H20   S    
C17   C27   A    
C21   O17   S    
O15   Zn4   S    
C16   C56   A    
C16   C33   S    
O11   Zn2   S    
C45   C49   A    
C39   C59   A    
C41   C47   A    
C5    C61   A    
C42   C48   A    
C32   O14   A    
C57   C61   A    
C43   C45   A    
C7    C63   A    
C8    C64   A    
C14   C54   A    
C1    O5    A    
C2    O2    A    
C8    H4    S    
C39   H11   S    
C21   C23   A    
O18   H36   S    
C22   C24   A    
C59   C63   A    
C25   C27   A    
O5    Zn3   S    
C51   H23   S    
N4    Zn2   S    
C38   H10   S    
C7    C9    A    
C4    O8    A    
C32   O10   A    
O4    Zn2   S    
C26   C28   A    
C12   H28   S    
C45   H17   S    
C20   C22   A    
C35   N3    A    
O10   Zn1   S    
C47   C51   A    
C42   H14   S    
C34   O12   A    
C29   C35   A    
C33   O11   A    
C30   C36   A    
C60   C64   A    
C6    C62   A    
C55   C57   A    
C30   H30   S    
C26   N4    A    
C41   H13   S    
C25   N3    A    
C52   C56   A    
C3    O7    A    
C49   C53   A    
C2    O6    A    
C17   C19   A    
C56   C58   A    
C51   C55   A    
C23   C25   A    
C37   C41   A    
C52   H24   S    
C37   C57   A    
C50   H22   S    
C7    H3    S    
C38   C42   A    
C11   H27   S    
C48   C52   A    
C20   H34   S    
C10   H26   S    
C8    C10   A    
C31   O9    A    
O8    Zn4   S    
C36   H8    S    
C15   C55   A    
