data_mof_unit_8878.cif
_audit_creation_date              2012-12-10T17:52:24-0500
_audit_creation_method            fapswitch 2.2
_symmetry_space_group_name_H-M    P1
_symmetry_Int_Tables_number       1
_space_group_crystal_system       triclinic
_cell_length_a                    18.907138
_cell_length_b                    10.713302
_cell_length_c                    9.892631
_cell_angle_alpha                 89.242212
_cell_angle_beta                  89.681166
_cell_angle_gamma                 93.378841
_cell_volume                      2000.13166913

loop_
_atom_site_label
_atom_site_type_symbol
_atom_type_description
_atom_site_fract_x
_atom_site_fract_y
_atom_site_fract_z
_atom_type_partial_charge
C1    C     C_R   0.501020 0.260516 0.501118 0.823357
C2    C     C_R   0.288224 0.469377 0.502049 -0.032452
C3    C     C_R   0.924372 0.364347 0.504097 0.323694
C4    C     C_R   0.067292 0.366915 0.506675 0.285762
C5    C     C_R   0.808268 0.380840 0.618797 -0.141929
C6    C     C_R   0.739251 0.418345 0.617699 -0.233068
C7    C     C_R   0.709910 0.465201 0.498443 -0.100508
C8    C     C_R   0.751782 0.475724 0.379447 0.411133
C9    C     C_R   0.820536 0.436612 0.381434 -0.191755
C10   C     C_R   0.849283 0.389543 0.500587 0.013954
C11   C     C_R   0.609290 0.146264 0.659929 -0.182028
C12   C     C_R   0.364868 0.495766 0.500510 0.839171
C13   C     C_R   0.662526 0.090767 0.730433 -0.206223
C14   C     C_R   0.672182 0.965027 0.714017 -0.131466
C15   C     C_R   0.627474 0.893330 0.629777 0.350220
C16   C     C_R   0.566921 0.944207 0.570295 0.014414
C17   C     C_R   0.560365 0.074184 0.580083 0.063266
C18   C     C_R   0.507194 0.129153 0.503660 -0.057660
C19   C     C_R   0.460600 0.059211 0.422436 -0.200048
C20   C     C_R   0.463442 0.932097 0.420163 -0.207899
C21   C     C_R   0.514466 0.873890 0.495455 -0.091245
C22   C     C_R   0.405752 0.333694 0.143408 -0.160900
C23   C     C_R   0.506624 0.740031 0.499045 0.960538
C24   C     C_R   0.359353 0.251868 0.074417 -0.201846
C25   C     C_R   0.359584 0.251748 0.934385 -0.187249
C26   C     C_R   0.406199 0.333498 0.862508 -0.157157
C27   C     C_R   0.453755 0.417806 0.929134 0.160796
C28   C     C_R   0.453668 0.417889 0.073889 0.170157
C29   C     C_R   0.544219 0.578888 0.069945 -0.059086
C30   C     C_R   0.544270 0.578763 0.926685 -0.099361
C31   C     C_R   0.634561 0.491085 0.499254 0.984561
C32   C     C_R   0.251837 0.452930 0.625590 -0.200437
C33   C     C_R   0.180341 0.414851 0.627477 -0.158269
C34   C     C_R   0.144167 0.392971 0.505836 0.087393
C35   C     C_R   0.180792 0.408707 0.382382 -0.156887
C36   C     C_R   0.252186 0.447023 0.380497 -0.206992
H1    H     H_    0.278671 0.468026 0.720952 0.161715
H2    H     H_    0.608766 0.246216 0.667847 0.171213
H3    H     H_    0.699112 0.147132 0.791466 0.165505
H4    H     H_    0.424198 0.878365 0.361939 0.156431
H5    H     H_    0.580175 0.643475 0.122556 0.191711
H6    H     H_    0.402339 0.328430 0.250825 0.194229
H7    H     H_    0.322975 0.188217 0.130137 0.150088
H8    H     H_    0.323396 0.188003 0.880960 0.153985
H9    H     H_    0.403420 0.328240 0.755173 0.201229
H10   H     H_    0.153353 0.404177 0.724135 0.153473
H11   H     H_    0.580370 0.643104 0.871389 0.178977
H12   H     H_    0.154212 0.393289 0.286857 0.153885
H13   H     H_    0.279226 0.457459 0.283846 0.161175
H14   H     H_    0.829630 0.345825 0.712348 0.164553
H15   H     H_    0.708539 0.408800 0.710386 0.178258
N1    N     N_R   0.031631 0.358027 0.388433 -0.173100
N2    N     N_R   0.961457 0.356886 0.387155 -0.167319
N3    N     N_R   0.959754 0.366952 0.622927 -0.163701
N4    N     N_R   0.030028 0.368248 0.624166 -0.172415
N5    N     N_R   0.499340 0.498800 0.142780 -0.127288
N6    N     N_R   0.499320 0.498720 0.857170 -0.129124
O1    O     O_R   0.500000 0.316780 0.614690 -0.655699
O2    O     O_R   0.499990 0.316750 0.385360 -0.628699
O3    O     O_R   0.398140 0.500000 0.614700 -0.635886
O4    O     O_R   0.398130 0.499970 0.385370 -0.642021
O5    O     O_R   0.500010 0.683250 0.614640 -0.599192
O6    O     O_R   0.500000 0.683220 0.385310 -0.608175
O7    O     O_R   0.601870 0.500030 0.614630 -0.604169
O8    O     O_R   0.601860 0.500000 0.385300 -0.555673
Zn1   Zn    Zn3+2 0.500000 0.500020 0.653130 0.952440
Zn2   Zn    Zn3+2 0.500000 0.499980 0.346870 0.979480
H16   H     H_    0.717829 0.925202 0.759656 0.184011
Cl1   Cl    Cl    0.662812 0.756778 0.575092 -0.644225
Cl2   Cl    Cl    0.723242 0.542031 0.226401 -0.598987
H17   H     H_    0.852332 0.447397 0.290135 0.186730
H18   H     H_    0.420331 0.103046 0.363811 0.142636

loop_
_geom_bond_atom_site_label_1
_geom_bond_atom_site_label_2
_ccdc_geom_bond_type
C22   H6    S    
C11   H2    S    
C24   C25   A    
C36   H13   S    
O6    Zn2   S    
C16   C21   A    
C33   H10   S    
C29   N5    A    
C6    H15   S    
N5    Zn2   S    
C11   C13   A    
C9    C10   A    
O4    Zn2   S    
C8    Cl2   S    
C19   C20   A    
N6    Zn1   S    
C2    C12   S    
C32   C33   A    
C23   O6    A    
C17   C18   A    
C1    C18   S    
O3    Zn1   S    
C7    C8    A    
C3    C10   S    
C22   C28   A    
C13   C14   A    
N1    N2    A    
C12   O4    A    
C3    N2    A    
N3    N4    A    
C19   H18   S    
C29   C30   A    
C29   H5    S    
C1    O1    A    
C4    N1    A    
C15   Cl1   S    
C35   H12   S    
C31   O7    A    
C25   H8    S    
C33   C34   A    
C6    C7    A    
C4    C34   S    
C1    O2    A    
C4    N4    A    
C26   C27   A    
C5    C6    A    
C20   H4    S    
C3    N3    A    
C22   C24   A    
C5    H14   S    
C13   H3    S    
C7    C31   S    
O5    Zn1   S    
C15   C16   A    
C12   O3    A    
C30   N6    A    
C30   H11   S    
C5    C10   A    
C20   C21   A    
C8    C9    A    
C2    C32   A    
C34   C35   A    
C27   N6    A    
C2    C36   A    
C27   C28   A    
C31   O8    A    
C24   H7    S    
C14   H16   S    
C14   C15   A    
C18   C19   A    
C26   H9    S    
O2    Zn2   S    
C25   C26   A    
C32   H1    S    
C21   C23   S    
O1    Zn1   S    
C23   O5    A    
C11   C17   A    
C28   N5    A    
C9    H17   S    
C16   C17   A    
O8    Zn2   S    
C35   C36   A    
O7    Zn1   S    
