data_mof_unit_46260.cif
_audit_creation_date              2013-03-05T16:10:15-0500
_audit_creation_method            fapswitch 2.2
_symmetry_space_group_name_H-M    P1
_symmetry_Int_Tables_number       1
_space_group_crystal_system       triclinic
_cell_length_a                    9.885633
_cell_length_b                    10.636368
_cell_length_c                    13.225768
_cell_angle_alpha                 90.687493
_cell_angle_beta                  70.328854
_cell_angle_gamma                 90.214643
_cell_volume                      1309.40030246

loop_
_atom_site_label
_atom_site_type_symbol
_atom_site_description
_atom_site_fract_x
_atom_site_fract_y
_atom_site_fract_z
_atom_type_partial_charge
O1    O     O_R   0.385370 0.683250 0.500010 -0.600864
O2    O     O_R   0.614700 0.683220 0.500010 -0.579477
C1    C     C_R   0.501847 0.739645 0.496526 0.894232
O3    O     O_R   0.328400 0.499990 0.653620 -0.632577
O4    O     O_R   0.557730 0.499960 0.653620 -0.562789
C2    C     C_R   0.420395 0.500237 0.703489 0.862329
Zn1   Zn    Zn3+2 0.346870 0.500020 0.500000 0.987168
Zn2   Zn    Zn3+2 0.653130 0.499980 0.500000 0.984629
O5    O     O_R   0.385300 0.316780 0.499990 -0.623186
O6    O     O_R   0.614630 0.316750 0.499990 -0.627198
O7    O     O_R   0.442270 0.500040 0.346380 -0.557920
O8    O     O_R   0.671600 0.500010 0.346380 -0.644442
C3    C     C_R   0.500072 0.260285 0.499419 0.852377
C4    C     C_R   0.579445 0.504040 0.296561 0.905887
C5    C     C_R   0.757609 0.382156 0.022948 -0.185366
H1    H     H_    0.814180 0.387423 0.164712 0.167739
H2    H     H_    0.723787 0.272745 0.853253 0.138107
H3    H     H_    0.839415 0.312622 0.984942 0.144552
C6    C     C_R   0.628627 0.502954 0.180125 -0.152246
C7    C     C_R   0.277373 0.627176 0.855579 -0.175424
C8    C     C_R   0.284961 0.699881 0.941112 -0.157024
C9    C     C_R   0.383926 0.669928 0.990920 -0.068989
C10   C     C_R   0.463252 0.556057 0.966429 0.124938
C11   C     C_R   0.458008 0.484687 0.877017 0.106454
C12   C     C_R   0.554144 0.514035 0.022916 -0.033687
C13   C     C_R   0.656642 0.417495 0.975811 0.163147
C14   C     C_R   0.651191 0.350557 0.886315 -0.158716
C15   C     C_R   0.546887 0.378326 0.842085 -0.176887
C16   C     C_R   0.539703 0.555611 0.128025 0.240456
C17   C     C_R   0.744502 0.425926 0.124719 -0.252807
C18   C     C_R   0.372724 0.526651 0.817870 -0.113967
H4    H     H_    0.211643 0.660051 0.810156 0.155910
H5    H     H_    0.400789 0.740589 0.044402 0.178688
H6    H     H_    0.222094 0.785284 0.963395 0.145392
H7    H     H_    0.540515 0.319092 0.776627 0.138242
C19   C     C_R   0.623432 0.936661 0.421445 0.121646
C20   C     C_R   0.621449 0.066478 0.426681 -0.207684
H8    H     H_    0.711237 0.119698 0.374501 0.137172
C21   C     C_R   0.501315 0.128052 0.496302 -0.029798
C22   C     C_R   0.381783 0.063833 0.561595 -0.194139
H9    H     H_    0.289129 0.113214 0.615257 0.150820
C23   C     C_R   0.383723 0.935175 0.559869 -0.195830
H10   H     H_    0.292436 0.884637 0.613083 0.150202
C24   C     C_R   0.504075 0.872176 0.491433 -0.003666
C25   C     C_R   0.963168 0.438341 0.421276 -0.169424
H11   H     H_    0.937209 0.388996 0.358183 0.147025
C26   C     C_R   0.106575 0.438023 0.421525 0.008875
H12   H     H_    0.188479 0.387963 0.358667 0.158286
N1    N     N_R   0.142790 0.500030 0.500030 -0.101136
C27   C     C_R   0.037899 0.560635 0.578955 -0.146310
H13   H     H_    0.065598 0.609520 0.641542 0.158842
C28   C     C_R   0.894297 0.561479 0.579652 0.373540
N2    N     N_R   0.857180 0.499940 0.500010 -0.136970
N3    N     N_R   0.789508 0.626488 0.666054 0.214980
O9    O     O_R   0.729727 0.727672 0.646704 -0.399321
O10   O     O_R   0.785039 0.606726 0.764003 -0.428148
N4    N     N_R   0.421612 0.633725 0.189619 0.182967
O11   O     O_R   0.290267 0.593694 0.211958 -0.433256
O12   O     O_R   0.445827 0.735525 0.236422 -0.438356
C29   C     C_3   0.748548 0.871961 0.337263 -0.404650
C30   C     C_3   0.880719 0.866864 0.373099 -0.368689
C31   C     C_3   0.001693 0.790338 0.294171 -0.749622
H14   H     H_    0.966383 0.691801 0.289412 0.271191
H15   H     H_    0.034583 0.832547 0.213046 0.248718
H16   H     H_    0.095885 0.789409 0.321983 0.286742
H17   H     H_    0.919905 0.963842 0.379069 0.218708
H18   H     H_    0.851898 0.823297 0.453405 0.274956
H19   H     H_    0.718942 0.775847 0.318567 0.218832
H20   H     H_    0.776101 0.924302 0.260644 0.196814

loop_
_geom_bond_atom_site_label_1
_geom_bond_atom_site_label_2
_geom_bond_distance
_ccdc_geom_bond_type
Zn2   N2    2.017210 S    
O4    Zn2   1.930645 S    
C27   C28   1.416580 A    
C10   C11   1.413070 A    
C20   H8    1.085246 S    
C5    H3    1.084231 S    
C30   H18   1.109537 S    
C26   H12   1.081506 S    
Zn2   O8    1.977771 S    
C30   C31   1.526052 S    
C22   C23   1.368466 A    
C2    C18   1.449253 S    
N4    O11   1.301965 A    
C11   C18   1.406131 A    
C25   N2    1.365887 A    
C26   N1    1.368662 A    
C20   C21   1.393667 A    
O1    Zn1   1.984323 S    
C8    C9    1.390625 A    
C28   N2    1.383634 A    
Zn1   O7    1.930646 S    
Zn1   N1    2.017327 S    
C13   C14   1.390424 A    
C31   H14   1.111196 S    
C23   C24   1.396496 A    
C29   H20   1.112460 S    
O3    Zn1   1.977770 S    
C30   H17   1.111719 S    
O3    C2    1.290679 A    
C19   C20   1.381569 A    
O8    C4    1.292685 A    
C28   N3    1.430558 S    
C27   H13   1.082466 S    
O2    C1    1.283443 A    
C10   C12   1.424152 A    
C12   C16   1.414409 A    
O4    C2    1.294350 A    
O7    C4    1.293656 A    
N3    O10   1.300867 A    
C1    C24   1.411800 S    
C19   C24   1.411849 A    
N4    O12   1.301774 A    
C23   H10   1.084675 S    
H1    C17   1.083762 S    
H2    C14   1.084299 S    
C21   C22   1.389140 A    
C7    C8    1.385302 A    
C29   H19   1.110089 S    
C5    C17   1.383202 A    
Zn2   O6    1.984325 S    
N1    C27   1.356640 A    
C7    H4    1.083946 S    
C25   C26   1.418797 A    
C14   C15   1.380267 A    
Zn1   O5    1.987075 S    
C9    H5    1.076421 S    
O5    C3    1.283613 A    
N3    O9    1.298552 A    
C22   H9    1.084224 S    
C5    C13   1.397693 A    
C31   H15   1.110887 S    
C8    H6    1.082930 S    
C31   H16   1.110483 S    
C19   C29   1.517856 S    
C12   C13   1.427119 A    
C25   H11   1.081799 S    
C6    C17   1.395676 A    
C4    C6    1.450352 S    
O6    C3    1.282116 A    
C9    C10   1.418986 A    
O2    Zn2   1.987075 S    
C3    C21   1.406569 S    
C11   C15   1.409561 A    
C15   H7    1.083399 S    
C16   N4    1.437889 S    
C29   C30   1.533897 S    
O1    C1    1.283560 A    
C7    C18   1.399542 A    
C6    C16   1.407835 A    
