data_mof_unit_24005.cif
_audit_creation_date              2012-12-11T16:04:49-0500
_audit_creation_method            fapswitch 2.2
_symmetry_space_group_name_H-M    P1
_symmetry_Int_Tables_number       1
_space_group_crystal_system       triclinic
_cell_length_a                    10.768228
_cell_length_b                    10.725758
_cell_length_c                    16.896044
_cell_angle_alpha                 99.18902
_cell_angle_beta                  98.715752
_cell_angle_gamma                 61.726396
_cell_volume                      1690.10160738

loop_
_atom_site_label
_atom_site_type_symbol
_atom_type_description
_atom_site_fract_x
_atom_site_fract_y
_atom_site_fract_z
_atom_type_partial_charge
C1    C     C_R   0.355606 0.775322 0.399595 0.541342
C2    C     C_3   0.362285 0.700843 0.251131 -0.123583
C3    C     C_3   0.350058 0.816323 0.321460 0.040275
C4    C     C_R   0.371450 0.346614 0.358974 0.537132
C5    C     C_3   0.445915 0.853516 0.281644 0.006914
C6    C     C_3   0.311935 0.964463 0.238871 -0.129189
C7    C     C_3   0.217127 0.925522 0.279649 -0.143117
C8    C     C_3   0.229053 0.810904 0.209127 0.018373
C9    C     C_3   0.323054 0.849549 0.168709 0.033331
C10   C     C_3   0.432561 0.218669 0.763081 0.029488
C11   C     C_3   0.384421 0.367679 0.739411 0.025899
C12   C     C_3   0.703815 0.419388 0.259909 -0.106313
C13   C     C_3   0.328032 0.323954 0.656490 -0.024754
C14   C     C_3   0.376852 0.174508 0.679818 -0.147381
C15   C     C_3   0.230882 0.227540 0.710726 0.001600
C16   C     C_R   0.781263 0.373787 0.403601 0.545814
C17   C     C_3   0.181251 0.377680 0.685179 -0.154618
C18   C     C_3   0.238448 0.420514 0.769354 0.012043
C19   C     C_3   0.286773 0.271209 0.795055 -0.035097
C20   C     C_1   0.831629 0.337457 0.707428 0.014245
C21   C     C_1   0.871899 0.305487 0.774840 0.067043
C22   C     C_1   0.343666 0.802271 0.711612 0.024500
C23   C     C_3   0.825186 0.342063 0.322751 0.055063
C24   C     C_1   0.320045 0.827449 0.780907 0.056429
C25   C     C_R   0.890484 0.311929 0.090118 0.563493
C26   C     C_R   0.318817 0.299609 0.120019 0.552994
C27   C     C_R   0.293532 0.891382 0.088132 0.541705
C28   C     C_R   0.358121 0.768484 0.627886 0.599696
C29   C     C_R   0.930186 0.280911 0.855423 0.603103
C30   C     C_R   0.277091 0.249658 0.877392 0.575910
C31   C     C_R   0.282669 0.879893 0.860698 0.610015
C32   C     C_R   0.367171 0.345441 0.584116 0.592500
C33   C     C_R   0.776776 0.378819 0.628627 0.592908
C34   C     C_3   0.875755 0.204690 0.265957 -0.123828
C35   C     C_1   0.344679 0.335748 0.275156 -0.053879
C36   C     C_1   0.331745 0.326661 0.203826 -0.057047
C37   C     C_3   0.755441 0.281814 0.201984 -0.129694
C38   C     C_R   0.116206 0.766329 0.176943 0.029219
C39   C     C_R   0.031331 0.764200 0.231266 -0.112129
C40   C     C_R   0.927212 0.721730 0.204110 -0.131722
C41   C     C_R   0.899838 0.690825 0.121978 -0.085726
C42   C     C_R   0.990347 0.682200 0.068067 -0.064386
C43   C     C_R   0.103135 0.712187 0.096256 -0.058656
C44   C     C_2   0.469341 0.447164 0.761683 0.590860
C45   C     C_3   0.971601 0.251724 0.233111 -0.110761
C46   C     C_2   0.578049 0.119148 0.797213 0.621350
C47   C     C_2   0.151907 0.144358 0.680218 0.528209
C48   C     C_2   0.159143 0.563139 0.815500 0.604967
C49   C     C_R   0.558552 0.898961 0.312902 0.022791
C50   C     C_R   0.607516 0.947340 0.258110 -0.115030
C51   C     C_R   0.706435 0.997206 0.283820 -0.104950
C52   C     C_R   0.763928 0.992260 0.363880 -0.066304
C53   C     C_R   0.713212 0.948453 0.419491 -0.082930
C54   C     C_R   0.607904 0.906119 0.394691 -0.075561
C55   C     C_3   0.919893 0.389460 0.290912 -0.118822
C56   C     C_3   0.799454 0.466556 0.227477 -0.110853
C57   C     C_3   0.850182 0.329346 0.170618 0.054248
C58   C     C_3   0.457091 0.739926 0.209902 -0.155968
Cr1   Cr    Cr6+3 0.608340 0.611040 0.520430 1.035749
Cr2   Cr    Cr6+3 0.287650 0.601120 0.489350 1.041324
Cr3   Cr    Cr6+3 0.604040 0.287870 0.490280 1.038535
Cr4   Cr    Cr6+3 0.054020 0.052700 0.970850 1.065928
Cr5   Cr    Cr6+3 0.059230 0.375120 0.993390 1.020779
Cr6   Cr    Cr6+3 0.374950 0.061200 0.992340 1.042987
H1    H     H_    0.596375 0.483334 0.278134 0.118393
H2    H     H_    0.769037 0.572404 0.209887 0.105476
H3    H     H_    0.372129 0.594749 0.256580 0.110044
H4    H     H_    0.545153 0.666108 0.173578 0.107389
H5    H     H_    0.046024 0.794674 0.294822 0.135670
H6    H     H_    0.865489 0.717328 0.247185 0.122245
H7    H     H_    0.811185 0.669679 0.100489 0.129232
H8    H     H_    0.975491 0.648675 0.004970 0.137375
H9    H     H_    0.179587 0.691529 0.054974 0.167692
H10   H     H_    0.564803 0.546128 0.725666 0.321037
H11   H     H_    0.710360 0.922231 0.829291 0.331542
H12   H     H_    0.301767 0.070387 0.232800 0.107545
H13   H     H_    0.060889 0.030879 0.704776 0.342611
H14   H     H_    0.982702 0.751634 0.820880 0.336179
H15   H     H_    0.568659 0.947012 0.195130 0.140751
H16   H     H_    0.741920 0.032990 0.239927 0.116403
H17   H     H_    0.845606 0.024530 0.383543 0.113786
H18   H     H_    0.753020 0.950623 0.482233 0.105520
H19   H     H_    0.564692 0.883847 0.440460 0.141473
H20   H     H_    0.129711 0.999926 0.316134 0.107352
H21   H     H_    0.433769 0.073204 0.641739 0.149841
H22   H     H_    0.078608 0.442854 0.651809 0.170390
H23   H     H_    0.685901 0.241517 0.163978 0.128649
H24   H     H_    0.908236 0.097870 0.282594 0.094790
H25   H     H_    0.078791 0.187743 0.214587 0.115172
H26   H     H_    0.989245 0.430597 0.328370 0.123752
O1    O     O_R   0.751220 0.499230 0.435170 -0.518756
O2    O     O_R   0.412990 0.180750 0.091610 -0.521835
O3    O     O_R   0.366620 0.943130 0.065760 -0.514933
O4    O     O_R   0.477220 0.727600 0.436870 -0.525943
O5    O     O_R   0.160510 0.906330 0.879210 -0.484369
O6    O     O_R   0.930190 0.179050 0.889450 -0.438352
O7    O     O_R   0.909140 0.398170 0.896710 -0.521312
O8    O     O_R   0.186190 0.363460 0.918830 -0.493102
O9    O     O_R   0.401670 0.173200 0.913310 -0.464762
O10   O     O_R   0.356120 0.936130 0.900470 -0.498907
O11   O     O_3   0.162740 0.163010 0.985530 -0.315833
O12   O     O_R   0.297880 0.469080 0.560050 -0.482494
O13   O     O_R   0.258650 0.745120 0.411470 -0.525783
O14   O     O_R   0.297070 0.467240 0.395960 -0.513255
O15   O     O_R   0.488830 0.252610 0.387790 -0.503150
O16   O     O_R   0.724400 0.302390 0.420980 -0.514038
O17   O     O_R   0.752100 0.501210 0.612190 -0.508820
O18   O     O_R   0.478040 0.729440 0.600970 -0.495394
O19   O     O_R   0.259530 0.747110 0.588490 -0.488202
O20   O     O_2   0.502829 0.472291 0.832558 -0.463928
O21   O     O_R   0.509853 0.492024 0.701986 -0.696420
O22   O     O_2   0.668204 0.159420 0.816304 -0.481635
O23   O     O_R   0.489720 0.254590 0.564810 -0.509951
O24   O     O_R   0.609666 0.979436 0.805736 -0.682234
O25   O     O_2   0.119977 0.129952 0.607967 -0.529064
O26   O     O_R   0.116278 0.082320 0.733101 -0.757424
O27   O     O_2   0.212375 0.594826 0.879531 -0.485977
O28   O     O_R   0.025107 0.659233 0.784643 -0.700815
O29   O     O_R   0.725220 0.304230 0.585080 -0.466156
O30   O     O_3   0.500010 0.500010 0.500020 -0.253373
O31   O     O_R   0.171830 0.913880 0.057510 -0.526150
O32   O     O_R   0.940690 0.186050 0.054730 -0.491138
O33   O     O_R   0.920470 0.405720 0.075010 -0.532481
O34   O     O_R   0.196690 0.370460 0.084120 -0.490784

loop_
_geom_bond_atom_site_label_1
_geom_bond_atom_site_label_2
_ccdc_geom_bond_type
C43   H9    S    
C55   C56   S    
C11   C18   S    
Cr1   O30   S    
Cr4   O6    S    
Cr3   O29   S    
C34   C37   S    
C41   C42   A    
C13   C32   S    
C35   C36   T    
C33   O17   A    
C15   C47   S    
Cr5   O11   S    
C50   H15   S    
C6    C9    S    
Cr5   O34   S    
C27   O31   A    
C7    C8    S    
C53   C54   A    
C15   C19   S    
C12   C23   S    
C45   C57   S    
C25   C57   S    
C5    C58   S    
H14   O28   S    
Cr6   O3    S    
C18   C19   S    
C55   H26   S    
C3    C7    S    
C8    C38   S    
C5    C6    S    
C56   H2    S    
C26   O2    A    
C49   C54   A    
C56   C57   S    
C9    C58   S    
C12   C37   S    
C51   H16   S    
Cr2   O19   S    
Cr6   O9    S    
C1    O4    A    
C10   C46   S    
Cr1   O4    S    
C32   O23   A    
H13   O26   S    
Cr3   O15   S    
C46   O22   D    
C1    O13   A    
C16   O16   A    
C41   H7    S    
Cr4   O11   S    
C7    H20   S    
C4    C35   S    
C22   C28   S    
C13   C14   S    
Cr3   O30   S    
C5    C49   S    
C47   O26   S    
C26   O34   A    
Cr2   O12   S    
C54   H19   S    
C50   C51   A    
C6    C7    S    
Cr6   O11   S    
C46   O24   S    
C17   H22   S    
C2    H3    S    
C10   C14   S    
C39   C40   A    
C34   C45   S    
C8    C9    S    
C48   O28   S    
C21   C29   S    
C30   O9    A    
Cr1   O17   S    
C51   C52   A    
C53   H18   S    
C1    C3    S    
C47   O25   D    
C10   C19   S    
C23   C34   S    
C42   H8    S    
C17   C18   S    
C39   H5    S    
C11   C44   S    
H11   O24   S    
C34   H24   S    
C31   O10   A    
C23   C55   S    
Cr3   O16   S    
C25   O33   A    
C12   C56   S    
C40   H6    S    
C20   C33   S    
C26   C36   S    
C40   C41   A    
C33   O29   A    
C16   C23   S    
Cr3   O23   S    
C32   O12   A    
Cr1   O1    S    
C27   O3    A    
C42   C43   A    
Cr6   O2    S    
Cr2   O13   S    
Cr4   O32   S    
C45   H25   S    
C52   C53   A    
C9    C27   S    
C25   O32   A    
C4    O15   A    
C58   H4    S    
C15   C17   S    
C37   H23   S    
C2    C8    S    
C14   H21   S    
C3    C5    S    
C18   C48   S    
C29   O6    A    
Cr5   O33   S    
C2    C58   S    
C6    H12   S    
C48   O27   D    
C29   O7    A    
C28   O19   A    
Cr5   O8    S    
C12   H1    S    
C30   O8    A    
Cr1   O18   S    
C13   C17   S    
C2    C3    S    
C24   C31   S    
C38   C43   A    
Cr5   O7    S    
Cr2   O14   S    
C11   C13   S    
H10   O21   S    
C38   C39   A    
C28   O18   A    
C31   O5    A    
C4    O14   A    
Cr2   O30   S    
C22   C24   T    
C52   H17   S    
C10   C11   S    
C44   O21   S    
Cr6   O10   S    
C20   C21   T    
C45   C55   S    
C16   O1    A    
C49   C50   A    
C14   C15   S    
Cr4   O5    S    
C19   C30   S    
Cr4   O31   S    
C37   C57   S    
C44   O20   D    
