data_mof_unit_17743.cif
_audit_creation_date              2012-10-26T19:52:23-0400
_audit_creation_method            fapswitch 2.2
_symmetry_space_group_name_H-M    P1
_symmetry_Int_Tables_number       1
_space_group_crystal_system       triclinic
_cell_length_a                    9.542314
_cell_length_b                    10.857157
_cell_length_c                    13.435601
_cell_angle_alpha                 91.023697
_cell_angle_beta                  72.576816
_cell_angle_gamma                 90.94737
_cell_volume                      1327.79308828

loop_
_atom_site_label
_atom_site_type_symbol
_atom_type_description
_atom_site_fract_x
_atom_site_fract_y
_atom_site_fract_z
_atom_type_partial_charge
C1    C     C_R   0.499769 0.737522 0.503218 0.550222
C2    C     C_R   0.372415 0.497190 0.815052 -0.009671
C3    C     C_R   0.365850 0.933081 0.531952 0.061824
C4    C     C_R   0.421274 0.496496 0.700169 0.539117
C5    C     C_R   0.496774 0.870184 0.516288 -0.006071
C6    C     C_R   0.623167 0.937586 0.517473 -0.168433
C7    C     C_R   0.621586 0.066176 0.517280 -0.164326
C8    C     C_R   0.494121 0.128641 0.515000 0.000085
C9    C     C_R   0.364060 0.060064 0.531261 -0.004518
C10   C     C_3   0.248588 0.060023 0.476789 -0.268607
C11   C     C_3   0.251672 0.920087 0.477026 -0.021448
C12   C     C_R   0.424654 0.482924 0.982750 0.040879
C13   C     C_R   0.960772 0.455442 0.415627 0.175076
C14   C     C_R   0.893835 0.555888 0.578096 -0.012476
C15   C     C_R   0.042651 0.555818 0.578117 0.009593
C16   C     C_R   0.498186 0.261996 0.502727 0.545873
C17   C     C_R   0.108238 0.454481 0.416179 0.167055
C18   C     C_3   0.125461 0.324816 0.377862 -0.283511
C19   C     C_3   0.969412 0.327471 0.372865 -0.275504
C20   C     C_R   0.578484 0.498719 0.299927 0.543252
C21   C     C_R   0.768203 0.372239 0.033140 -0.135568
C22   C     C_R   0.621903 0.479893 0.186750 -0.005277
C23   C     C_R   0.462283 0.454652 0.874070 0.005142
C24   C     C_R   0.236569 0.549800 0.866190 -0.165556
C25   C     C_R   0.188759 0.559825 0.973776 -0.092519
C26   C     C_R   0.278692 0.526251 0.033337 0.101869
C27   C     C_R   0.533825 0.463303 0.034178 0.026741
C28   C     C_R   0.662305 0.395757 0.982656 0.046489
C29   C     C_R   0.683887 0.351795 0.881446 -0.147035
C30   C     C_R   0.586124 0.381195 0.827709 -0.129375
C31   C     C_R   0.523703 0.513076 0.133153 -0.140978
C32   C     C_R   0.746573 0.412003 0.135590 -0.133995
Cu1   Cu    Cu3+1 0.359330 0.500020 0.500010 0.946921
Cu2   Cu    Cu3+1 0.640670 0.499980 0.499990 0.930185
H1    H     H_    0.722300 0.115546 0.513451 0.124495
H2    H     H_    0.078828 0.592796 0.011810 0.140222
H3    H     H_    0.607183 0.342028 0.750236 0.147784
H4    H     H_    0.725006 0.891743 0.512646 0.134181
H5    H     H_    0.824161 0.386018 0.175754 0.130284
H6    H     H_    0.289974 0.097934 0.396820 0.117092
H7    H     H_    0.034060 0.876068 0.506979 0.221671
H8    H     H_    0.081830 0.907730 0.615795 0.230673
H9    H     H_    0.812262 0.599631 0.642168 0.125147
H10   H     H_    0.136838 0.264805 0.439800 0.141806
H11   H     H_    0.895734 0.261829 0.427066 0.141712
H12   H     H_    0.143900 0.098437 0.527757 0.128498
H13   H     H_    0.440318 0.578145 0.170866 0.121655
H14   H     H_    0.251008 0.445872 0.174516 0.235816
H15   H     H_    0.213662 0.601869 0.179752 0.228526
H16   H     H_    0.292255 0.876326 0.398258 0.151697
H17   H     H_    0.072235 0.599364 0.642132 0.127010
H18   H     H_    0.209734 0.311983 0.301369 0.123499
H19   H     H_    0.962539 0.324304 0.291806 0.131569
H20   H     H_    0.778767 0.296554 0.842599 0.106056
H21   H     H_    0.865578 0.319869 0.994370 0.112102
H22   H     H_    0.165277 0.581786 0.822886 0.124771
N1    N     N_R   0.852320 0.499070 0.499340 -0.237847
N2    N     N_R   0.148230 0.499110 0.499340 -0.232491
N3    N     N_3   0.115951 0.863361 0.542839 -0.622220
N4    N     N_3   0.207103 0.517226 0.143092 -0.658992
O1    O     O_R   0.381190 0.680360 0.500000 -0.474931
O2    O     O_R   0.618780 0.680320 0.499990 -0.505407
O3    O     O_R   0.323230 0.500000 0.650990 -0.509063
O4    O     O_R   0.560820 0.499960 0.650980 -0.515394
O5    O     O_R   0.381220 0.319680 0.500010 -0.499376
O6    O     O_R   0.618810 0.319640 0.500000 -0.517143
O7    O     O_R   0.439180 0.500040 0.349020 -0.504916
O8    O     O_R   0.676770 0.500000 0.349010 -0.493941

loop_
_geom_bond_atom_site_label_1
_geom_bond_atom_site_label_2
_ccdc_geom_bond_type
H8    N3    S    
C10   H12   S    
Cu2   N1    S    
C2    C4    S    
C6    H4    S    
C6    C7    A    
C3    C9    A    
C18   H10   S    
C24   H22   S    
C29   C30   A    
C9    C10   S    
C4    O4    A    
C20   O7    A    
C12   C23   A    
C3    C11   S    
C13   C17   A    
C17   N2    A    
Cu1   O3    S    
C1    O2    A    
C19   H19   S    
C19   H11   S    
C17   C18   S    
C18   H18   S    
C7    C8    A    
C8    C16   S    
C11   H16   S    
C31   H13   S    
C4    O3    A    
Cu2   O6    S    
Cu1   N2    S    
H15   N4    S    
C22   C32   A    
Cu1   O1    S    
C1    C5    S    
Cu2   O4    S    
C28   C29   A    
C15   N2    A    
C21   C28   A    
C20   C22   S    
H14   N4    S    
C15   H17   S    
C10   C11   S    
C2    C24   A    
C5    C6    A    
C21   C32   A    
C11   N3    S    
C13   N1    A    
C29   H20   S    
C13   C19   S    
C12   C27   A    
C27   C31   A    
C23   C30   A    
C2    C23   A    
Cu1   Cu2   S    
C24   C25   A    
H7    N3    S    
C10   H6    S    
C18   C19   S    
C22   C31   A    
C32   H5    S    
Cu2   O8    S    
C27   C28   A    
C21   H21   S    
C14   N1    A    
C14   C15   A    
C8    C9    A    
C16   O6    A    
C16   O5    A    
C25   H2    S    
C25   C26   A    
C7    H1    S    
C20   O8    A    
Cu2   O2    S    
Cu1   O7    S    
Cu1   O5    S    
C30   H3    S    
C12   C26   A    
C14   H9    S    
C3    C5    A    
C26   N4    S    
C1    O1    A    
