data_mof_unit_52262.cif
_audit_creation_date              2012-12-10T17:07:51-0500
_audit_creation_method            fapswitch 2.2
_symmetry_space_group_name_H-M    P1
_symmetry_Int_Tables_number       1
_space_group_crystal_system       triclinic
_cell_length_a                    10.644436
_cell_length_b                    10.693097
_cell_length_c                    10.016673
_cell_angle_alpha                 89.172003
_cell_angle_beta                  89.770921
_cell_angle_gamma                 90.176308
_cell_volume                      1139.98385721

loop_
_atom_site_label
_atom_site_type_symbol
_atom_type_description
_atom_site_fract_x
_atom_site_fract_y
_atom_site_fract_z
_atom_type_partial_charge
C1    C     C_R   0.490049 0.262422 0.500937 0.860559
C2    C     C_2   0.585394 0.556125 0.073810 -0.123820
C3    C     C_R   0.257574 0.498472 0.500215 0.843248
C4    C     C_R   0.503484 0.737564 0.498836 0.957598
C5    C     C_R   0.742110 0.499847 0.499512 0.897544
C6    C     C_3   0.068821 0.377194 0.573839 -0.180889
C7    C     C_3   0.924092 0.378217 0.569142 -0.558877
C8    C     C_3   0.072262 0.618388 0.567499 -0.420073
C9    C     C_3   0.071993 0.497922 0.354398 -0.413710
C10   C     C_3   0.120792 0.497602 0.500896 0.014738
C11   C     C_2   0.113436 0.359365 0.716651 0.950566
C12   C     C_3   0.878301 0.499635 0.498733 0.074259
C13   C     C_3   0.859781 0.819204 0.612415 -0.329437
C14   C     C_2   0.382822 0.080929 0.620365 0.972174
C15   C     C_3   0.927615 0.615969 0.574601 0.394044
C16   C     C_3   0.929369 0.501904 0.353133 -0.371281
C17   C     C_2   0.467462 0.933192 0.389618 -0.108996
C18   C     C_2   0.512164 0.869919 0.494759 -0.287989
C19   C     C_2   0.471352 0.067875 0.389699 -0.236967
C20   C     C_2   0.452928 0.132704 0.502069 -0.217502
C21   C     C_2   0.581255 0.561937 0.923619 -0.120411
H1    H     H_    0.897827 0.587979 0.299214 0.214277
H2    H     H_    0.424152 0.462904 0.103075 0.167473
H3    H     H_    0.890341 0.295193 0.513559 0.178462
H4    H     H_    0.882469 0.370223 0.671165 0.207050
H5    H     H_    0.111419 0.629464 0.669276 0.188548
H6    H     H_    0.898850 0.604428 0.681723 0.108630
H7    H     H_    0.108899 0.580669 0.297647 0.201103
H8    H     H_    0.104407 0.412587 0.302003 0.187857
H9    H     H_    0.893380 0.419982 0.297243 0.181216
H10   H     H_    0.112590 0.419936 0.906522 0.335661
H11   H     H_    0.948197 0.839113 0.667213 0.175512
H12   H     H_    0.104975 0.701457 0.508457 0.201186
H13   H     H_    0.783718 0.791027 0.683255 0.158243
H14   H     H_    0.830045 0.906965 0.561465 0.202716
H15   H     H_    0.243097 0.968903 0.689015 0.343994
H16   H     H_    0.432822 0.886739 0.301202 0.177484
H17   H     H_    0.553160 0.915916 0.580303 0.133794
H18   H     H_    0.504879 0.112436 0.298052 0.188270
H19   H     H_    0.651339 0.619215 0.872687 0.153289
H20   H     H_    0.439009 0.441802 0.898990 0.186906
H21   H     H_    0.663082 0.602704 0.122423 0.162191
H22   H     H_    0.101737 0.294784 0.516447 0.137025
N1    N     N_2   0.501360 0.501330 0.852150 -0.182809
N2    N     N_2   0.501390 0.501360 0.147810 -0.192836
O1    O     O_R   0.499980 0.319060 0.613040 -0.564994
O2    O     O_R   0.076564 0.442503 0.815814 -0.836599
O3    O     O_3   0.877980 0.726710 0.515298 -0.615960
O4    O     O_2   0.411573 0.111941 0.733275 -0.591457
O5    O     O_R   0.283150 0.997442 0.601726 -0.794228
O6    O     O_R   0.500020 0.319100 0.386900 -0.617993
O7    O     O_R   0.314770 0.499960 0.613070 -0.603795
O8    O     O_R   0.314820 0.500000 0.386930 -0.628001
O9    O     O_R   0.499980 0.680900 0.613100 -0.613850
O10   O     O_R   0.500020 0.680940 0.386960 -0.611814
O11   O     O_R   0.685180 0.500000 0.613070 -0.637577
O12   O     O_R   0.685230 0.500040 0.386930 -0.621255
O13   O     O_2   0.180182 0.270254 0.745428 -0.610409
Zn1   Zn    Zn3+2 0.499970 0.499970 0.650990 0.989778
Zn2   Zn    Zn3+2 0.500030 0.500030 0.349010 0.948136

loop_
_geom_bond_atom_site_label_1
_geom_bond_atom_site_label_2
_ccdc_geom_bond_type
C6    C10   S    
C13   O3    S    
C16   H1    S    
C3    O7    A    
O11   Zn1   S    
N2    Zn2   S    
C6    C7    S    
H2    N2    S    
O7    Zn1   S    
C5    O12   A    
O1    Zn1   S    
C11   O13   D    
C8    H5    S    
C9    C10   S    
C13   H11   S    
C11   O2    S    
C19   C20   D    
C7    H4    S    
C12   C15   S    
C9    H8    S    
C8    H12   S    
C4    C18   S    
C2    C21   S    
C17   C18   D    
C18   H17   S    
C13   H13   S    
C2    N2    D    
C3    C10   S    
H10   O2    S    
O10   Zn2   S    
C3    O8    A    
C14   O5    S    
C21   H19   S    
C19   H18   S    
C15   O3    S    
C2    H21   S    
C17   C19   S    
C9    C16   S    
C13   H14   S    
C8    C15   S    
O9    Zn1   S    
C4    O10   A    
C7    C12   S    
H20   N1    S    
C1    O1    A    
O6    Zn2   S    
C14   O4    D    
N1    Zn1   S    
C16   H9    S    
C7    H3    S    
C21   N1    D    
C14   C20   S    
H15   O5    S    
C5    C12   S    
C8    C10   S    
C6    C11   S    
C6    H22   S    
O12   Zn2   S    
C17   H16   S    
C1    O6    A    
C5    O11   A    
C4    O9    A    
C15   H6    S    
O8    Zn2   S    
C12   C16   S    
C9    H7    S    
C1    C20   S    
