data_mof_unit_35073.cif
_audit_creation_date              2012-12-11T14:30:22-0500
_audit_creation_method            fapswitch 2.2
_symmetry_space_group_name_H-M    P1
_symmetry_Int_Tables_number       1
_space_group_crystal_system       triclinic
_cell_length_a                    12.749854
_cell_length_b                    12.749855
_cell_length_c                    26.865787
_cell_angle_alpha                 90.0
_cell_angle_beta                  90.000011
_cell_angle_gamma                 120.000193
_cell_volume                      3782.15925458

loop_
_atom_site_label
_atom_site_type_symbol
_atom_type_description
_atom_site_fract_x
_atom_site_fract_y
_atom_site_fract_z
_atom_type_partial_charge
C1    C     C_R   0.555927 0.457552 0.821163 0.549668
C2    C     C_R   0.457450 0.557933 0.177961 0.546768
C3    C     C_R   0.952723 0.294214 0.469636 -0.128077
C4    C     C_R   0.294587 0.961106 0.020990 -0.133882
C5    C     C_R   0.705786 0.658508 0.469636 -0.128077
C6    C     C_R   0.333482 0.038896 0.520990 -0.133883
C7    C     C_R   0.047276 0.341491 0.969636 -0.128077
C8    C     C_R   0.705414 0.666519 0.520990 -0.133882
C9    C     C_R   0.294215 0.952724 0.969636 -0.128077
C10   C     C_R   0.961105 0.294586 0.520990 -0.133882
C11   C     C_R   0.658509 0.705785 0.969636 -0.128077
C12   C     C_1   0.976760 0.778411 0.054376 0.198561
C13   C     C_R   0.444073 0.901626 0.321163 0.549669
C14   C     C_1   0.774995 0.962234 0.448905 0.183308
C15   C     C_1   0.221587 0.198347 0.054376 0.198561
C16   C     C_1   0.037766 0.812762 0.448905 0.183308
C17   C     C_1   0.801652 0.023240 0.054376 0.198561
C18   C     C_1   0.187238 0.225004 0.448905 0.183310
C19   C     C_1   0.778411 0.976759 0.554376 0.198562
C20   C     C_1   0.962235 0.774996 0.948905 0.183308
C21   C     C_1   0.198347 0.221588 0.554376 0.198562
C22   C     C_1   0.812761 0.037765 0.948905 0.183308
C23   C     C_1   0.023241 0.801652 0.554376 0.198562
C24   C     C_R   0.100483 0.542550 0.177961 0.546767
C25   C     C_1   0.225003 0.187238 0.948905 0.183307
C26   C     C_2   0.990829 0.300073 0.127589 0.610241
C27   C     C_2   0.360132 0.065967 0.360380 0.592240
C28   C     C_2   0.699926 0.690756 0.127589 0.610241
C29   C     C_2   0.934034 0.294163 0.360380 0.592239
C30   C     C_2   0.309245 0.009171 0.127589 0.610241
C31   C     C_2   0.705836 0.639870 0.360380 0.592239
C32   C     C_2   0.300074 0.990830 0.627589 0.610241
C33   C     C_2   0.065964 0.360128 0.860381 0.592239
C34   C     C_2   0.690756 0.699926 0.627589 0.610241
C35   C     C_R   0.008875 0.509861 0.971647 0.036179
C36   C     C_2   0.294163 0.934035 0.860380 0.592239
C37   C     C_2   0.009170 0.309245 0.627589 0.610241
C38   C     C_2   0.639871 0.705836 0.860380 0.592240
C39   C     C_R   0.511011 0.015342 0.524118 0.034891
C40   C     C_R   0.490138 0.499014 0.971647 0.036179
C41   C     C_R   0.984658 0.495669 0.524118 0.034891
C42   C     C_R   0.500986 0.991125 0.971647 0.036179
C43   C     C_R   0.504331 0.488989 0.524118 0.034891
C44   C     C_R   0.509862 0.008876 0.471647 0.036179
C45   C     C_R   0.899517 0.442067 0.677961 0.546766
C46   C     C_R   0.015341 0.511010 0.024118 0.034891
C47   C     C_R   0.499014 0.490138 0.471647 0.036179
C48   C     C_R   0.495669 0.984659 0.024118 0.034891
C49   C     C_R   0.991124 0.500986 0.471647 0.036179
C50   C     C_R   0.488989 0.504331 0.024118 0.034891
C51   C     C_R   0.977090 0.683310 0.974372 -0.037978
C52   C     C_R   0.688183 0.989638 0.526620 -0.029621
C53   C     C_R   0.316689 0.293779 0.974372 -0.037978
C54   C     C_R   0.010361 0.698545 0.526620 -0.029621
C55   C     C_R   0.706221 0.022910 0.974372 -0.037978
C56   C     C_R   0.542447 0.098374 0.821163 0.549668
C57   C     C_R   0.301454 0.311816 0.526620 -0.029621
C58   C     C_R   0.683310 0.977089 0.474372 -0.037978
C59   C     C_R   0.989639 0.688184 0.026620 -0.029621
C60   C     C_R   0.293778 0.316689 0.474372 -0.037979
C61   C     C_R   0.698545 0.010361 0.026620 -0.029621
C62   C     C_R   0.022911 0.706221 0.474372 -0.037978
C63   C     C_R   0.311815 0.301455 0.026620 -0.029621
C64   C     C_R   0.960529 0.578001 0.895443 -0.135659
C65   C     C_R   0.609012 0.030510 0.603540 -0.124268
C66   C     C_R   0.421999 0.382528 0.895443 -0.135659
C67   C     C_R   0.557933 0.457450 0.677961 0.546768
C68   C     C_R   0.969490 0.578502 0.603540 -0.124268
C69   C     C_R   0.617471 0.039471 0.895443 -0.135659
C70   C     C_R   0.421497 0.390988 0.603540 -0.124268
C71   C     C_R   0.578001 0.960529 0.395443 -0.135660
C72   C     C_R   0.030510 0.609012 0.103540 -0.124268
C73   C     C_R   0.382528 0.421999 0.395443 -0.135660
C74   C     C_R   0.578502 0.969490 0.103540 -0.124268
C75   C     C_R   0.039471 0.617472 0.395443 -0.135660
C76   C     C_R   0.390987 0.421498 0.103540 -0.124268
C77   C     C_R   0.041995 0.518409 0.128181 -0.018595
C78   C     C_R   0.901626 0.444073 0.821163 0.549665
C79   C     C_R   0.488112 0.968893 0.368608 -0.013226
C80   C     C_R   0.481590 0.523586 0.128181 -0.018595
C81   C     C_R   0.031107 0.519219 0.368608 -0.013227
C82   C     C_R   0.476415 0.958005 0.128181 -0.018595
C83   C     C_R   0.480780 0.511888 0.368608 -0.013228
C84   C     C_R   0.518409 0.041995 0.628181 -0.018595
C85   C     C_R   0.968893 0.488112 0.868608 -0.013228
C86   C     C_R   0.523586 0.481590 0.628181 -0.018595
C87   C     C_R   0.519219 0.031107 0.868608 -0.013227
C88   C     C_R   0.958005 0.476414 0.628181 -0.018595
C89   C     C_R   0.542550 0.100483 0.677961 0.546767
C90   C     C_R   0.511888 0.480781 0.868608 -0.013227
C91   C     C_R   0.984628 0.592886 0.946836 -0.010946
C92   C     C_R   0.602524 0.009794 0.551735 -0.004347
C93   C     C_R   0.407114 0.391742 0.946836 -0.010946
C94   C     C_R   0.990206 0.592730 0.551735 -0.004346
C95   C     C_R   0.608257 0.015372 0.946836 -0.010946
C96   C     C_R   0.407270 0.397476 0.551735 -0.004346
C97   C     C_R   0.592886 0.984628 0.446836 -0.010947
C98   C     C_R   0.009794 0.602524 0.051735 -0.004347
C99   C     C_R   0.391742 0.407114 0.446836 -0.010947
C100  C     C_R   0.457552 0.555927 0.321163 0.549668
C101  C     C_R   0.592730 0.990206 0.051735 -0.004346
C102  C     C_R   0.015372 0.608257 0.446835 -0.010947
C103  C     C_R   0.397476 0.407270 0.051735 -0.004346
C104  C     C_R   0.019238 0.423993 0.891649 0.051825
C105  C     C_R   0.414111 0.021234 0.601220 0.048597
C106  C     C_R   0.576007 0.595245 0.891649 0.051824
C107  C     C_R   0.978766 0.392877 0.601220 0.048597
C108  C     C_R   0.404755 0.980762 0.891649 0.051824
C109  C     C_R   0.607123 0.585889 0.601220 0.048597
C110  C     C_R   0.423995 0.019239 0.391648 0.051823
C111  C     C_R   0.442067 0.899517 0.177961 0.546767
C112  C     C_R   0.021233 0.414110 0.101220 0.048597
C113  C     C_R   0.595245 0.576006 0.391649 0.051823
C114  C     C_R   0.392877 0.978767 0.101220 0.048597
C115  C     C_R   0.980761 0.404755 0.391649 0.051823
C116  C     C_R   0.585889 0.607123 0.101220 0.048597
C117  C     C_R   0.026936 0.425387 0.944020 -0.007230
C118  C     C_R   0.418175 0.024188 0.548964 -0.010782
C119  C     C_R   0.574613 0.601549 0.944020 -0.007230
C120  C     C_R   0.975812 0.393988 0.548964 -0.010782
C121  C     C_R   0.398450 0.973064 0.944020 -0.007230
C122  C     C_R   0.098374 0.542447 0.321163 0.549668
C123  C     C_R   0.606012 0.581825 0.548964 -0.010783
C124  C     C_R   0.425388 0.026937 0.444020 -0.007231
C125  C     C_R   0.024187 0.418175 0.048964 -0.010782
C126  C     C_R   0.601550 0.574613 0.444020 -0.007231
C127  C     C_R   0.393988 0.975813 0.048964 -0.010782
C128  C     C_R   0.973063 0.398450 0.444020 -0.007231
C129  C     C_R   0.581825 0.606012 0.048964 -0.010782
C130  C     C_R   0.038893 0.333480 0.020990 -0.133882
C131  C     C_R   0.341493 0.047279 0.469636 -0.128077
C132  C     C_R   0.666520 0.705414 0.020990 -0.133882
Cr1   Cr    Cr6+3 0.487630 0.241180 0.750000 1.098427
Cr2   Cr    Cr6+3 0.753550 0.512370 0.750000 1.098427
Cr3   Cr    Cr6+3 0.758820 0.246450 0.750000 1.098428
Cr4   Cr    Cr6+3 0.241180 0.487630 0.250000 1.098427
Cr5   Cr    Cr6+3 0.512370 0.753550 0.250000 1.098427
Cr6   Cr    Cr6+3 0.246450 0.758820 0.250000 1.098426
H1    H     H_    0.041391 0.686011 0.124750 0.182626
H2    H     H_    0.703542 0.072619 0.876710 0.171737
H3    H     H_    0.958609 0.644621 0.624749 0.182626
H4    H     H_    0.369077 0.296458 0.876710 0.171735
H5    H     H_    0.048391 0.262590 0.038386 0.173816
H6    H     H_    0.277094 0.063899 0.450471 0.180994
H7    H     H_    0.737411 0.785802 0.038386 0.173817
H8    H     H_    0.936102 0.213195 0.450472 0.180992
H9    H     H_    0.214199 0.951609 0.038386 0.173816
H10   H     H_    0.786805 0.722908 0.450472 0.180993
H11   H     H_    0.262591 0.048394 0.538386 0.173816
H12   H     H_    0.630922 0.927380 0.376710 0.171736
H13   H     H_    0.063895 0.277091 0.950471 0.180990
H14   H     H_    0.785802 0.737410 0.538386 0.173817
H15   H     H_    0.213195 0.936105 0.950472 0.180993
H16   H     H_    0.951608 0.214198 0.538386 0.173816
H17   H     H_    0.722909 0.786805 0.950472 0.180993
H18   H     H_    0.869728 0.161463 0.169818 0.353650
H19   H     H_    0.374128 0.182725 0.306639 0.350525
H20   H     H_    0.838536 0.708265 0.169818 0.353650
H21   H     H_    0.817272 0.191396 0.306642 0.350525
H22   H     H_    0.291737 0.130273 0.169818 0.353649
H23   H     H_    0.313988 0.355379 0.124749 0.182626
H24   H     H_    0.808603 0.625875 0.306641 0.350525
H25   H     H_    0.161464 0.869729 0.669817 0.353650
H26   H     H_    0.182732 0.374123 0.806645 0.350524
H27   H     H_    0.708266 0.838536 0.669818 0.353650
H28   H     H_    0.191395 0.817272 0.806642 0.350524
H29   H     H_    0.130272 0.291737 0.669818 0.353650
H30   H     H_    0.625876 0.808604 0.806642 0.350525
H31   H     H_    0.072619 0.703542 0.376710 0.171735
H32   H     H_    0.644621 0.958609 0.124749 0.182626
H33   H     H_    0.296457 0.369077 0.376710 0.171737
H34   H     H_    0.686011 0.041390 0.624750 0.182626
H35   H     H_    0.927381 0.630923 0.876710 0.171736
H36   H     H_    0.355378 0.313988 0.624750 0.182627
N1    N     N_1   0.966524 0.850422 0.076571 -0.183601
N2    N     N_1   0.897006 0.048251 0.928324 -0.175527
N3    N     N_1   0.033477 0.883899 0.576570 -0.183601
N4    N     N_1   0.151243 0.102993 0.928324 -0.175528
N5    N     N_1   0.848754 0.951747 0.428324 -0.175527
N6    N     N_1   0.149576 0.116100 0.076571 -0.183600
N7    N     N_1   0.048253 0.897007 0.428324 -0.175526
N8    N     N_1   0.883899 0.033476 0.076570 -0.183601
N9    N     N_1   0.102992 0.151244 0.428324 -0.175525
N10   N     N_1   0.850422 0.966523 0.576571 -0.183601
N11   N     N_1   0.951748 0.848755 0.928324 -0.175527
N12   N     N_1   0.116100 0.149577 0.576571 -0.183600
O1    O     O_R   0.460870 0.120930 0.805240 -0.474859
O2    O     O_R   0.120930 0.460870 0.194760 -0.470180
O3    O     O_R   0.539130 0.660060 0.305240 -0.474859
O4    O     O_R   0.339940 0.879070 0.194760 -0.470180
O5    O     O_R   0.498910 0.350470 0.801870 -0.504953
O6    O     O_R   0.851560 0.501090 0.698130 -0.496972
O7    O     O_R   0.649530 0.148440 0.801870 -0.504951
O8    O     O_R   0.498910 0.350470 0.698130 -0.496972
O9    O     O_R   0.851560 0.501090 0.801870 -0.504952
O10   O     O_R   0.649530 0.148440 0.698130 -0.496972
O11   O     O_R   0.350470 0.498910 0.301870 -0.504952
O12   O     O_R   0.660060 0.539130 0.694760 -0.470181
O13   O     O_R   0.501090 0.851560 0.198130 -0.496972
O14   O     O_R   0.148440 0.649530 0.301870 -0.504953
O15   O     O_R   0.350470 0.498910 0.198130 -0.496972
O16   O     O_R   0.501090 0.851560 0.301870 -0.504953
O17   O     O_R   0.148440 0.649530 0.198130 -0.496972
O18   O     O_3   0.666667 0.333333 0.750000 -0.277113
O19   O     O_3   0.333333 0.666667 0.250000 -0.277113
O20   O     O_2   0.064022 0.264879 0.129385 -0.504941
O21   O     O_R   0.880119 0.236727 0.152492 -0.666587
O22   O     O_2   0.250174 0.020405 0.362594 -0.486891
O23   O     O_R   0.879070 0.339940 0.805240 -0.474858
O24   O     O_R   0.426754 0.158855 0.326373 -0.652554
O25   O     O_2   0.735122 0.799144 0.129385 -0.504940
O26   O     O_R   0.763273 0.643393 0.152492 -0.666587
O27   O     O_2   0.979600 0.229772 0.362593 -0.486889
O28   O     O_R   0.841141 0.267892 0.326375 -0.652555
O29   O     O_2   0.200857 0.935979 0.129385 -0.504940
O30   O     O_R   0.356609 0.119881 0.152492 -0.666587
O31   O     O_2   0.770228 0.749829 0.362593 -0.486888
O32   O     O_R   0.732107 0.573249 0.326375 -0.652556
O33   O     O_2   0.264879 0.064023 0.629385 -0.504941
O34   O     O_R   0.460870 0.120930 0.694760 -0.470180
O35   O     O_R   0.236727 0.880121 0.652492 -0.666587
O36   O     O_2   0.020392 0.250169 0.862592 -0.486886
O37   O     O_R   0.158864 0.426750 0.826379 -0.652556
O38   O     O_2   0.799144 0.735121 0.629385 -0.504941
O39   O     O_R   0.643394 0.763273 0.652492 -0.666587
O40   O     O_2   0.229773 0.979602 0.862593 -0.486889
O41   O     O_R   0.267891 0.841141 0.826376 -0.652556
O42   O     O_2   0.935978 0.200857 0.629385 -0.504941
O43   O     O_R   0.119880 0.356608 0.652492 -0.666587
O44   O     O_2   0.749829 0.770228 0.862593 -0.486888
O45   O     O_R   0.660060 0.539130 0.805240 -0.474859
O46   O     O_R   0.573250 0.732108 0.826376 -0.652556
O47   O     O_R   0.879070 0.339940 0.694760 -0.470180
O48   O     O_R   0.120930 0.460870 0.305240 -0.474859
O49   O     O_R   0.539130 0.660060 0.194760 -0.470181
O50   O     O_R   0.339940 0.879070 0.305240 -0.474860

loop_
_geom_bond_atom_site_label_1
_geom_bond_atom_site_label_2
_ccdc_geom_bond_type
C65   C92   A    
C23   N3    T    
H24   O32   S    
C24   O17   A    
C1    C90   S    
C26   O20   D    
C26   C112  S    
C106  C119  A    
C36   C108  S    
C33   C104  S    
C53   C63   A    
C83   C113  A    
C46   C125  A    
Cr6   O50   S    
C100  O3    A    
C40   C93   A    
C60   C99   A    
C11   C119  A    
C11   C132  A    
C10   H16   S    
C71   C79   A    
C32   O35   S    
C74   C101  A    
C21   N12   T    
C38   O44   D    
Cr5   O19   S    
C28   O25   D    
C37   O43   S    
C71   C97   A    
C56   C87   S    
C47   C126  A    
C132  H7    S    
C70   C96   A    
C8    H14   S    
C45   O47   A    
C37   C107  S    
C20   C51   S    
C2    O15   A    
Cr4   O19   S    
C17   C61   S    
C37   O42   D    
C71   H12   S    
H30   O46   S    
Cr5   O16   S    
C48   C101  A    
C35   C91   A    
H22   O30   S    
C47   C99   A    
C13   O16   A    
Cr2   O12   S    
C27   O22   D    
C44   C97   A    
Cr2   O6    S    
H18   O21   S    
C7    C117  A    
C7    C130  A    
C28   C116  S    
C51   C91   A    
C20   N11   T    
C6    H11   S    
C19   C52   S    
C72   H1    S    
C116  C129  A    
C80   C116  A    
C27   C110  S    
H28   O41   S    
C57   C96   A    
Cr4   O48   S    
C5    C126  A    
C75   H31   S    
C75   C102  A    
C9    C121  A    
Cr3   O47   S    
Cr5   O49   S    
C67   O8    A    
C108  C121  A    
C14   N5    T    
C69   C87   A    
C11   H17   S    
C129  C132  A    
C111  O13   A    
C33   O36   D    
C67   O12   A    
C76   C103  A    
C30   O29   D    
C9    H15   S    
C50   C103  A    
H21   O28   S    
C15   N6    T    
Cr4   O2    S    
C12   C59   S    
C76   H23   S    
Cr6   O4    S    
C58   C97   A    
C16   C62   S    
C74   C82   A    
C17   N8    T    
C41   C49   A    
Cr4   O15   S    
Cr6   O19   S    
C34   O38   D    
H29   O43   S    
H25   O35   S    
H20   O26   S    
C14   C58   S    
Cr1   O34   S    
C54   C94   A    
C87   C108  A    
C65   H34   S    
C53   C93   A    
C42   C95   A    
Cr5   O13   S    
C34   O39   S    
C10   C120  A    
C82   C114  A    
C66   C90   A    
C64   C85   A    
C49   C102  A    
C88   C107  A    
Cr1   O1    S    
C25   N4    T    
C109  C123  A    
C57   C60   A    
C38   O46   S    
C113  C126  A    
C54   C62   A    
C69   C95   A    
Cr3   O10   S    
C89   O10   A    
C44   C124  A    
C27   O24   S    
C68   C94   A    
C115  C128  A    
C29   C115  S    
C124  C131  A    
C38   C106  S    
C77   C112  A    
C61   C101  A    
C21   C57   S    
C72   C77   A    
C72   C98   A    
C50   C129  A    
Cr3   O7    S    
Cr6   O17   S    
C1    O45   A    
C45   O6    A    
C29   O27   D    
C41   C94   A    
C56   O1    A    
C34   C109  S    
C31   O31   D    
C81   C115  A    
H27   O39   S    
C43   C96   A    
Cr4   O11   S    
C68   H3    S    
C42   C48   A    
Cr2   O45   S    
C130  H5    S    
C70   H36   S    
C78   O23   A    
C90   C106  A    
C112  C125  A    
Cr3   O18   S    
C85   C104  A    
C52   C58   A    
C111  O4    A    
C12   N1    T    
Cr5   O3    S    
C45   C88   S    
C33   O37   S    
C78   C85   S    
C55   C95   A    
Cr2   O9    S    
Cr3   O23   S    
C36   O41   S    
C32   C105  S    
C66   C93   A    
C68   C88   A    
C7    H13   S    
C105  C118  A    
C35   C117  A    
C73   H33   S    
C84   C89   S    
C39   C44   A    
C63   C103  A    
C70   C86   A    
C43   C123  A    
C39   C92   A    
C13   C79   S    
Cr1   O5    S    
C23   C54   S    
C104  C117  A    
C30   C114  S    
C18   C60   S    
C73   C99   A    
C49   C128  A    
C67   C86   S    
C36   O40   D    
C1    O5    A    
C79   C110  A    
C122  O48   A    
C16   N7    T    
C75   C81   A    
C86   C109  A    
C76   C80   A    
C25   C53   S    
C6    C131  A    
C65   C84   A    
C26   O21   S    
C19   N10   T    
C5    C8    A    
C22   N2    T    
C8    C123  A    
Cr2   O18   S    
C22   C55   S    
C66   H4    S    
C28   O26   S    
C39   C118  A    
Cr1   O8    S    
C81   C122  S    
C24   O2    A    
C82   C111  S    
C31   O32   S    
C3    C128  A    
C4    C9    A    
C3    C10   A    
C100  O11   A    
C48   C127  A    
C114  C127  A    
C4    H9    S    
H26   O37   S    
C107  C120  A    
C29   O28   S    
C18   N9    T    
Cr1   O18   S    
C40   C50   A    
C84   C105  A    
C55   C61   A    
C31   C113  S    
C78   O9    A    
C41   C120  A    
C46   C98   A    
C74   H32   S    
C32   O33   D    
C2    C80   S    
C69   H2    S    
C125  C130  A    
C30   O30   S    
C56   O7    A    
C83   C100  S    
C2    O49   A    
H19   O24   S    
C40   C119  A    
C51   C59   A    
C3    H8    S    
C89   O34   A    
C13   O50   A    
C24   C77   S    
C5    H10   S    
C59   C98   A    
C15   C63   S    
C110  C124  A    
C64   C91   A    
C122  O14   A    
C64   H35   S    
C35   C46   A    
C43   C47   A    
C73   C83   A    
C4    C127  A    
C52   C92   A    
C131  H6    S    
C42   C121  A    
C6    C118  A    
C62   C102  A    
Cr6   O14   S    
