data_mof_unit_56433.cif
_audit_creation_date              2012-12-11T15:50:33-0500
_audit_creation_method            fapswitch 2.2
_symmetry_space_group_name_H-M    P1
_symmetry_Int_Tables_number       1
_space_group_crystal_system       triclinic
_cell_length_a                    18.93066
_cell_length_b                    11.009338
_cell_length_c                    18.800803
_cell_angle_alpha                 90.123441
_cell_angle_beta                  91.192213
_cell_angle_gamma                 89.91276
_cell_volume                      3917.489591

loop_
_atom_site_label
_atom_site_type_symbol
_atom_type_description
_atom_site_fract_x
_atom_site_fract_y
_atom_site_fract_z
_atom_type_partial_charge
C1    C     C_R   0.273790 0.039452 0.854873 0.548427
C2    C     C_R   0.759298 0.574707 0.927864 -0.017630
C3    C     C_R   0.229165 0.548805 0.352441 0.542467
C4    C     C_R   0.468005 0.823671 0.645877 0.543805
C5    C     C_R   0.529562 0.823217 0.352633 0.530501
C6    C     C_R   0.968005 0.323671 0.645877 0.543805
C7    C     C_R   0.029562 0.323217 0.352633 0.530501
C8    C     C_R   0.262459 0.645240 0.640578 0.586508
C9    C     C_R   0.740474 0.637545 0.356283 0.583230
C10   C     C_R   0.762459 0.145240 0.640578 0.586509
C11   C     C_R   0.240474 0.137545 0.356283 0.583230
C12   C     C_3   0.479239 0.938040 0.027087 -0.119867
C13   C     C_R   0.740903 0.074316 0.072299 -0.014358
C14   C     C_3   0.536764 0.918110 0.970771 -0.125268
C15   C     C_3   0.979239 0.438040 0.027087 -0.119867
C16   C     C_3   0.036764 0.418110 0.970771 -0.125268
C17   C     C_3   0.429950 0.848217 0.986708 -0.123595
C18   C     C_3   0.567235 0.810752 0.014504 -0.109138
C19   C     C_3   0.929950 0.348217 0.986708 -0.123595
C20   C     C_3   0.067235 0.310753 0.014504 -0.109138
C21   C     C_3   0.488216 0.828204 0.931876 0.045987
C22   C     C_3   0.509021 0.830060 0.069481 0.047598
C23   C     C_3   0.988216 0.328203 0.931876 0.045987
C24   C     C_R   0.259298 0.074706 0.927864 -0.017630
C25   C     C_3   0.009021 0.330060 0.069481 0.047598
C26   C     C_R   0.304434 0.547404 0.039004 0.034627
C27   C     C_R   0.695673 0.548027 0.960869 0.047518
C28   C     C_R   0.804434 0.047404 0.039004 0.034627
C29   C     C_R   0.195674 0.048027 0.960869 0.047518
C30   C     C_R   0.310299 0.558780 0.965560 -0.037312
C31   C     C_R   0.689805 0.558556 0.034474 -0.042432
C32   C     C_R   0.810299 0.058780 0.965560 -0.037312
C33   C     C_R   0.726224 0.039204 0.145123 0.547451
C34   C     C_R   0.189805 0.058556 0.034474 -0.042432
C35   C     C_R   0.188163 0.619781 0.956770 -0.186815
C36   C     C_R   0.812625 0.615645 0.043878 -0.182818
C37   C     C_R   0.688163 0.119781 0.956770 -0.186815
C38   C     C_R   0.312626 0.115645 0.043878 -0.182818
C39   C     C_R   0.183611 0.615585 0.029969 -0.180180
C40   C     C_R   0.816979 0.613384 0.970593 -0.186824
C41   C     C_R   0.683611 0.115585 0.029969 -0.180180
C42   C     C_R   0.316979 0.113384 0.970593 -0.186824
C43   C     C_3   0.346304 0.432886 0.040710 0.244809
C44   C     C_R   0.773791 0.539452 0.854873 0.548427
C45   C     C_3   0.655418 0.432116 0.958795 0.244891
C46   C     C_3   0.846304 0.932886 0.040710 0.244809
C47   C     C_3   0.155418 0.932116 0.958795 0.244891
C48   C     C_3   0.353588 0.445489 0.960994 -0.212061
C49   C     C_3   0.647283 0.444577 0.038346 -0.213778
C50   C     C_3   0.853588 0.945489 0.960994 -0.212061
C51   C     C_3   0.147283 0.944577 0.038346 -0.213778
C52   C     C_R   0.251372 0.590794 0.923247 -0.000525
C53   C     C_R   0.748897 0.589198 0.076993 -0.002551
C54   C     C_R   0.751372 0.090794 0.923247 -0.000525
C55   C     C_R   0.226223 0.539204 0.145123 0.547451
C56   C     C_R   0.248897 0.089198 0.076993 -0.002551
C57   C     C_R   0.497466 0.827858 0.422384 0.001436
C58   C     C_R   0.487002 0.831650 0.571523 0.009236
C59   C     C_R   0.997466 0.327858 0.422384 0.001436
C60   C     C_R   0.987002 0.331650 0.571523 0.009237
C61   C     C_R   0.469209 0.821444 0.856186 0.543974
C62   C     C_R   0.529367 0.821892 0.144698 0.543232
C63   C     C_R   0.969209 0.321444 0.856186 0.543973
C64   C     C_R   0.029367 0.321892 0.144698 0.543232
C65   C     C_R   0.495235 0.720262 0.461892 0.018664
C66   C     C_3   0.518090 0.720957 0.974684 -0.100103
C67   C     C_R   0.491366 0.723157 0.534438 0.107949
C68   C     C_R   0.995235 0.220262 0.461892 0.018664
C69   C     C_R   0.991366 0.223157 0.534438 0.107949
C70   C     C_R   0.478693 0.939721 0.532016 -0.180122
C71   C     C_R   0.483167 0.937781 0.457408 -0.180487
C72   C     C_R   0.978693 0.439721 0.532016 -0.180122
C73   C     C_R   0.983167 0.437781 0.457408 -0.180487
C74   C     C_3   0.546265 0.616204 0.465426 -0.213564
C75   C     C_3   0.541675 0.620755 0.545465 -0.245873
C76   C     C_3   0.046265 0.116204 0.465427 -0.213564
C77   C     C_3   0.460375 0.740755 0.030274 -0.115221
C78   C     C_3   0.041675 0.120755 0.545465 -0.245873
C79   C     C_R   0.249587 0.605828 0.418403 -0.064486
C80   C     C_R   0.748768 0.582634 0.576574 -0.073625
C81   C     C_R   0.749587 0.105828 0.418403 -0.064487
C82   C     C_R   0.248768 0.082634 0.576574 -0.073625
C83   C     C_R   0.197121 0.666199 0.456426 0.142199
C84   C     C_R   0.779434 0.683459 0.546018 0.035832
C85   C     C_R   0.697121 0.166199 0.456426 0.142199
C86   C     C_R   0.279434 0.183459 0.546018 0.035832
C87   C     C_R   0.202401 0.674629 0.528438 -0.096775
C88   C     C_3   0.018090 0.220957 0.974684 -0.100103
C89   C     C_R   0.778760 0.695511 0.473813 -0.095613
C90   C     C_R   0.702401 0.174629 0.528438 -0.096775
C91   C     C_R   0.278761 0.195511 0.473813 -0.095613
C92   C     C_R   0.319660 0.590571 0.526165 0.391757
C93   C     C_R   0.710248 0.511979 0.459724 0.326526
C94   C     C_R   0.819660 0.090571 0.526165 0.391757
C95   C     C_R   0.210248 0.011979 0.459724 0.326526
C96   C     C_R   0.314421 0.580854 0.452166 -0.145636
C97   C     C_R   0.709174 0.501380 0.533371 -0.143584
C98   C     C_R   0.814421 0.080854 0.452166 -0.145636
C99   C     C_3   0.960375 0.240755 0.030274 -0.115222
C100  C     C_R   0.209174 0.001380 0.533371 -0.143584
C101  C     C_3   0.118974 0.643443 0.460617 0.294592
C102  C     C_3   0.852212 0.734633 0.553591 0.289400
C103  C     C_3   0.618974 0.143443 0.460617 0.294592
C104  C     C_3   0.352212 0.234633 0.553591 0.289400
C105  C     C_3   0.125691 0.656037 0.540252 -0.225855
C106  C     C_3   0.851572 0.747964 0.473640 -0.182379
C107  C     C_3   0.625691 0.156037 0.540252 -0.225855
C108  C     C_3   0.351572 0.247964 0.473640 -0.182379
C109  C     C_R   0.260829 0.635980 0.851458 0.540209
C110  C     C_R   0.240903 0.574316 0.072299 -0.014358
C111  C     C_R   0.739259 0.635640 0.148621 0.541289
C112  C     C_R   0.760829 0.135980 0.851458 0.540209
C113  C     C_R   0.239259 0.135640 0.148621 0.541289
C114  C     C_R   0.259836 0.625615 0.565088 0.018097
C115  C     C_R   0.748605 0.606460 0.429654 0.006276
C116  C     C_R   0.759836 0.125615 0.565088 0.018098
C117  C     C_R   0.248605 0.106460 0.429654 0.006276
C118  C     C_R   0.271234 0.044087 0.645888 0.559652
C119  C     C_R   0.729166 0.048805 0.352441 0.542467
C120  C     C_R   0.771234 0.544087 0.645888 0.559653
Cr1   Cr    Cr6+3 0.229640 0.835880 0.747370 1.055232
Cr2   Cr    Cr6+3 0.614230 0.677220 0.250660 1.089249
Cr3   Cr    Cr6+3 0.885770 0.177220 0.749340 1.114210
Cr4   Cr    Cr6+3 0.114230 0.177220 0.250660 1.089249
Cr5   Cr    Cr6+3 0.770360 0.835880 0.252630 1.060835
Cr6   Cr    Cr6+3 0.729640 0.335880 0.747370 1.055232
Cr7   Cr    Cr6+3 0.270360 0.335880 0.252630 1.060835
Cr8   Cr    Cr6+3 0.387390 0.989720 0.750850 1.042026
Cr9   Cr    Cr6+3 0.612610 0.989720 0.249150 1.068512
Cr10  Cr    Cr6+3 0.887390 0.489720 0.750850 1.042026
Cr11  Cr    Cr6+3 0.112610 0.489720 0.249150 1.068512
Cr12  Cr    Cr6+3 0.385770 0.677220 0.749340 1.114210
F1    F     F_    0.381231 0.559887 0.559172 -0.582725
F2    F     F_    0.592139 0.442381 0.921232 -0.640909
F3    F     F_    0.909949 0.946336 0.077375 -0.635127
F4    F     F_    0.092139 0.942381 0.921232 -0.640909
F5    F     F_    0.674618 0.430873 0.418173 -0.581969
F6    F     F_    0.881231 0.059887 0.559172 -0.582725
F7    F     F_    0.174618 0.930873 0.418173 -0.581969
F8    F     F_    0.079460 0.735972 0.429762 -0.577056
F9    F     F_    0.851240 0.843618 0.589724 -0.570525
F10   F     F_    0.579460 0.235972 0.429762 -0.577056
F11   F     F_    0.351240 0.343618 0.589724 -0.570525
F12   F     F_    0.409949 0.446336 0.077375 -0.635127
H1    H     H_    0.373105 0.862615 0.973510 0.118231
H2    H     H_    0.016438 0.038989 0.568266 0.225236
H3    H     H_    0.598718 0.643554 0.446281 0.170394
H4    H     H_    0.516438 0.538988 0.568266 0.225236
H5    H     H_    0.523981 0.531655 0.441611 0.213665
H6    H     H_    0.591543 0.649949 0.572648 0.117502
H7    H     H_    0.023982 0.031655 0.441611 0.213666
H8    H     H_    0.091543 0.149949 0.572648 0.117502
H9    H     H_    0.358098 0.544029 0.422689 0.145564
H10   H     H_    0.682536 0.424032 0.555844 0.174467
H11   H     H_    0.858098 0.044029 0.422689 0.145564
H12   H     H_    0.624124 0.796506 0.027525 0.119503
H13   H     H_    0.182536 0.924032 0.555844 0.174467
H14   H     H_    0.103796 0.550948 0.442968 0.114985
H15   H     H_    0.893279 0.671319 0.573558 0.131453
H16   H     H_    0.603796 0.050948 0.442968 0.114986
H17   H     H_    0.393280 0.171319 0.573558 0.131453
H18   H     H_    0.114581 0.570438 0.569236 0.092399
H19   H     H_    0.890181 0.687603 0.447154 0.112419
H20   H     H_    0.614581 0.070438 0.569236 0.092399
H21   H     H_    0.390181 0.187603 0.447153 0.112419
H22   H     H_    0.463971 0.026617 0.050362 0.124164
H23   H     H_    0.873104 0.362615 0.973510 0.118231
H24   H     H_    0.566744 0.989136 0.943155 0.120462
H25   H     H_    0.963970 0.526617 0.050362 0.124164
H26   H     H_    0.066744 0.489136 0.943155 0.120462
H27   H     H_    0.533840 0.632604 0.951879 0.213773
H28   H     H_    0.429343 0.670327 0.057334 0.196602
H29   H     H_    0.033841 0.132604 0.951879 0.213773
H30   H     H_    0.929343 0.170327 0.057334 0.196603
H31   H     H_    0.142409 0.651262 0.926516 0.163308
H32   H     H_    0.858793 0.644022 0.074556 0.160973
H33   H     H_    0.642409 0.151262 0.926516 0.163308
H34   H     H_    0.124124 0.296507 0.027525 0.119502
H35   H     H_    0.358793 0.144022 0.074556 0.160973
H36   H     H_    0.132957 0.637613 0.052511 0.164241
H37   H     H_    0.867820 0.634110 0.948200 0.164658
H38   H     H_    0.632957 0.137613 0.052511 0.164241
H39   H     H_    0.367820 0.134110 0.948200 0.164658
H40   H     H_    0.814843 0.853793 0.057467 0.145350
H41   H     H_    0.188491 0.854652 0.942301 0.144156
H42   H     H_    0.314843 0.353793 0.057468 0.145350
H43   H     H_    0.688491 0.354652 0.942301 0.144156
H44   H     H_    0.408502 0.464760 0.944467 0.201947
H45   H     H_    0.471105 0.025247 0.558767 0.129274
H46   H     H_    0.592074 0.462986 0.054393 0.205888
H47   H     H_    0.908502 0.964760 0.944467 0.201947
H48   H     H_    0.092074 0.962986 0.054393 0.205888
H49   H     H_    0.326361 0.372390 0.930154 0.103888
H50   H     H_    0.674717 0.371933 0.069292 0.104199
H51   H     H_    0.826361 0.872390 0.930154 0.103888
H52   H     H_    0.174717 0.871933 0.069292 0.104199
H53   H     H_    0.099680 0.738764 0.561444 0.186024
H54   H     H_    0.851915 0.843220 0.455377 0.189067
H55   H     H_    0.599680 0.238764 0.561444 0.186024
H56   H     H_    0.481085 0.022358 0.428207 0.159636
H57   H     H_    0.351915 0.343220 0.455377 0.189067
H58   H     H_    0.971105 0.525246 0.558767 0.129274
H59   H     H_    0.981085 0.522358 0.428207 0.159636
H60   H     H_    0.098718 0.143555 0.446281 0.170394
O1    O     O_R   0.214300 0.709080 0.827500 -0.518310
O2    O     O_R   0.543340 0.717710 0.330180 -0.511397
O3    O     O_R   0.956660 0.217710 0.669820 -0.467781
O4    O     O_R   0.043340 0.217710 0.330180 -0.511397
O5    O     O_R   0.320590 0.625770 0.672930 -0.410644
O6    O     O_R   0.679410 0.625770 0.327070 -0.456125
O7    O     O_R   0.820590 0.125770 0.672930 -0.410644
O8    O     O_R   0.179410 0.125770 0.327070 -0.456125
O9    O     O_3   0.334270 0.834280 0.749190 -0.287551
O10   O     O_3   0.665730 0.834280 0.250810 -0.285332
O11   O     O_3   0.834270 0.334280 0.749190 -0.287551
O12   O     O_R   0.785700 0.709080 0.172500 -0.518006
O13   O     O_3   0.165730 0.334280 0.250810 -0.285332
O14   O     O_R   0.236190 0.958390 0.823150 -0.478446
O15   O     O_R   0.763810 0.958390 0.176850 -0.481391
O16   O     O_R   0.736190 0.458390 0.823150 -0.478446
O17   O     O_R   0.263810 0.458390 0.176850 -0.481391
O18   O     O_R   0.332090 0.075280 0.831290 -0.518480
O19   O     O_R   0.667910 0.075280 0.168710 -0.518423
O20   O     O_R   0.832090 0.575280 0.831290 -0.518480
O21   O     O_R   0.167910 0.575280 0.168710 -0.518423
O22   O     O_R   0.446280 0.918040 0.826620 -0.507286
O23   O     O_R   0.714300 0.209080 0.827500 -0.518310
O24   O     O_R   0.553720 0.918040 0.173380 -0.508217
O25   O     O_R   0.946280 0.418040 0.826620 -0.507285
O26   O     O_R   0.053720 0.418040 0.173380 -0.508217
O27   O     O_R   0.457080 0.716270 0.831760 -0.505329
O28   O     O_R   0.542920 0.716270 0.168240 -0.494607
O29   O     O_R   0.957080 0.216270 0.831760 -0.505329
O30   O     O_R   0.042920 0.216270 0.168240 -0.494607
O31   O     O_R   0.320980 0.624440 0.823040 -0.497282
O32   O     O_R   0.679020 0.624440 0.176960 -0.493025
O33   O     O_R   0.820980 0.124440 0.823040 -0.497282
O34   O     O_R   0.285700 0.209080 0.172500 -0.518006
O35   O     O_R   0.179020 0.124440 0.176960 -0.493025
O36   O     O_R   0.213880 0.710510 0.665560 -0.543100
O37   O     O_R   0.786120 0.710510 0.334440 -0.529781
O38   O     O_R   0.713880 0.210510 0.665560 -0.543101
O39   O     O_R   0.286120 0.210510 0.334440 -0.529781
O40   O     O_R   0.235800 0.959720 0.673040 -0.513549
O41   O     O_R   0.764200 0.959720 0.326960 -0.511154
O42   O     O_R   0.735800 0.459720 0.673040 -0.513549
O43   O     O_R   0.264200 0.459720 0.326960 -0.511154
O44   O     O_R   0.331670 0.076720 0.669350 -0.502691
O45   O     O_R   0.445900 0.919370 0.676500 -0.518637
O46   O     O_R   0.668330 0.076720 0.330650 -0.472910
O47   O     O_R   0.831670 0.576720 0.669350 -0.502691
O48   O     O_R   0.168330 0.576720 0.330650 -0.472910
O49   O     O_R   0.554100 0.919370 0.323500 -0.505393
O50   O     O_R   0.945900 0.419370 0.676500 -0.518637
O51   O     O_R   0.054100 0.419370 0.323500 -0.505393
O52   O     O_R   0.456660 0.717710 0.669820 -0.467781

loop_
_geom_bond_atom_site_label_1
_geom_bond_atom_site_label_2
_ccdc_geom_bond_type
C38   C56   A    
Cr1   O40   S    
Cr2   O32   S    
C108  H21   S    
C80   C120  S    
C34   C56   A    
Cr3   O11   S    
C21   C66   S    
Cr6   O42   S    
C84   C102  S    
Cr1   O14   S    
C14   C18   S    
C35   C39   A    
Cr6   O23   S    
C10   O38   A    
C120  O47   A    
Cr1   O1    S    
Cr9   O19   S    
C86   C104  S    
C13   C41   A    
C39   H36   S    
C43   F12   S    
C78   H8    S    
C71   H56   S    
Cr10  O47   S    
C95   C117  A    
C15   C19   S    
C89   C115  A    
C73   H59   S    
C28   C46   S    
C34   C51   S    
C19   H23   S    
Cr12  O27   S    
C29   C47   S    
C60   C69   A    
C14   C21   S    
C30   C48   S    
C80   C97   A    
C76   C78   S    
C4    O45   A    
C48   H44   S    
C86   C91   A    
C12   H22   S    
C47   F4    S    
Cr5   O12   S    
Cr11  O51   S    
C103  H16   S    
C15   C25   S    
C82   C118  S    
C63   O29   A    
C20   C25   S    
C94   C98   A    
C75   H6    S    
C5    O49   A    
C15   C16   S    
C12   C22   S    
C92   C96   A    
C24   C42   A    
C15   H25   S    
C6    O3    A    
C93   C115  A    
C46   H40   S    
Cr9   O10   S    
C66   C77   S    
Cr2   O2    S    
C24   C29   A    
C87   C114  A    
C36   C53   A    
C112  O33   A    
C50   H51   S    
C46   F3    S    
Cr3   O29   S    
C63   O25   A    
Cr5   O41   S    
C100  H13   S    
C25   C99   S    
C39   C110  A    
C7    O4    A    
C92   F1    S    
C2    C44   S    
C68   C69   A    
C79   C83   A    
Cr3   O7    S    
C12   C17   S    
Cr6   O38   S    
C65   C74   S    
C56   C113  S    
C91   C117  A    
C74   H5    S    
Cr5   O37   S    
C2    C27   A    
C44   O20   A    
C102  F9    S    
C90   C116  A    
C47   H41   S    
C83   C101  S    
C43   C48   S    
C59   C73   A    
C21   C61   S    
C85   C103  S    
C8    C114  S    
Cr8   O9    S    
C106  H54   S    
Cr4   O30   S    
C53   C111  S    
C105  H53   S    
C7    C59   S    
C5    O2    A    
C9    O37   A    
C112  O23   A    
Cr4   O4    S    
C69   C78   S    
C120  O42   A    
C31   C49   S    
C32   C54   A    
Cr12  O31   S    
C101  F8    S    
C118  O40   A    
C26   C43   S    
C8    O36   A    
C101  C105  S    
C107  H55   S    
C74   C75   S    
C27   C31   A    
C80   C84   A    
C9    C115  S    
C6    C60   S    
C74   H3    S    
C28   C32   A    
C26   C110  A    
Cr7   O39   S    
C111  O12   A    
C6    O50   A    
C119  O46   A    
Cr8   O18   S    
C104  H17   S    
Cr4   O35   S    
C94   C116  A    
C95   C100  A    
C58   C70   A    
C20   H34   S    
C49   H46   S    
Cr4   O8    S    
C76   H7    S    
C65   C67   A    
C82   C86   A    
C102  H15   S    
C29   C34   A    
C36   C40   A    
C17   C21   S    
C88   H29   S    
Cr2   O10   S    
C1    O18   A    
Cr9   O49   S    
C25   C64   S    
Cr1   O9    S    
C89   C106  S    
C17   H1    S    
C64   O30   A    
C108  H57   S    
C16   H26   S    
C11   O8    A    
C22   C62   S    
C57   C71   A    
Cr5   O10   S    
Cr11  O21   S    
C96   H9    S    
C87   C105  S    
Cr7   O13   S    
C45   C49   S    
C9    O6    A    
C16   C20   S    
C27   C45   S    
Cr2   O6    S    
C111  O32   A    
C45   F2    S    
C104  F11   S    
Cr3   O3    S    
Cr10  O11   S    
C13   C28   A    
C97   H10   S    
C3    O48   A    
C42   H39   S    
C109  O1    A    
C50   H47   S    
C32   C50   S    
C3    C79   S    
C1    O14   A    
Cr8   O44   S    
C1    C24   S    
C37   C54   A    
C109  O31   A    
Cr11  O26   S    
C113  O34   A    
C106  H19   S    
C12   C14   S    
C101  H14   S    
C36   H32   S    
C16   C23   S    
C62   O28   A    
C23   C88   S    
C55   C110  S    
C94   F6    S    
C41   H38   S    
C31   C53   A    
C67   C75   S    
C84   C89   A    
C4    O52   A    
C78   H2    S    
C14   H24   S    
C8    O5    A    
C11   C117  S    
C103  F10   S    
C93   C97   A    
C104  C108  S    
C70   C71   A    
C18   H12   S    
Cr11  O48   S    
C19   C23   S    
C72   H58   S    
C40   H37   S    
C3    O43   A    
C66   H27   S    
C30   C52   A    
Cr9   O46   S    
C10   C116  S    
C38   H35   S    
Cr5   O15   S    
C7    O51   A    
C18   C22   S    
C33   O15   A    
C82   C100  A    
C91   C108  S    
C10   O7    A    
C45   H43   S    
Cr12  O5    S    
Cr8   O45   S    
C22   C77   S    
C57   C65   A    
C72   C73   A    
Cr10  O50   S    
C48   H49   S    
C83   C87   A    
C90   C107  S    
C47   C51   S    
C85   C90   A    
C76   H60   S    
C38   C42   A    
C49   H50   S    
C5    C57   S    
C75   H4    S    
C18   C66   S    
Cr1   O36   S    
C37   H33   S    
C46   C50   S    
C95   F7    S    
C61   O22   A    
C43   H42   S    
C55   O17   A    
C11   O39   A    
Cr11  O13   S    
Cr6   O16   S    
C35   H31   S    
C33   O19   A    
Cr12  O52   S    
Cr10  O20   S    
C119  O41   A    
C79   C96   A    
C81   C119  S    
C64   O26   A    
C17   C77   S    
C68   C76   S    
C55   O21   A    
C51   H52   S    
Cr10  O25   S    
C99   H30   S    
C52   C109  S    
C77   H28   S    
C62   O24   A    
C20   C88   S    
Cr9   O24   S    
C23   C63   S    
C61   O27   A    
C102  C106  S    
C118  O44   A    
C37   C41   A    
C98   H11   S    
C44   O16   A    
C88   C99   S    
C93   F5    S    
Cr6   O11   S    
Cr7   O17   S    
C2    C40   A    
C58   C67   A    
C113  O35   A    
Cr7   O43   S    
C107  H20   S    
Cr7   O34   S    
Cr8   O22   S    
C13   C33   S    
C81   C98   A    
C4    C58   S    
C35   C52   A    
C60   C72   A    
C105  H18   S    
C54   C112  S    
C59   C68   A    
C103  C107  S    
Cr12  O9    S    
C92   C114  A    
Cr2   O28   S    
C81   C85   A    
C51   H48   S    
C70   H45   S    
C19   C99   S    
Cr3   O33   S    
C26   C30   A    
Cr4   O13   S    
