data_mof_unit_13893.cif
_audit_creation_date              2012-12-10T18:29:45-0500
_audit_creation_method            fapswitch 2.2
_symmetry_space_group_name_H-M    P1
_symmetry_Int_Tables_number       1
_space_group_crystal_system       triclinic
_cell_length_a                    11.516666
_cell_length_b                    15.087106
_cell_length_c                    15.214546
_cell_angle_alpha                 83.381612
_cell_angle_beta                  91.681555
_cell_angle_gamma                 103.389989
_cell_volume                      2554.56546623

loop_
_atom_site_label
_atom_site_type_symbol
_atom_type_description
_atom_site_fract_x
_atom_site_fract_y
_atom_site_fract_z
_atom_type_partial_charge
C1    C     C_R   0.483196 0.443190 0.663309 0.885745
C2    C     C_R   0.749264 0.645780 0.003037 0.090212
C3    C     C_R   0.690460 0.852113 0.624913 0.350898
C4    C     C_R   0.305342 0.157913 0.364907 0.349882
C5    C     C_R   0.666991 0.762652 0.599828 0.461385
C6    C     C_R   0.339531 0.247051 0.390906 0.434614
C7    C     C_R   0.498958 0.789735 0.514392 0.549136
C8    C     C_R   0.490958 0.203680 0.486982 0.525773
C9    C     C_R   0.533213 0.884688 0.524451 -0.200598
C10   C     C_R   0.447962 0.110688 0.470776 -0.151310
C11   C     C_R   0.616657 0.909923 0.592154 -0.156970
C12   C     C_R   0.525876 0.556465 0.338080 0.954572
C13   C     C_R   0.367407 0.091815 0.400437 -0.166696
C14   C     C_R   0.481686 0.954318 0.477516 -0.042841
C15   C     C_R   0.490698 0.037139 0.516503 -0.023867
C16   C     C_R   0.717854 0.500775 0.500027 0.878277
C17   C     C_R   0.282175 0.499308 0.499845 0.877496
C18   C     C_R   0.534414 0.040323 0.603927 0.520402
C19   C     C_R   0.426600 0.946898 0.393080 0.576433
C20   C     C_R   0.614009 0.987220 0.633622 -0.183191
C21   C     C_R   0.358969 0.010853 0.361293 -0.289165
C22   C     C_1   0.838830 0.501916 0.500239 -0.165807
C23   C     C_R   0.533909 0.341503 0.932919 -0.088600
C24   C     C_1   0.161206 0.498216 0.499725 -0.214640
C25   C     C_1   0.940916 0.501064 0.500143 -0.014853
C26   C     C_1   0.059144 0.499145 0.499875 -0.029844
C27   C     C_R   0.484016 0.409729 0.758699 -0.392459
C28   C     C_R   0.584000 0.585257 0.251331 -0.368755
C29   C     C_R   0.461124 0.281996 0.876342 0.133203
C30   C     C_R   0.755673 0.672526 0.163118 0.122607
C31   C     C_R   0.437313 0.316662 0.789219 0.439681
C32   C     C_R   0.687366 0.657797 0.241313 0.426167
C33   C     C_R   0.535458 0.470857 0.819641 0.508797
C34   C     C_R   0.713527 0.619544 0.092477 -0.091434
C35   C     C_R   0.555198 0.525115 0.185947 0.493019
C36   C     C_R   0.570994 0.436982 0.903900 -0.118074
C37   C     C_R   0.629980 0.535833 0.112614 -0.066912
C38   C     C_3   0.599641 0.218882 0.039895 -0.904966
C39   C     C_3   0.804393 0.743863 0.968938 -0.896195
C40   C     C_3   0.368424 0.041995 0.681334 -0.302507
C41   C     C_3   0.453689 0.906867 0.252783 -0.369031
C42   C     C_3   0.357850 0.489711 0.152443 -0.313079
C43   C     C_3   0.439362 0.585562 0.825175 -0.304310
C44   C     C_3   0.699511 0.787490 0.307197 -0.265502
C45   C     C_R   0.632812 0.496998 0.963966 -0.150429
C46   C     C_3   0.252775 0.273925 0.727947 -0.324318
C47   C     C_3   0.397779 0.184686 0.909859 -0.831382
C48   C     C_3   0.882869 0.728744 0.165491 -0.827120
C49   C     C_3   0.531301 0.280427 0.213609 -0.138621
C50   C     C_3   0.849183 0.564186 0.843976 -0.309203
C51   C     C_3   0.623022 0.253078 0.600460 -0.091198
C52   C     C_3   0.296792 0.752104 0.526914 -0.248452
C53   C     C_3   0.171798 0.304934 0.361879 -0.181625
C54   C     C_3   0.849151 0.731066 0.584411 -0.242002
C55   C     C_3   0.774896 0.849192 0.761595 -0.312819
C56   C     C_R   0.613331 0.468595 0.053918 -0.095913
C57   C     C_3   0.114989 0.083123 0.334833 -0.349349
C58   C     C_R   0.591175 0.374010 0.083548 0.574813
C59   C     C_R   0.711352 0.583612 0.939333 0.592799
C60   C     C_R   0.566936 0.310586 0.019812 0.098301
H1    H     H_    0.660034 0.998714 0.695863 0.181593
H2    H     H_    0.311274 0.058922 0.624666 0.164409
H3    H     H_    0.339165 0.068378 0.739932 0.221025
H4    H     H_    0.515496 0.975687 0.240053 0.156332
H5    H     H_    0.492913 0.858007 0.221199 0.176816
H6    H     H_    0.365944 0.905961 0.220232 0.174893
H7    H     H_    0.340910 0.547488 0.185660 0.148726
H8    H     H_    0.275587 0.434026 0.158478 0.208158
H9    H     H_    0.375102 0.511285 0.080637 0.137107
H10   H     H_    0.427512 0.571047 0.898176 0.137894
H11   H     H_    0.359548 0.548185 0.790590 0.136925
H12   H     H_    0.306150 0.000448 0.301925 0.192405
H13   H     H_    0.446600 0.660024 0.807264 0.176071
H14   H     H_    0.743728 0.826324 0.361382 0.170611
H15   H     H_    0.601835 0.776282 0.316281 0.220286
H16   H     H_    0.726976 0.830408 0.243495 0.135183
H17   H     H_    0.196456 0.222152 0.689049 0.184541
H18   H     H_    0.252226 0.342691 0.692945 0.155555
H19   H     H_    0.211243 0.266202 0.794396 0.149291
H20   H     H_    0.319266 0.157443 0.869016 0.248845
H21   H     H_    0.458719 0.137721 0.909025 0.241198
H22   H     H_    0.362332 0.182178 0.977362 0.229116
H23   H     H_    0.676453 0.224054 0.086386 0.257003
H24   H     H_    0.926986 0.708392 0.228016 0.261294
H25   H     H_    0.937703 0.716586 0.111324 0.237381
H26   H     H_    0.884547 0.802874 0.161913 0.221755
H27   H     H_    0.529344 0.295503 0.282842 0.205481
H28   H     H_    0.552590 0.212180 0.216114 0.134262
H29   H     H_    0.440601 0.278001 0.184740 0.185447
H30   H     H_    0.816526 0.488357 0.849643 0.154956
H31   H     H_    0.922110 0.583819 0.892636 0.137296
H32   H     H_    0.887316 0.586745 0.776782 0.197286
H33   H     H_    0.538068 0.247324 0.635105 0.232303
H34   H     H_    0.523222 0.166025 0.069586 0.233039
H35   H     H_    0.679342 0.322624 0.603608 0.141393
H36   H     H_    0.674172 0.207267 0.638042 0.156225
H37   H     H_    0.285763 0.822508 0.532247 0.127109
H38   H     H_    0.305569 0.716117 0.594112 0.132330
H39   H     H_    0.213867 0.714331 0.496715 0.187368
H40   H     H_    0.149565 0.373066 0.356191 0.171080
H41   H     H_    0.143197 0.270072 0.428993 0.116359
H42   H     H_    0.119954 0.267881 0.309361 0.185720
H43   H     H_    0.907040 0.791693 0.610876 0.181809
H44   H     H_    0.837979 0.745046 0.511471 0.162580
H45   H     H_    0.630292 0.196954 0.979182 0.245075
H46   H     H_    0.896743 0.674716 0.596185 0.167757
H47   H     H_    0.783700 0.777054 0.769003 0.261177
H48   H     H_    0.687693 0.853960 0.788307 0.144004
H49   H     H_    0.846469 0.888367 0.801771 0.182863
H50   H     H_    0.043461 0.080967 0.284152 0.191257
H51   H     H_    0.085210 0.109849 0.393420 0.146842
H52   H     H_    0.123668 0.011638 0.353454 0.175655
H53   H     H_    0.742805 0.766303 0.919082 0.235306
H54   H     H_    0.811629 0.792745 0.018555 0.242506
H55   H     H_    0.893068 0.749633 0.939175 0.245817
H56   H     H_    0.354550 0.966232 0.696741 0.136956
N1    N     N_R   0.566020 0.731700 0.552730 -0.210933
N2    N     N_R   0.433980 0.268300 0.447270 -0.210396
O1    O     O_R   0.466720 0.383110 0.605620 -0.608529
O2    O     O_3   0.438952 0.876961 0.344220 -0.570049
O3    O     O_3   0.452474 0.455606 0.193354 -0.560347
O4    O     O_3   0.544636 0.563918 0.798180 -0.507669
O5    O     O_3   0.733672 0.703105 0.313282 -0.594218
O6    O     O_3   0.369119 0.258179 0.733715 -0.589070
O7    O     O_3   0.622988 0.348594 0.170001 -0.615324
O8    O     O_3   0.755413 0.607854 0.854074 -0.549810
O9    O     O_3   0.609856 0.231893 0.512118 -0.609389
O10   O     O_3   0.394128 0.752846 0.472126 -0.516405
O11   O     O_3   0.295475 0.318309 0.347279 -0.534752
O12   O     O_R   0.533280 0.616890 0.394380 -0.571726
O13   O     O_3   0.738396 0.703015 0.628832 -0.537727
O14   O     O_3   0.790956 0.887306 0.673015 -0.612903
O15   O     O_3   0.221834 0.139865 0.298036 -0.595923
O16   O     O_R   0.509090 0.531900 0.639510 -0.534580
O17   O     O_R   0.490910 0.468100 0.360490 -0.523640
O18   O     O_R   0.644370 0.425610 0.483050 -0.594541
O19   O     O_R   0.355630 0.574390 0.516950 -0.579166
O20   O     O_R   0.686740 0.574390 0.516930 -0.560269
O21   O     O_R   0.313260 0.425610 0.483070 -0.592749
O22   O     O_3   0.489594 0.084852 0.664940 -0.640736
Zn1   Zn    Zn3+2 0.471710 0.400660 0.477370 1.014741
Zn2   Zn    Zn3+2 0.528290 0.599340 0.522630 1.044266

loop_
_geom_bond_atom_site_label_1
_geom_bond_atom_site_label_2
_ccdc_geom_bond_type
C43   H13   S    
C15   C18   A    
O19   Zn2   S    
C38   H23   S    
C34   C37   A    
C49   H27   S    
C49   H28   S    
N2    Zn1   S    
C46   O6    S    
C52   O10   S    
C8    N2    A    
C40   H56   S    
C27   C33   A    
C59   O8    S    
C54   O13   S    
C40   H3    S    
C12   O12   A    
C12   C28   S    
C23   C29   A    
C30   C48   S    
C35   C37   A    
C24   C26   T    
C31   O6    S    
C5    O13   S    
C10   C15   A    
C46   H19   S    
C57   H52   S    
C58   C60   A    
C52   H37   S    
C20   H1    S    
C33   C36   A    
C40   H2    S    
C1    O1    A    
C47   H22   S    
C4    C13   A    
C44   H16   S    
C7    N1    A    
C37   C56   A    
C2    C39   S    
C50   H30   S    
C28   C35   A    
C53   H41   S    
C39   H53   S    
C12   O17   A    
C16   C22   S    
C50   O8    S    
C7    O10   S    
C51   H36   S    
C2    C34   A    
C55   H49   S    
C42   H8    S    
C32   O5    S    
C57   O15   S    
C47   H20   S    
C6    O11   S    
C53   H40   S    
C23   C60   A    
C11   C20   A    
C17   C24   S    
C33   O4    S    
C54   H46   S    
C21   H12   S    
C27   C31   A    
C3    O14   S    
C54   H43   S    
C28   C32   A    
C45   C56   A    
C4    C6    A    
O20   Zn2   S    
C46   H18   S    
C30   C34   A    
C2    C59   A    
C41   H5    S    
C25   C26   S    
C22   C25   T    
C42   H9    S    
C48   H24   S    
C55   H47   S    
C44   H15   S    
C18   O22   S    
C9    C14   A    
O18   Zn1   S    
O16   Zn2   S    
C8    O9    S    
C57   H50   S    
C35   O3    S    
C53   H42   S    
C39   H54   S    
C38   H34   S    
C13   C21   A    
C36   C45   A    
C17   O21   A    
C44   H14   S    
C9    C11   A    
C43   O4    S    
C51   H33   S    
C38   C60   S    
C50   H32   S    
C29   C47   S    
C19   O2    S    
C23   C36   A    
C43   H10   S    
C39   H55   S    
C42   H7    S    
O1    Zn1   S    
C48   H26   S    
C53   O11   S    
C1    O16   A    
C16   O18   A    
C54   H44   S    
C7    C9    A    
C45   C59   A    
C43   H11   S    
C44   O5    S    
C19   C21   A    
C14   C15   A    
C14   C19   A    
C16   O20   A    
C49   H29   S    
C3    C5    A    
C10   C13   A    
C46   H17   S    
C41   H6    S    
C49   O7    S    
C52   H39   S    
C55   H48   S    
C51   O9    S    
C38   H45   S    
N1    Zn2   S    
C29   C31   A    
C30   C32   A    
O21   Zn1   S    
C57   H51   S    
C40   O22   S    
C52   H38   S    
C56   C58   A    
C18   C20   A    
C47   H21   S    
C41   O2    S    
O12   Zn2   S    
C3    C11   A    
C50   H31   S    
O17   Zn1   S    
C58   O7    S    
C8    C10   A    
C55   O14   S    
C5    N1    A    
C1    C27   S    
C48   H25   S    
C17   O19   A    
C41   H4    S    
C6    N2    A    
C42   O3    S    
C51   H35   S    
C4    O15   S    
