data_mof_unit_5917.cif
_audit_creation_date              2012-12-10T17:52:19-0500
_audit_creation_method            fapswitch 2.2
_symmetry_space_group_name_H-M    P1
_symmetry_Int_Tables_number       1
_space_group_crystal_system       triclinic
_cell_length_a                    19.107652
_cell_length_b                    10.726935
_cell_length_c                    9.898311
_cell_angle_alpha                 88.406097
_cell_angle_beta                  89.212174
_cell_angle_gamma                 92.206647
_cell_volume                      2026.31061499

loop_
_atom_site_label
_atom_site_type_symbol
_atom_type_description
_atom_site_fract_x
_atom_site_fract_y
_atom_site_fract_z
_atom_type_partial_charge
C1    C     C_R   0.502700 0.259503 0.502827 0.864189
C2    C     C_R   0.288290 0.483424 0.503195 -0.133372
C3    C     C_R   0.929088 0.439612 0.492761 0.335440
C4    C     C_R   0.068605 0.412585 0.490734 0.300127
C5    C     C_R   0.821465 0.513985 0.610674 0.011584
C6    C     C_R   0.748895 0.523695 0.610697 -0.280188
C7    C     C_R   0.710288 0.491658 0.496824 -0.025556
C8    C     C_R   0.744106 0.449253 0.381656 -0.179872
C9    C     C_R   0.815720 0.434609 0.381893 -0.184520
C10   C     C_R   0.854704 0.464027 0.496275 0.066442
C11   C     C_R   0.492715 0.101530 0.764000 -0.181672
C12   C     C_R   0.365020 0.499476 0.501231 0.815120
C13   C     C_R   0.464062 0.034023 0.875326 -0.155323
C14   C     C_R   0.430036 0.919201 0.857317 -0.112226
C15   C     C_R   0.430966 0.866638 0.730389 -0.146097
C16   C     C_R   0.465659 0.929630 0.619376 0.095688
C17   C     C_R   0.487403 0.054757 0.631367 0.104902
C18   C     C_R   0.503146 0.125125 0.509610 -0.119155
C19   C     C_R   0.509499 0.065887 0.386079 -0.228861
C20   C     C_R   0.501349 0.938980 0.381159 -0.174191
C21   C     C_R   0.482140 0.870212 0.498032 -0.145426
C22   C     C_R   0.404014 0.341875 0.146577 -0.286361
C23   C     C_R   0.492616 0.738482 0.498897 0.909323
C24   C     C_R   0.355689 0.265191 0.079886 -0.011869
C25   C     C_R   0.355774 0.267366 0.939193 -0.099164
C26   C     C_R   0.403928 0.343896 0.866359 -0.214790
C27   C     C_R   0.451914 0.424155 0.931078 0.151379
C28   C     C_R   0.451852 0.423901 0.075614 0.161285
C29   C     C_R   0.548967 0.567770 0.066035 0.011864
C30   C     C_R   0.547969 0.567851 0.923296 -0.195724
C31   C     C_R   0.634536 0.499480 0.499047 0.901417
C32   C     C_R   0.247047 0.490636 0.623252 -0.029101
C33   C     C_R   0.175740 0.456948 0.618986 -0.108572
C34   C     C_R   0.144535 0.423604 0.497497 0.028524
C35   C     C_R   0.184870 0.419508 0.379421 -0.131257
C36   C     C_R   0.255985 0.448401 0.382389 -0.182831
H1    H     H_    0.521541 0.186470 0.786488 0.177913
H2    H     H_    0.467538 0.071771 0.975454 0.146574
H3    H     H_    0.404772 0.776399 0.719905 0.143098
H4    H     H_    0.511976 0.894780 0.286351 0.202990
H5    H     H_    0.319820 0.207126 0.884901 0.193279
H6    H     H_    0.403685 0.334451 0.759579 0.213302
H7    H     H_    0.143371 0.465124 0.708880 0.196444
H8    H     H_    0.161219 0.395228 0.284336 0.174936
H9    H     H_    0.285632 0.442625 0.289020 0.175586
H10   H     H_    0.722627 0.559926 0.698301 0.141075
H11   H     H_    0.714982 0.423860 0.292726 0.148854
H12   H     H_    0.522402 0.117310 0.292660 0.172819
N1    N     N_R   0.036113 0.452929 0.377754 -0.149807
N2    N     N_R   0.967351 0.465863 0.378603 -0.159134
N3    N     N_R   0.960954 0.392879 0.603513 -0.124337
N4    N     N_R   0.029810 0.380776 0.602979 -0.146125
N5    N     N_R   0.499340 0.498800 0.142780 -0.125751
N6    N     N_R   0.499320 0.498720 0.857170 -0.120679
O1    O     O_R   0.500000 0.316780 0.614690 -0.650832
O2    O     O_R   0.499990 0.316750 0.385360 -0.643929
O3    O     O_R   0.398140 0.500000 0.614700 -0.660504
O4    O     O_R   0.398130 0.499970 0.385370 -0.625483
O5    O     O_R   0.500010 0.683250 0.614640 -0.623872
O6    O     O_R   0.500000 0.683220 0.385310 -0.551226
O7    O     O_R   0.601870 0.500030 0.614630 -0.621942
O8    O     O_R   0.601860 0.500000 0.385300 -0.591746
Zn1   Zn    Zn3+2 0.500000 0.500020 0.653130 0.927387
Zn2   Zn    Zn3+2 0.500000 0.499980 0.346870 0.978429
C37   C     C_2   0.274681 0.540521 0.751400 0.418299
H13   H     H_    0.318794 0.606864 0.750799 0.078133
O9    O     O_2   0.247040 0.510129 0.859985 -0.557456
H14   H     H_    0.405284 0.868733 0.942522 0.155559
C38   C     C_2   0.608577 0.637212 0.125367 0.441692
H15   H     H_    0.660104 0.633134 0.078452 0.018517
O10   O     O_2   0.600995 0.706422 0.219172 -0.544978
H16   H     H_    0.403608 0.332655 0.253756 0.202054
C39   C     C_2   0.306429 0.181237 0.159302 0.403068
H17   H     H_    0.307454 0.180256 0.268981 0.056407
O11   O     O_2   0.264165 0.112320 0.103630 -0.543276
H18   H     H_    0.586817 0.622880 0.864489 0.150458
C40   C     C_2   0.859501 0.563155 0.728829 0.413212
H19   H     H_    0.832688 0.566304 0.826032 0.054386
O12   O     O_2   0.919229 0.607243 0.717863 -0.531178
H20   H     H_    0.840558 0.397500 0.293332 0.156629

loop_
_geom_bond_atom_site_label_1
_geom_bond_atom_site_label_2
_ccdc_geom_bond_type
C16   C21   A    
C39   H17   S    
C31   O7    A    
C35   C36   A    
C2    C12   S    
C27   N6    A    
C7    C8    A    
C40   H19   S    
C23   O5    A    
C30   N6    A    
C26   C27   A    
C4    N4    A    
C2    C32   A    
C1    O2    A    
C18   C19   A    
C5    C6    A    
C20   H4    S    
N5    Zn2   S    
C24   C39   S    
N6    Zn1   S    
C15   C16   A    
O7    Zn1   S    
C34   C35   A    
C11   H1    S    
O8    Zn2   S    
C19   C20   A    
C8    C9    A    
C37   O9    D    
O1    Zn1   S    
O2    Zn2   S    
C9    C10   A    
C12   O4    A    
C38   O10   D    
C22   C28   A    
C13   C14   A    
C39   O11   D    
C31   O8    A    
C22   H16   S    
C3    N2    A    
O3    Zn1   S    
C29   C38   S    
C40   O12   D    
O4    Zn2   S    
C23   O6    A    
C4    C34   S    
C7    C31   S    
N3    N4    A    
C33   H7    S    
C24   C25   A    
C25   H5    S    
C3    N3    A    
C19   H12   S    
C16   C17   A    
C25   C26   A    
C9    H20   S    
C29   C30   A    
C30   H18   S    
C17   C18   A    
C1    C18   S    
C36   H9    S    
C35   H8    S    
C15   H3    S    
C13   H2    S    
C12   O3    A    
N1    N2    A    
C21   C23   S    
C22   C24   A    
C5    C40   S    
C26   H6    S    
C2    C36   A    
C11   C17   A    
C6    H10   S    
C28   N5    A    
C6    C7    A    
O5    Zn1   S    
C4    N1    A    
O6    Zn2   S    
C32   C33   A    
C1    O1    A    
C8    H11   S    
C5    C10   A    
C3    C10   S    
C11   C13   A    
C29   N5    A    
C33   C34   A    
C38   H15   S    
C20   C21   A    
C37   H13   S    
C27   C28   A    
C14   H14   S    
C14   C15   A    
C32   C37   S    
