data_mof_unit_8186.cif
_audit_creation_date              2012-12-11T16:33:31-0500
_audit_creation_method            fapswitch 2.2
_symmetry_space_group_name_H-M    P1
_symmetry_Int_Tables_number       1
_space_group_crystal_system       triclinic
_cell_length_a                    6.94205
_cell_length_b                    18.330073
_cell_length_c                    20.057871
_cell_angle_alpha                 68.470487
_cell_angle_beta                  90.319827
_cell_angle_gamma                 90.942206
_cell_volume                      2373.92888946

loop_
_atom_site_label
_atom_site_type_symbol
_atom_type_description
_atom_site_fract_x
_atom_site_fract_y
_atom_site_fract_z
_atom_type_partial_charge
O1    O     O_R   0.488960 0.443750 0.941980 -0.540068
O2    O     O_R   0.823890 0.406510 0.087590 -0.544639
O3    O     O_R   0.999680 0.556250 0.058020 -0.517976
C1    C     C_R   0.654348 0.386022 0.116833 0.802432
O4    O     O_R   0.818360 0.434410 0.944340 -0.543019
O5    O     O_R   0.994110 0.584350 0.913750 -0.544288
C2    C     C_R   0.648782 0.419665 0.924406 0.689232
O6    O     O_R   0.494530 0.415650 0.086250 -0.512942
O7    O     O_3   0.662590 0.549160 0.990130 -0.350256
V1    V     V_3+5 0.935320 0.490880 0.001830 1.576580
O8    O     O_R   0.324180 0.593490 0.912410 -0.548763
C3    C     C_R   0.155768 0.616464 0.884891 0.656379
O9    O     O_R   0.329720 0.565590 0.055660 -0.500057
C4    C     C_R   0.161757 0.580377 0.075571 0.786794
V2    V     V_3+5 0.435990 0.509120 0.998170 1.624473
O10   O     O_3   0.158850 0.450840 0.009870 -0.373987
C5    C     C_3   0.953521 0.746139 0.275457 -0.160627
C6    C     C_3   0.087163 0.675768 0.286141 -0.116558
H1    H     H_    0.050008 0.613244 0.316772 0.142221
H2    H     H_    0.805995 0.742113 0.297763 0.127082
H3    H     H_    0.362569 0.698096 0.347129 0.133598
C7    C     C_1   0.154559 0.626695 0.120552 -0.026596
C8    C     C_1   0.110837 0.874747 0.377769 -0.185351
C9    C     C_3   0.005935 0.780449 0.194668 -0.066808
C10   C     C_3   0.139475 0.710697 0.206012 0.130703
C11   C     C_3   0.177149 0.826723 0.211015 -0.096633
C12   C     C_3   0.124847 0.791786 0.291193 0.130755
C13   C     C_3   0.310779 0.756325 0.221707 -0.136393
C14   C     C_3   0.258363 0.722006 0.302483 -0.151278
C15   C     C_1   0.147781 0.664834 0.158785 0.045348
C16   C     C_1   0.117021 0.837223 0.338914 -0.036557
H4    H     H_    0.458218 0.760222 0.199349 0.142267
H5    H     H_    0.214238 0.889224 0.180243 0.160862
H6    H     H_    0.901731 0.804261 0.150001 0.191521
C17   C     C_R   0.031437 0.768439 0.879655 -0.193275
C18   C     C_R   0.967481 0.840443 0.879252 0.491166
C19   C     C_R   0.950917 0.903627 0.814379 -0.222291
C20   C     C_R   0.999184 0.895339 0.750182 -0.214943
C21   C     C_R   0.064567 0.823065 0.749174 0.068906
C22   C     C_R   0.080027 0.758188 0.815260 0.000153
C23   C     C_R   0.117497 0.815146 0.683938 -0.139224
C24   C     C_R   0.184527 0.742070 0.684932 0.075466
C25   C     C_R   0.198921 0.677085 0.750975 -0.001233
C26   C     C_R   0.146628 0.685086 0.816190 -0.111101
C27   C     C_R   0.235198 0.731911 0.620713 -0.205688
C28   C     C_R   0.298707 0.659932 0.621441 -0.211681
C29   C     C_R   0.312040 0.596091 0.685877 0.494738
C30   C     C_R   0.263117 0.604590 0.750071 -0.214917
H7    H     H_    0.044441 0.720970 0.931046 0.128357
H8    H     H_    0.901838 0.959831 0.813186 0.151343
H9    H     H_    0.985711 0.946444 0.701488 0.132156
H10   H     H_    0.225141 0.779232 0.569128 0.125244
H11   H     H_    0.337081 0.654109 0.571406 0.162299
H12   H     H_    0.275426 0.553772 0.799060 0.146702
H13   H     H_    0.947612 0.335926 0.422571 0.145812
C31   C     C_R   0.481194 0.107369 0.250899 -0.237143
C32   C     C_R   0.422501 0.100244 0.186986 -0.191232
C33   C     C_R   0.437657 0.164150 0.122517 0.534229
C34   C     C_R   0.510836 0.235679 0.122261 -0.223724
C35   C     C_R   0.568221 0.245108 0.186581 -0.006127
C36   C     C_R   0.555543 0.179257 0.252047 0.085367
C37   C     C_R   0.636994 0.318703 0.186308 -0.136986
C38   C     C_R   0.692450 0.326214 0.252193 -0.040264
C39   C     C_R   0.707344 0.257128 0.315067 0.031162
C40   C     C_R   0.625116 0.185218 0.316438 -0.129338
C41   C     C_R   0.731661 0.399983 0.259190 0.415037
C42   C     C_R   0.836235 0.401972 0.318367 -0.116695
C43   C     C_R   0.873569 0.333347 0.375816 -0.183831
C44   C     C_R   0.799964 0.262289 0.376221 -0.153342
H14   H     H_    0.470353 0.055430 0.299121 0.135221
H15   H     H_    0.367496 0.044264 0.187922 0.168786
H16   H     H_    0.522405 0.283500 0.070998 0.129673
H17   H     H_    0.875307 0.457386 0.322930 0.166876
H18   H     H_    0.818853 0.211763 0.424856 0.131541
O11   O     O_R   0.770540 0.084530 0.414050 -0.540365
O12   O     O_R   0.445710 0.065660 0.555720 -0.536007
O13   O     O_R   0.270420 0.915650 0.586190 -0.535274
C45   C     C_R   0.615025 0.079569 0.576578 0.724229
O14   O     O_R   0.441140 0.093540 0.412470 -0.536104
O15   O     O_R   0.265820 0.943740 0.441930 -0.540107
C46   C     C_R   0.611120 0.116575 0.385089 0.688019
O16   O     O_R   0.775150 0.056440 0.558310 -0.541957
O17   O     O_3   0.602370 0.950960 0.510050 -0.365857
V3    V     V_3+5 0.329450 0.009140 0.498150 1.436107
O18   O     O_R   0.935790 0.934280 0.444060 -0.534935
C47   C     C_R   0.103765 0.920268 0.423573 0.722471
O19   O     O_R   0.940370 0.906390 0.587310 -0.537686
C48   C     C_R   0.108627 0.883735 0.615166 0.690777
V4    V     V_3+5 0.828810 0.990710 0.501460 1.435297
O20   O     O_3   0.105780 0.049100 0.489960 -0.369210
C49   C     C_3   0.728016 0.314738 0.721336 -0.064224
C50   C     C_3   0.545009 0.288107 0.691295 -0.092641
H19   H     H_    0.472882 0.322254 0.640019 0.157247
H20   H     H_    0.807511 0.371062 0.695264 0.178637
H21   H     H_    0.300143 0.272781 0.777800 0.157908
C51   C     C_1   0.624627 0.124359 0.622923 -0.186715
C52   C     C_1   0.638945 0.372406 0.880288 -0.047654
C53   C     C_3   0.814520 0.232186 0.739909 -0.195101
C54   C     C_3   0.631569 0.206162 0.710449 0.107569
C55   C     C_3   0.719922 0.205103 0.815150 -0.107645
C56   C     C_3   0.633292 0.287058 0.795895 0.143558
C57   C     C_3   0.536928 0.178378 0.785050 -0.138460
C58   C     C_3   0.450393 0.260955 0.766491 -0.077351
C59   C     C_1   0.629127 0.161281 0.662291 -0.035024
C60   C     C_1   0.635095 0.333389 0.842766 0.141229
H22   H     H_    0.458143 0.121866 0.811096 0.148432
H23   H     H_    0.791966 0.171107 0.866494 0.173065
H24   H     H_    0.964703 0.220146 0.728703 0.129237
S1    S     S_3+6 0.368492 0.154948 0.041285 -0.007837
O21   O     O_2   0.255577 0.225584 0.997075 -0.344333
O22   O     O_2   0.546611 0.150415 0.000821 -0.334074
O23   O     O_3   0.233028 0.073333 0.057317 -0.498512
H25   H     H_    0.203263 0.072242 0.009326 0.376102
S2    S     S_3+6 0.595705 0.484863 0.213812 -0.047344
O24   O     O_2   0.687736 0.532390 0.143478 -0.346511
O25   O     O_2   0.394852 0.460463 0.201764 -0.365715
O26   O     O_3   0.583387 0.540912 0.263898 -0.521748
H26   H     H_    0.516035 0.588871 0.233414 0.353272
S3    S     S_3+6 0.392975 0.505274 0.686723 -0.038720
O27   O     O_2   0.604407 0.499335 0.703823 -0.337632
O28   O     O_2   0.287042 0.439413 0.743256 -0.365734
O29   O     O_3   0.358963 0.498015 0.606302 -0.501750
H27   H     H_    0.217264 0.496438 0.600696 0.334132
S4    S     S_3+6 0.911487 0.850782 0.960882 0.008188
O30   O     O_2   0.764072 0.789395 0.000399 -0.308321
O31   O     O_2   0.090337 0.838610 0.006040 -0.340335
O32   O     O_3   0.823100 0.940157 0.946781 -0.476686
H28   H     H_    0.937001 0.975881 0.935771 0.337440

loop_
_geom_bond_atom_site_label_1
_geom_bond_atom_site_label_2
_ccdc_geom_bond_type
O19   C48   A    
C12   C14   S    
C33   S1    S    
C23   C24   A    
C17   C18   A    
O15   V3    S    
O12   V3    S    
S2    O24   D    
C21   C23   A    
O18   C47   A    
C10   C13   S    
C30   H12   S    
C11   C12   S    
C19   C20   A    
O16   V4    S    
C13   C14   S    
C18   S4    S    
O12   C45   A    
S1    O22   D    
O5    C3    A    
C20   C21   A    
V2    O10   S    
C1    C37   S    
C5    H2    S    
C53   H24   S    
C31   C32   A    
C35   C37   A    
C6    H1    S    
C55   C56   S    
O15   C47   A    
C50   C58   S    
O8    V2    S    
O17   V3    S    
O13   C48   A    
C45   C51   S    
C43   C44   A    
C8    C47   S    
C17   H7    S    
C42   H17   S    
C2    C52   S    
C25   C30   A    
C1    O6    A    
C34   H16   S    
C52   C60   T    
C29   S3    S    
C41   C42   A    
C38   C41   A    
C34   C35   A    
C56   C58   S    
O9    C4    A    
C6    C10   S    
V3    O20   S    
C49   C56   S    
C41   S2    S    
O23   H25   S    
H21   C58   S    
H13   C43   S    
S3    O28   D    
C56   C60   S    
O17   V4    S    
C5    C9    S    
C12   C16   S    
C42   C43   A    
C5    C12   S    
C13   H4    S    
C9    C10   S    
S1    O23   S    
C49   C50   S    
O4    C2    A    
O18   V4    S    
O11   C46   A    
C20   H9    S    
C27   H10   S    
C33   C34   A    
C27   C28   A    
H3    C14   S    
C9    H6    S    
C35   C36   A    
C24   C27   A    
C8    C16   T    
O2    C1    A    
C25   C26   A    
C37   C38   A    
C45   O16   A    
C11   H5    S    
C40   C46   S    
C29   C30   A    
S3    O27   D    
C55   C57   S    
C5    C6    S    
C44   H18   S    
C6    C14   S    
C39   C44   A    
C32   H15   S    
O3    C4    A    
S4    O32   S    
O1    V2    S    
O6    V2    S    
C31   H14   S    
O9    V2    S    
C24   C25   A    
O32   H28   S    
O2    V1    S    
C21   C22   A    
S4    O31   D    
O7    V1    S    
S3    O29   S    
C10   C15   S    
C23   C48   S    
C28   C29   A    
C18   C19   A    
C55   H23   S    
C54   C59   S    
C7    C15   T    
O1    C2    A    
C11   C13   S    
C9    C11   S    
O5    V1    S    
S2    O25   D    
O8    C3    A    
O14   C46   A    
O13   V3    S    
C39   C40   A    
C4    C7    S    
C51   C59   T    
C17   C22   A    
O7    V2    S    
O4    V1    S    
C3    C26   S    
O3    V1    S    
V1    O10   S    
O26   H26   S    
C49   H20   S    
C19   H8    S    
C32   C33   A    
O14   V3    S    
C28   H11   S    
C50   H19   S    
C57   H22   S    
C49   C53   S    
C57   C58   S    
C53   C55   S    
S2    O26   S    
O11   V4    S    
C38   C39   A    
C36   C40   A    
C22   C26   A    
C54   C57   S    
C53   C54   S    
O29   H27   S    
O19   V4    S    
C31   C36   A    
V4    O20   S    
S1    O21   D    
C50   C54   S    
S4    O30   D    
