data_mof_unit_6281.cif
_audit_creation_date              2012-10-26T18:34:22-0400
_audit_creation_method            fapswitch 2.2
_symmetry_space_group_name_H-M    P1
_symmetry_Int_Tables_number       1
_space_group_crystal_system       triclinic
_cell_length_a                    10.827166
_cell_length_b                    9.619821
_cell_length_c                    9.065484
_cell_angle_alpha                 89.434265
_cell_angle_beta                  91.541656
_cell_angle_gamma                 89.516766
_cell_volume                      943.795565258

loop_
_atom_site_label
_atom_site_type_symbol
_atom_type_description
_atom_site_fract_x
_atom_site_fract_y
_atom_site_fract_z
_atom_type_partial_charge
C1    C     C_R   0.262354 0.500336 0.499705 0.544952
C2    C     C_R   0.062881 0.626501 0.500773 -0.141052
C3    C     C_R   0.871655 0.499592 0.500281 0.019841
C4    C     C_R   0.128345 0.500408 0.499719 0.019841
C5    C     C_R   0.428181 0.077732 0.400908 0.235974
C6    C     C_R   0.571819 0.922267 0.599092 0.235974
C7    C     C_R   0.570614 0.070169 0.601510 0.178019
C8    C     C_R   0.429386 0.929831 0.398489 0.178018
C9    C     C_R   0.737646 0.499664 0.500295 0.544952
C10   C     C_R   0.499765 0.500416 0.220917 0.556532
C11   C     C_R   0.500235 0.499584 0.779083 0.556532
C12   C     C_1   0.499911 0.500575 0.065617 -0.060992
C13   C     C_1   0.500088 0.499425 0.934383 -0.060993
C14   C     C_R   0.064892 0.373893 0.498922 -0.131676
C15   C     C_R   0.935108 0.626107 0.501077 -0.131676
C16   C     C_R   0.937119 0.373499 0.499226 -0.141052
Cu1   Cu    Cu3+1 0.500000 0.640660 0.500000 0.965563
Cu2   Cu    Cu3+1 0.500000 0.359340 0.500000 0.965564
H1    H     H_    0.113651 0.275137 0.498108 0.134266
H2    H     H_    0.582016 0.170405 0.798025 0.255671
H3    H     H_    0.301291 0.789728 0.321507 0.270508
H4    H     H_    0.417991 0.829600 0.201971 0.255668
H5    H     H_    0.886349 0.724863 0.501892 0.134265
H6    H     H_    0.889945 0.274647 0.498531 0.128767
H7    H     H_    0.110055 0.725352 0.501469 0.128768
H8    H     H_    0.376047 0.129367 0.191375 0.228235
H9    H     H_    0.259358 0.124335 0.312327 0.217071
H10   H     H_    0.623953 0.870634 0.808625 0.228235
H11   H     H_    0.740642 0.875664 0.687673 0.217071
H12   H     H_    0.698716 0.210267 0.678486 0.270504
N1    N     N_R   0.500000 0.852070 0.500000 -0.217243
N2    N     N_R   0.500000 0.147930 0.500000 -0.217242
N3    N     N_3   0.350814 0.154783 0.298382 -0.545164
N4    N     N_3   0.649186 0.845217 0.701619 -0.545163
N5    N     N_3   0.641108 0.133587 0.718065 -0.658741
N6    N     N_3   0.358896 0.866412 0.281932 -0.658740
O1    O     O_R   0.319640 0.618740 0.499990 -0.525344
O2    O     O_R   0.680360 0.381260 0.500010 -0.525344
O3    O     O_R   0.680360 0.618740 0.500010 -0.479395
O4    O     O_R   0.319640 0.381260 0.499990 -0.479394
O5    O     O_R   0.500000 0.618760 0.288390 -0.513166
O6    O     O_R   0.500000 0.381240 0.711610 -0.513165
O7    O     O_R   0.500000 0.618760 0.711610 -0.462625
O8    O     O_R   0.500000 0.381240 0.288390 -0.462626

loop_
_geom_bond_atom_site_label_1
_geom_bond_atom_site_label_2
_ccdc_geom_bond_type
C5    C8    A    
C2    C4    A    
Cu1   O7    S    
C11   O7    A    
C6    C7    A    
C3    C9    S    
Cu2   O8    S    
H4    N6    S    
H8    N3    S    
C1    O1    A    
C1    C4    S    
C8    N6    S    
C5    N2    A    
C15   H5    S    
Cu1   Cu2   S    
Cu2   O2    S    
H10   N4    S    
C16   H6    S    
H3    N6    S    
Cu1   O1    S    
H9    N3    S    
C10   O5    A    
C2    C15   A    
C11   C13   S    
C10   C12   S    
H12   N5    S    
H11   N4    S    
C9    O2    A    
C6    N1    A    
C2    H7    S    
Cu1   O5    S    
Cu2   O6    S    
C4    C14   A    
Cu1   N1    S    
C14   C16   A    
Cu2   N2    S    
C10   O8    A    
C9    O3    A    
C3    C15   A    
C12   C13   T    
C11   O6    A    
Cu1   O3    S    
Cu2   O4    S    
C7    N2    A    
C1    O4    A    
C8    N1    A    
C7    N5    S    
C14   H1    S    
H2    N5    S    
C3    C16   A    
C6    N4    S    
C5    N3    S    
