data_mof_unit_62175.cif
_audit_creation_date              2012-12-10T21:39:41-0500
_audit_creation_method            fapswitch 2.2
_symmetry_space_group_name_H-M    P1
_symmetry_Int_Tables_number       1
_space_group_crystal_system       triclinic
_cell_length_a                    16.148638
_cell_length_b                    16.894024
_cell_length_c                    23.401524
_cell_angle_alpha                 90.910453
_cell_angle_beta                  91.556314
_cell_angle_gamma                 86.717316
_cell_volume                      6370.81390696

loop_
_atom_site_label
_atom_site_type_symbol
_atom_type_description
_atom_site_fract_x
_atom_site_fract_y
_atom_site_fract_z
_atom_type_partial_charge
C1    C     C_R   0.488270 0.652716 0.500816 0.883597
C2    C     C_R   0.511729 0.347283 0.499187 0.883601
C3    C     C_R   0.445760 0.449747 0.758873 -0.083318
C4    C     C_R   0.554220 0.550118 0.241098 -0.083325
C5    C     C_R   0.447264 0.450987 0.699638 -0.208719
C6    C     C_R   0.552711 0.548945 0.300334 -0.208735
C7    C     C_R   0.496951 0.503570 0.672477 -0.074999
C8    C     C_R   0.503053 0.496366 0.327525 -0.074972
C9    C     C_R   0.543410 0.557233 0.705040 -0.028566
C10   C     C_R   0.456636 0.442637 0.294992 -0.028545
C11   C     C_R   0.541444 0.555525 0.764387 -0.123514
C12   C     C_R   0.458605 0.444279 0.235645 -0.123498
C13   C     C_R   0.493417 0.501485 0.791094 0.287537
C14   C     C_R   0.506597 0.498318 0.208906 0.287559
C15   C     C_R   0.480086 0.738349 0.504882 -0.033583
C16   C     C_R   0.519911 0.261649 0.495139 -0.033585
C17   C     C_R   0.548378 0.779471 0.524422 -0.209278
C18   C     C_R   0.451614 0.220521 0.475618 -0.209253
C19   C     C_R   0.543489 0.861222 0.525756 -0.147298
C20   C     C_R   0.456497 0.138770 0.474308 -0.147309
C21   C     C_R   0.470208 0.902909 0.506740 0.322221
C22   C     C_R   0.529779 0.097089 0.493329 0.322222
C23   C     C_R   0.499116 0.501337 0.610491 0.884583
C24   C     C_R   0.500884 0.498658 0.389510 0.884580
C25   C     C_R   0.400499 0.861912 0.490542 -0.175113
C26   C     C_R   0.599493 0.138089 0.509509 -0.175119
C27   C     C_R   0.405273 0.779571 0.489420 -0.186162
C28   C     C_R   0.594724 0.220431 0.510607 -0.186167
C29   C     C_R   0.765971 0.460556 0.472936 0.277901
C30   C     C_R   0.234029 0.539441 0.527065 0.277900
C31   C     C_R   0.852500 0.463577 0.475046 -0.276517
C32   C     C_R   0.147500 0.536421 0.524956 -0.276517
C33   C     C_R   0.890895 0.517331 0.512101 0.297664
C34   C     C_R   0.109105 0.482670 0.487899 0.297667
C35   C     C_R   0.839596 0.567176 0.546373 -0.279147
C36   C     C_R   0.160403 0.432827 0.453625 -0.279152
C37   C     C_R   0.752790 0.562560 0.543190 -0.033704
C38   C     C_R   0.247209 0.437443 0.456808 -0.033714
C39   C     C_R   0.437402 0.532017 0.120107 0.528945
C40   C     C_R   0.562584 0.467715 0.879892 0.528945
C41   C     C_R   0.573880 0.469323 0.120034 0.534240
C42   C     C_R   0.426110 0.530419 0.879965 0.534236
C43   C     C_R   0.574038 0.468210 0.059840 -0.081884
C44   C     C_R   0.425941 0.531505 0.940159 -0.081879
C45   C     C_R   0.501995 0.499984 0.030129 -0.046402
C46   C     C_R   0.497982 0.499726 0.969870 -0.046401
C47   C     C_R   0.433669 0.532079 0.060577 -0.044126
C48   C     C_R   0.566308 0.467633 0.939422 -0.044127
C49   C     C_R   0.642185 0.436437 0.028068 0.208521
C50   C     C_R   0.357788 0.563264 0.971931 0.208524
C51   C     C_R   0.637226 0.436518 0.968656 -0.184491
C52   C     C_R   0.362746 0.563183 0.031343 -0.184490
H1    H     H_    0.351601 0.748391 0.475000 0.177750
H2    H     H_    0.648401 0.251615 0.525014 0.177756
H3    H     H_    0.110955 0.576063 0.552422 0.182532
H4    H     H_    0.889045 0.423934 0.447581 0.182532
H5    H     H_    0.866708 0.609606 0.575435 0.167137
H6    H     H_    0.133291 0.390400 0.424560 0.167136
H7    H     H_    0.714085 0.601517 0.569581 0.160657
H8    H     H_    0.285914 0.398489 0.430415 0.160663
H9    H     H_    0.689890 0.412023 0.945206 0.212016
H10   H     H_    0.310079 0.587673 0.054793 0.212017
H11   H     H_    0.408381 0.408214 0.779826 0.150824
H12   H     H_    0.591570 0.591651 0.220119 0.150805
H13   H     H_    0.410929 0.409924 0.674964 0.163869
H14   H     H_    0.589018 0.590054 0.324985 0.163841
H15   H     H_    0.576795 0.596238 0.790163 0.147671
H16   H     H_    0.423280 0.403519 0.209892 0.147660
H17   H     H_    0.394026 0.251430 0.461889 0.171224
H18   H     H_    0.605965 0.748558 0.538149 0.171198
H19   H     H_    0.402512 0.108297 0.459600 0.156409
H20   H     H_    0.597470 0.891692 0.540477 0.156408
H21   H     H_    0.343556 0.893875 0.476793 0.150662
H22   H     H_    0.656436 0.106130 0.523261 0.150666
N1    N     N_R   0.506343 0.500623 0.148147 -0.359662
N2    N     N_R   0.493652 0.499130 0.851851 -0.359655
N3    N     N_2   0.465406 0.985847 0.501796 -0.197787
N4    N     N_2   0.534582 0.014151 0.498282 -0.197780
N5    N     N_R   0.716910 0.509720 0.507000 -0.112097
N6    N     N_R   0.283090 0.490280 0.493000 -0.112097
N7    N     N_2   0.979324 0.523233 0.516055 -0.165647
N8    N     N_2   0.020675 0.476768 0.483945 -0.165647
O1    O     O_R   0.422540 0.612660 0.497490 -0.600353
O2    O     O_R   0.577460 0.387340 0.502510 -0.600359
O3    O     O_R   0.561840 0.618900 0.501990 -0.630572
O4    O     O_R   0.438160 0.381100 0.498010 -0.630571
O5    O     O_R   0.430330 0.496900 0.581600 -0.591392
O6    O     O_R   0.569670 0.503100 0.418400 -0.591380
O7    O     O_R   0.569640 0.503140 0.586090 -0.617661
O8    O     O_R   0.430360 0.496860 0.413910 -0.617659
O9    O     O_2   0.372674 0.563037 0.150068 -0.544144
O10   O     O_2   0.627313 0.436697 0.849930 -0.544145
O11   O     O_2   0.639418 0.438903 0.150835 -0.500875
O12   O     O_2   0.360582 0.560862 0.849166 -0.500887
Zn1   Zn    Zn3+2 0.406980 0.495830 0.497000 0.988424
Zn2   Zn    Zn3+2 0.593020 0.504170 0.503000 0.988427
I1    I     I_    0.757298 0.386523 0.061994 -0.194596
I2    I     I_    0.242663 0.613153 0.938005 -0.194598
I3    I     I_    0.281814 0.622999 0.585791 -0.300991
I4    I     I_    0.718186 0.376997 0.414211 -0.300978
C53   C     C_1   0.589934 0.616874 0.678857 0.195854
N9    N     N_1   0.626925 0.665039 0.658099 -0.217617
C54   C     C_1   0.410151 0.382996 0.321211 0.195828
N10   N     N_1   0.373192 0.334831 0.341996 -0.217646

loop_
_geom_bond_atom_site_label_1
_geom_bond_atom_site_label_2
_ccdc_geom_bond_type
C16   C28   A    
O6    Zn2   S    
C53   N9    T    
C2    O2    A    
C51   H9    S    
N7    N8    D    
O8    Zn1   S    
C45   C46   A    
C37   N5    A    
C10   C54   S    
C19   C21   A    
C25   H21   S    
C36   H6    S    
C33   C35   A    
O3    Zn2   S    
C40   C48   A    
O2    Zn2   S    
C26   H22   S    
C48   C51   A    
C41   O11   S    
C44   C46   A    
C49   C51   A    
O5    Zn1   S    
C50   C52   A    
C23   O7    A    
C20   H19   S    
C1    C15   S    
C39   N1    A    
C31   H4    S    
C2    C16   S    
C32   H3    S    
C34   C36   A    
C3    C13   A    
C30   N6    A    
C18   H17   S    
C17   H18   S    
C9    C53   S    
C23   O5    A    
C41   C43   A    
C19   H20   S    
C42   C44   A    
C39   O9    S    
C11   H15   S    
C45   C47   A    
C1    O3    A    
C46   C48   A    
C50   I2    S    
C22   N4    S    
C4    C6    A    
C5    C7    A    
C28   H2    S    
C43   C49   A    
C6    C8    A    
N3    N4    D    
C30   I3    S    
C40   N2    A    
C32   C34   A    
C41   N1    A    
C43   C45   A    
C15   C27   A    
C29   N5    A    
C13   N2    S    
O1    Zn1   S    
C5    H13   S    
C31   C33   A    
C40   O10   S    
N6    Zn1   S    
C9    C11   A    
C37   H7    S    
C10   C12   A    
C38   H8    S    
C8    C10   A    
C12   C14   A    
C1    O1    A    
C17   C19   A    
C39   C47   A    
C44   C50   A    
C7    C9    A    
C21   C25   A    
C29   I4    S    
C35   C37   A    
C42   O12   S    
C42   N2    A    
C24   O6    A    
C20   C22   A    
C3    C5    A    
C24   O8    A    
C27   H1    S    
C15   C17   A    
C47   C52   A    
C3    H11   S    
C25   C27   A    
C4    H12   S    
C26   C28   A    
C35   H5    S    
C14   N1    S    
C12   H16   S    
O7    Zn2   S    
C36   C38   A    
N5    Zn2   S    
C29   C31   A    
C52   H10   S    
C30   C32   A    
C11   C13   A    
C38   N6    A    
C7    C23   S    
C8    C24   S    
C2    O4    A    
C18   C20   A    
C4    C14   A    
O4    Zn1   S    
C49   I1    S    
C6    H14   S    
C16   C18   A    
C22   C26   A    
C21   N3    S    
C54   N10   T    
C34   N8    S    
C33   N7    S    
