data_mof_unit_43756.cif
_audit_creation_date              2012-12-10T19:08:08-0500
_audit_creation_method            fapswitch 2.2
_symmetry_space_group_name_H-M    P1
_symmetry_Int_Tables_number       1
_space_group_crystal_system       triclinic
_cell_length_a                    9.16225
_cell_length_b                    10.852516
_cell_length_c                    9.640835
_cell_angle_alpha                 88.269334
_cell_angle_beta                  88.477329
_cell_angle_gamma                 92.379834
_cell_volume                      956.98621253

loop_
_atom_site_label
_atom_site_type_symbol
_atom_type_description
_atom_site_fract_x
_atom_site_fract_y
_atom_site_fract_z
_atom_type_partial_charge
C1    C     C_R   0.505767 0.262677 0.500688 0.807146
C2    C     C_R   0.527474 0.942000 0.365118 0.138568
C3    C     C_R   0.528289 0.871603 0.491427 -0.102277
C4    C     C_R   0.554253 0.933527 0.613906 0.079682
C5    C     C_3   0.476511 0.918127 0.751683 -0.462696
C6    C     C_3   0.472814 0.057009 0.751757 -0.480828
C7    C     C_R   0.569542 0.593097 0.066958 0.227626
C8    C     C_R   0.422126 0.414231 0.081373 -0.174699
C9    C     C_R   0.410911 0.419288 0.934574 0.057407
C10   C     C_R   0.567061 0.594458 0.920806 0.215634
C11   C     C_3   0.720449 0.641471 0.902136 -0.537178
C12   C     C_R   0.220813 0.500134 0.501128 0.841377
C13   C     C_3   0.728440 0.633971 0.059560 -0.252128
C14   C     C_R   0.506360 0.737657 0.497513 0.806562
C15   C     C_R   0.779221 0.500540 0.498916 0.829529
C16   C     C_1   0.065401 0.500774 0.501745 -0.186964
C17   C     C_1   0.934621 0.500882 0.498644 -0.183284
C18   C     C_R   0.553640 0.060702 0.616472 0.111794
C19   C     C_R   0.527349 0.130391 0.497058 -0.118014
C20   C     C_R   0.527584 0.070876 0.369260 -0.280044
Cu1   Cu    Cu3+1 0.499990 0.499980 0.640670 0.936152
Cu2   Cu    Cu3+1 0.500010 0.500020 0.359330 0.939108
H1    H     H_    0.518450 0.122888 0.272349 0.162320
H2    H     H_    0.728955 0.737560 0.859092 0.176388
H3    H     H_    0.746401 0.725913 0.105757 0.151482
H4    H     H_    0.366276 0.871874 0.745903 0.200447
H5    H     H_    0.546507 0.880270 0.833473 0.192096
H6    H     H_    0.361138 0.088995 0.737070 0.221200
H7    H     H_    0.538104 0.099604 0.834685 0.190690
H8    H     H_    0.362081 0.344122 0.143372 0.150378
H9    H     H_    0.790599 0.576902 0.846772 0.217428
N1    N     N_R   0.500920 0.500930 0.147930 -0.209174
N2    N     N_R   0.500930 0.500890 0.852020 -0.203027
O1    O     O_R   0.500000 0.319640 0.618810 -0.571422
O2    O     O_R   0.500020 0.319680 0.381230 -0.597670
O3    O     O_R   0.288380 0.499980 0.618770 -0.587106
O4    O     O_R   0.288400 0.500020 0.381190 -0.593871
O5    O     O_R   0.499980 0.680320 0.618770 -0.587207
O6    O     O_R   0.500000 0.680360 0.381190 -0.546690
O7    O     O_R   0.711600 0.499980 0.618810 -0.597552
O8    O     O_R   0.711620 0.500020 0.381230 -0.562741
C21   C     C_R   0.838033 0.541211 0.102910 0.214906
C22   C     C_R   0.980786 0.586155 0.122150 -0.209350
C23   C     C_R   0.088648 0.505661 0.156391 -0.129053
C24   C     C_R   0.053853 0.379870 0.180746 -0.072858
C25   C     C_R   0.913572 0.333072 0.156482 -0.160251
C26   C     C_R   0.807562 0.412374 0.111684 -0.068395
H10   H     H_    0.009574 0.683597 0.107234 0.122761
H11   H     H_    0.198773 0.542880 0.161961 0.177856
H12   H     H_    0.135047 0.317485 0.214997 0.123785
H13   H     H_    0.888110 0.234972 0.168525 0.124900
H14   H     H_    0.703820 0.371524 0.084312 0.127844
N3    N     N_3   0.517124 0.884574 0.233579 -0.574820
H15   H     H_    0.421571 0.912376 0.187000 0.209310
H16   H     H_    0.605814 0.917383 0.170510 0.196986
C27   C     C_R   0.280061 0.350584 0.885212 0.169414
C28   C     C_R   0.155991 0.415168 0.848860 -0.070021
C29   C     C_R   0.024208 0.351928 0.821519 -0.136051
C30   C     C_R   0.010860 0.224129 0.841516 -0.119398
C31   C     C_R   0.127679 0.160484 0.893686 -0.158925
C32   C     C_R   0.259907 0.224001 0.918863 -0.228047
H17   H     H_    0.160478 0.515142 0.843865 0.127959
H18   H     H_    0.930950 0.402329 0.789559 0.140217
H19   H     H_    0.908192 0.175387 0.822543 0.123441
H20   H     H_    0.115268 0.062353 0.916931 0.129406
H21   H     H_    0.345852 0.174797 0.968111 0.119941

loop_
_geom_bond_atom_site_label_1
_geom_bond_atom_site_label_2
_ccdc_geom_bond_type
C23   H11   S    
C1    O1    A    
C7    C10   A    
C22   C23   A    
C26   H14   S    
Cu1   O1    S    
C5    H4    S    
C14   O5    A    
C22   H10   S    
C19   C20   A    
C20   H1    S    
C4    C18   A    
C2    C3    A    
C28   C29   A    
C8    H8    S    
C30   C31   A    
C27   C32   A    
Cu1   O3    S    
C12   O4    A    
N3    H15   S    
C27   C28   A    
C9    N2    A    
Cu2   O2    S    
C11   C13   S    
C13   H3    S    
C30   H19   S    
C16   C17   T    
C3    C14   S    
Cu2   N1    S    
C24   H12   S    
Cu2   O6    S    
C25   H13   S    
Cu1   Cu2   S    
C13   C21   S    
C31   H20   S    
C10   N2    A    
C21   C26   A    
N3    H16   S    
C5    C6    S    
C6    C18   S    
C15   O7    A    
C1    C19   S    
Cu2   O8    S    
C12   O3    A    
C21   C22   A    
C11   H9    S    
C3    C4    A    
C8    N1    A    
C24   C25   A    
C11   H2    S    
C7    C13   S    
C6    H7    S    
Cu1   N2    S    
C23   C24   A    
C15   O8    A    
C8    C9    A    
C15   C17   S    
C18   C19   A    
C10   C11   S    
C29   H18   S    
C9    C27   S    
C1    O2    A    
C25   C26   A    
C4    C5    S    
C7    N1    A    
C28   H17   S    
C29   C30   A    
C5    H5    S    
Cu2   O4    S    
C2    C20   A    
C32   H21   S    
C6    H6    S    
Cu1   O5    S    
C12   C16   S    
C14   O6    A    
C31   C32   A    
C2    N3    S    
Cu1   O7    S    
