data_mof_unit_10527.cif
_audit_creation_date              2012-12-10T20:31:09-0500
_audit_creation_method            fapswitch 2.2
_symmetry_space_group_name_H-M    P1
_symmetry_Int_Tables_number       1
_space_group_crystal_system       triclinic
_cell_length_a                    15.025568
_cell_length_b                    10.675382
_cell_length_c                    9.863652
_cell_angle_alpha                 90.109163
_cell_angle_beta                  90.128759
_cell_angle_gamma                 89.885845
_cell_volume                      1582.15606741

loop_
_atom_site_label
_atom_site_type_symbol
_atom_type_description
_atom_site_fract_x
_atom_site_fract_y
_atom_site_fract_z
_atom_type_partial_charge
C1    C     C_R   0.497540 0.260022 0.499998 0.876588
C2    C     C_R   0.184414 0.484553 0.621390 -0.201744
C3    C     C_R   0.230326 0.499651 0.499644 -0.097633
C4    C     C_R   0.326474 0.499751 0.499900 0.894977
C5    C     C_R   0.184340 0.515047 0.377582 -0.232180
C6    C     C_R   0.491996 0.064179 0.623221 0.141062
C7    C     C_R   0.484522 0.128615 0.501234 -0.098815
C8    C     C_R   0.461079 0.064682 0.382119 -0.227221
C9    C     C_R   0.461056 0.935064 0.382239 -0.223932
C10   C     C_R   0.484671 0.871538 0.501405 -0.095925
C11   C     C_R   0.492298 0.936542 0.623229 0.100598
C12   C     C_R   0.906648 0.514886 0.376311 0.040564
C13   C     C_3   0.562877 0.929692 0.730138 -0.481778
C14   C     C_3   0.562386 0.071687 0.730335 -0.482907
C15   C     C_R   0.441047 0.571338 0.071410 0.116603
C16   C     C_R   0.497563 0.740011 0.500120 0.884748
C17   C     C_R   0.562850 0.434441 0.072022 -0.121948
C18   C     C_R   0.562732 0.434228 0.928040 -0.137076
C19   C     C_R   0.441446 0.572178 0.928372 0.092292
C20   C     C_3   0.341818 0.559994 0.925215 0.369556
C21   C     C_3   0.342368 0.560893 0.078766 -0.539609
C22   C     C_R   0.673358 0.500215 0.500115 0.889107
C23   C     C_R   0.954046 0.475833 0.745545 -0.222507
C24   C     C_R   0.814604 0.513777 0.377443 -0.225462
C25   C     C_R   0.769180 0.501078 0.500225 -0.075522
C26   C     C_R   0.815269 0.489206 0.622875 -0.267571
C27   C     C_R   0.907363 0.489402 0.623475 0.137027
C28   C     C_R   0.953342 0.502514 0.499647 0.063108
C29   C     C_3   0.333616 0.777215 0.870324 -0.289758
C30   C     C_3   0.088469 0.660884 0.084221 -0.344816
C31   C     C_R   0.046454 0.474076 0.744982 -0.206289
C32   C     C_R   0.092442 0.486944 0.622533 0.130206
C33   C     C_R   0.045937 0.502009 0.499160 -0.009864
C34   C     C_R   0.092076 0.515505 0.375458 -0.002743
C35   C     C_R   0.045244 0.529899 0.252559 0.527787
C36   C     C_R   0.952375 0.527256 0.253759 -0.325929
H1    H     H_    0.778496 0.523254 0.282648 0.159933
H2    H     H_    0.779680 0.478859 0.717747 0.156819
H3    H     H_    0.321061 0.469711 0.121952 0.188859
H4    H     H_    0.919158 0.465841 0.840978 0.150151
H5    H     H_    0.081944 0.462600 0.839939 0.188970
H6    H     H_    0.219890 0.470238 0.715298 0.173575
H7    H     H_    0.220340 0.527571 0.284383 0.198388
H8    H     H_    0.916233 0.534364 0.158806 0.157798
H9    H     H_    0.448406 0.113784 0.287986 0.169856
H10   H     H_    0.448256 0.885607 0.288185 0.165646
H11   H     H_    0.390258 0.778772 0.798644 0.191293
H12   H     H_    0.537824 0.888756 0.826267 0.196535
H13   H     H_    0.355905 0.803049 0.974123 0.140953
H14   H     H_    0.285419 0.849599 0.836596 0.182100
H15   H     H_    0.120144 0.725316 0.158926 0.163814
H16   H     H_    0.019480 0.692140 0.060675 0.165013
H17   H     H_    0.127287 0.666414 0.988978 0.239211
H18   H     H_    0.626175 0.888530 0.692157 0.207835
H19   H     H_    0.536690 0.112725 0.826292 0.202324
H20   H     H_    0.625466 0.113352 0.692762 0.200236
H21   H     H_    0.612508 0.380786 0.126390 0.143374
H22   H     H_    0.612229 0.380295 0.873742 0.143684
H23   H     H_    0.321121 0.467487 0.884438 0.093929
H24   H     H_    0.311172 0.644953 0.125406 0.206097
N1    N     N_R   0.499390 0.499140 0.142800 -0.094968
N2    N     N_R   0.499390 0.499180 0.857150 -0.126717
O1    O     O_R   0.500010 0.316790 0.614690 -0.622412
O2    O     O_3   0.090136 0.536025 0.130409 -0.625020
O3    O     O_R   0.500000 0.316760 0.385350 -0.623518
O4    O     O_R   0.367850 0.499990 0.614680 -0.614097
O5    O     O_R   0.367840 0.499950 0.385340 -0.630546
O6    O     O_R   0.500000 0.683240 0.614650 -0.620442
O7    O     O_R   0.499990 0.683210 0.385310 -0.618870
O8    O     O_R   0.632160 0.500050 0.614660 -0.627370
O9    O     O_R   0.632150 0.500010 0.385320 -0.627525
O10   O     O_3   0.290985 0.659370 0.866837 -0.599043
Zn1   Zn    Zn3+2 0.500010 0.500020 0.653130 0.947071
Zn2   Zn    Zn3+2 0.499990 0.499980 0.346870 0.944068

loop_
_geom_bond_atom_site_label_1
_geom_bond_atom_site_label_2
_ccdc_geom_bond_type
C14   H20   S    
C30   H15   S    
C30   O2    S    
C35   C36   A    
C7    C8    A    
C29   H13   S    
C15   C19   A    
C26   C27   A    
C12   C28   A    
C19   N2    A    
C23   H4    S    
C2    C32   A    
C34   C35   A    
C8    H9    S    
C17   N1    A    
C18   H22   S    
C19   C20   S    
C8    C9    A    
C22   C25   S    
C1    O3    A    
N2    Zn1   S    
C35   O2    S    
C16   O6    A    
C23   C27   A    
C12   C36   A    
C9    C10   A    
C29   O10   S    
C14   H19   S    
C5    H7    S    
C9    H10   S    
C13   C14   S    
C1    O1    A    
C33   C34   A    
C29   H14   S    
C30   H17   S    
C24   C25   A    
C21   H24   S    
C24   H1    S    
C6    C11   A    
C18   N2    A    
O1    Zn1   S    
C25   C26   A    
O4    Zn1   S    
O3    Zn2   S    
C13   H12   S    
C23   C31   A    
C6    C14   S    
C31   C32   A    
C21   H3    S    
C5    C34   A    
O8    Zn1   S    
C17   C18   A    
C15   N1    A    
O7    Zn2   S    
O5    Zn2   S    
C20   H23   S    
C29   H11   S    
C28   C33   A    
C36   H8    S    
C3    C4    S    
C22   O9    A    
C13   H18   S    
C30   H16   S    
C31   H5    S    
C1    C7    S    
C26   H2    S    
C16   O7    A    
C3    C5    A    
C4    O5    A    
O9    Zn2   S    
C6    C7    A    
N1    Zn2   S    
C12   C24   A    
C32   C33   A    
C2    C3    A    
O6    Zn1   S    
C10   C16   S    
C4    O4    A    
C11   C13   S    
C2    H6    S    
C10   C11   A    
C15   C21   S    
C20   C21   S    
C27   C28   A    
C20   O10   S    
C22   O8    A    
C17   H21   S    
