data_mof_unit_34463.cif
_audit_creation_date              2012-12-11T16:58:25-0500
_audit_creation_method            fapswitch 2.2
_symmetry_space_group_name_H-M    P1
_symmetry_Int_Tables_number       1
_space_group_crystal_system       triclinic
_cell_length_a                    16.909644
_cell_length_b                    7.240247
_cell_length_c                    16.867929
_cell_angle_alpha                 89.986459
_cell_angle_beta                  100.363198
_cell_angle_gamma                 89.970911
_cell_volume                      2031.45197337

loop_
_atom_site_label
_atom_site_type_symbol
_atom_type_description
_atom_site_fract_x
_atom_site_fract_y
_atom_site_fract_z
_atom_type_partial_charge
O1    O     O_R   0.413450 0.494370 0.415710 -0.531374
O2    O     O_R   0.586550 0.994370 0.584290 -0.531633
O3    O     O_R   0.578420 0.819350 0.429360 -0.532211
O4    O     O_R   0.421580 0.319350 0.570640 -0.532640
C1    C     C_R   0.604752 0.653923 0.413638 0.715241
C2    C     C_R   0.395239 0.153961 0.586353 0.731371
O5    O     O_R   0.413570 0.823780 0.406240 -0.544769
O6    O     O_R   0.586430 0.323780 0.593760 -0.550213
O7    O     O_R   0.420530 0.998740 0.561000 -0.546000
O8    O     O_R   0.579470 0.498740 0.439000 -0.545337
C3    C     C_R   0.386407 0.655310 0.383599 0.705646
C4    C     C_R   0.613621 0.155111 0.616746 0.709291
O9    O     O_3   0.502480 0.662320 0.550800 -0.385141
O10   O     O_3   0.497520 0.162320 0.449200 -0.382137
V1    V     V_3+5 0.499540 0.935370 0.490580 1.440343
V2    V     V_3+5 0.500460 0.435370 0.509420 1.433571
C5    C     C_R   0.718014 0.975333 0.711585 -0.012041
C6    C     C_R   0.270956 0.488825 0.298168 0.043586
C7    C     C_R   0.679405 0.143477 0.688212 -0.044373
C8    C     C_R   0.319190 0.645384 0.314152 -0.103068
C9    C     C_R   0.703647 0.298195 0.737570 -0.186233
C10   C     C_R   0.299658 0.793953 0.259404 -0.177339
H1    H     H_    0.673363 0.429575 0.725217 0.117317
H2    H     H_    0.335417 0.918726 0.266317 0.117985
C11   C     C_R   0.769449 0.286784 0.802143 -0.172218
C12   C     C_R   0.233571 0.782166 0.194304 -0.174883
H3    H     H_    0.787161 0.410004 0.837173 0.125827
H4    H     H_    0.221230 0.898513 0.153662 0.122009
C13   C     C_R   0.813185 0.120433 0.819280 -0.054884
C14   C     C_R   0.184646 0.621693 0.181905 -0.069482
C15   C     C_R   0.782779 0.963982 0.775257 -0.014497
C16   C     C_R   0.207544 0.477499 0.235806 -0.001670
C17   C     C_3   0.824720 0.823264 0.733051 -0.419260
C18   C     C_3   0.182059 0.292878 0.260873 -0.434665
C19   C     C_3   0.753920 0.835450 0.663416 0.529389
C20   C     C_3   0.253830 0.305583 0.331376 0.522656
H5    H     H_    0.829050 0.687436 0.764161 0.127262
H6    H     H_    0.188906 0.184005 0.216313 0.127413
H7    H     H_    0.882165 0.875461 0.718186 0.202668
H8    H     H_    0.122494 0.297683 0.279946 0.208637
H9    H     H_    0.717951 0.706634 0.652372 0.033711
H10   H     H_    0.302204 0.202519 0.330059 0.030112
C21   C     C_R   0.333426 0.133004 0.638539 -0.042105
C22   C     C_R   0.666545 0.632887 0.361432 -0.045511
C23   C     C_R   0.167880 0.137957 0.863703 -0.094955
C24   C     C_R   0.832129 0.638067 0.136307 -0.094752
C25   C     C_R   0.271531 0.339815 0.823073 0.072062
C26   C     C_R   0.728478 0.840046 0.176977 0.071658
C27   C     C_R   0.217831 0.295033 0.875331 -0.163101
C28   C     C_R   0.782196 0.795304 0.124724 -0.162256
C29   C     C_R   0.173830 0.018904 0.799821 -0.227203
C30   C     C_R   0.826156 0.518852 0.200146 -0.227026
C31   C     C_R   0.226855 0.059116 0.746557 0.131556
C32   C     C_R   0.773122 0.559036 0.253408 0.131140
C33   C     C_R   0.275883 0.220178 0.757196 0.105335
C34   C     C_R   0.724101 0.720232 0.242807 0.104437
C35   C     C_R   0.328489 0.255619 0.701917 -0.243544
C36   C     C_R   0.671486 0.755642 0.298084 -0.236865
C37   C     C_R   0.283578 0.976010 0.629161 -0.122129
C38   C     C_R   0.716377 0.475736 0.370767 -0.134043
C39   C     C_R   0.230992 0.939913 0.682131 -0.176189
C40   C     C_R   0.768967 0.439658 0.317793 -0.172977
H11   H     H_    0.367990 0.374150 0.708928 0.115437
H12   H     H_    0.631985 0.874274 0.291098 0.115595
H13   H     H_    0.285869 0.878706 0.580842 0.143622
H14   H     H_    0.714078 0.378308 0.419058 0.146889
H15   H     H_    0.194034 0.816778 0.673135 0.132344
H16   H     H_    0.805918 0.316411 0.326758 0.133880
H17   H     H_    0.213210 0.384105 0.925616 0.120344
H18   H     H_    0.786838 0.884515 0.074476 0.120821
H19   H     H_    0.135351 0.898268 0.789949 0.130158
H20   H     H_    0.864624 0.398090 0.209985 0.130578
O11   O     O_R   0.920630 0.775410 0.061150 -0.535396
O12   O     O_R   0.079370 0.275410 0.938850 -0.535548
O13   O     O_R   0.086500 0.441450 0.093690 -0.538149
O14   O     O_R   0.913500 0.941450 0.906310 -0.537103
C41   C     C_R   0.114347 0.610083 0.115617 0.691441
C42   C     C_R   0.885358 0.110136 0.884314 0.683528
O15   O     O_R   0.921670 0.445960 0.070740 -0.541545
O16   O     O_R   0.078330 0.945960 0.929260 -0.541960
O17   O     O_R   0.913380 0.271130 0.915780 -0.538660
O18   O     O_R   0.086620 0.771130 0.084220 -0.538047
C43   C     C_R   0.895440 0.615737 0.085755 0.698708
C44   C     C_R   0.104561 0.115700 0.914246 0.696760
O19   O     O_3   0.997500 0.603030 0.949220 -0.375564
O20   O     O_3   0.002500 0.103030 0.050780 -0.374434
V3    V     V_3+5 0.000470 0.329940 0.009420 1.398423
V4    V     V_3+5 0.999530 0.829940 0.990580 1.398761
F1    F     F_    0.775161 0.911301 0.594823 -0.664506
F2    F     F_    0.229909 0.322418 0.405324 -0.661067
C45   C     C_3   0.323421 0.513992 0.835683 -0.372317
C46   C     C_3   0.312346 0.638827 0.906689 -0.314044
C47   C     C_3   0.367652 0.806860 0.912713 -0.754782
H21   H     H_    0.431601 0.762555 0.925176 0.222566
H22   H     H_    0.356246 0.887324 0.855780 0.237019
H23   H     H_    0.356384 0.897517 0.962612 0.214131
H24   H     H_    0.249101 0.688129 0.898299 0.200195
H25   H     H_    0.326905 0.560531 0.964173 0.187972
H26   H     H_    0.387598 0.471282 0.844715 0.171959
H27   H     H_    0.309870 0.598557 0.779829 0.182976
C48   C     C_3   0.676582 0.014343 0.164404 -0.373094
C49   C     C_3   0.687749 0.139487 0.093509 -0.313237
C50   C     C_3   0.632414 0.307594 0.087500 -0.754529
H28   H     H_    0.568496 0.263425 0.074631 0.222153
H29   H     H_    0.643501 0.387440 0.144564 0.237039
H30   H     H_    0.643947 0.398800 0.037889 0.215092
H31   H     H_    0.750992 0.188659 0.102028 0.200358
H32   H     H_    0.673287 0.061485 0.035969 0.188593
H33   H     H_    0.612407 0.971774 0.155277 0.171705
H34   H     H_    0.690066 0.098649 0.220308 0.183444

loop_
_geom_bond_atom_site_label_1
_geom_bond_atom_site_label_2
_ccdc_geom_bond_type
C14   C16   A    
C48   C49   S    
C20   H10   S    
O1    C3    A    
O16   C44   A    
O2    C4    A    
C2    O7    A    
O15   V3    S    
C46   H25   S    
C25   C27   A    
O5    C3    A    
C17   H7    S    
C18   H8    S    
C7    C9    A    
O14   C42   A    
C23   C29   A    
C48   H33   S    
C24   C30   A    
C38   C40   A    
O6    V2    S    
C17   C19   S    
C14   C41   S    
C31   C39   A    
C13   C42   S    
C22   C36   A    
C15   C17   S    
C49   H32   S    
C45   H27   S    
O14   V4    S    
C18   C20   S    
C21   C37   A    
C26   C28   A    
C38   H14   S    
C47   H22   S    
C27   H17   S    
C11   C13   A    
C29   H19   S    
C30   C32   A    
C46   H24   S    
C35   H11   S    
C31   C33   A    
C36   H12   S    
C32   C34   A    
C3    C8    S    
C37   C39   A    
O4    C2    A    
C45   C46   S    
O20   V3    S    
C32   C40   A    
C48   H34   S    
C17   H5    S    
C29   C31   A    
C16   C18   S    
O4    V2    S    
O12   V3    S    
O11   V4    S    
C30   H20   S    
C39   H15   S    
C23   C27   A    
O6    C4    A    
C49   H31   S    
C50   H29   S    
O1    V2    S    
O2    V1    S    
O13   C41   A    
O17   V3    S    
C19   F1    S    
O13   V3    S    
C1    C22   S    
C8    C10   A    
C12   C14   A    
C47   H23   S    
C2    C21   S    
C33   C35   A    
C5    C15   A    
C10   H2    S    
C23   C44   S    
C6    C16   A    
O3    V1    S    
C25   C33   A    
O19   V4    S    
C20   F2    S    
C26   C34   A    
C9    C11   A    
C18   H6    S    
C25   C45   S    
O12   C44   A    
O3    C1    A    
C11   H3    S    
C47   H21   S    
C24   C28   A    
C12   H4    S    
C40   H16   S    
C9    H1    S    
C28   H18   S    
C1    O8    A    
O16   V4    S    
O8    V2    S    
C37   H13   S    
O15   C43   A    
C42   O17   A    
C41   O18   A    
C22   C38   A    
O18   V4    S    
C26   C48   S    
C4    C7    S    
O5    V1    S    
C46   C47   S    
C5    C7    A    
C34   C36   A    
C50   H30   S    
C6    C8    A    
O7    V1    S    
C49   C50   S    
C19   H9    S    
C21   C35   A    
C24   C43   S    
C13   C15   A    
C10   C12   A    
O9    V2    S    
C50   H28   S    
O10   V1    S    
C5    C19   S    
C45   H26   S    
C6    C20   S    
O11   C43   A    
