data_mof_unit_66076.cif
_audit_creation_date              2012-12-10T17:59:02-0500
_audit_creation_method            fapswitch 2.2
_symmetry_space_group_name_H-M    P1
_symmetry_Int_Tables_number       1
_space_group_crystal_system       triclinic
_cell_length_a                    18.727745
_cell_length_b                    18.680467
_cell_length_c                    18.849952
_cell_angle_alpha                 109.309222
_cell_angle_beta                  109.942327
_cell_angle_gamma                 109.039204
_cell_volume                      5083.90271342

loop_
_atom_site_label
_atom_site_type_symbol
_atom_type_description
_atom_site_fract_x
_atom_site_fract_y
_atom_site_fract_z
_atom_type_partial_charge
C1    C     C_R   0.619335 0.618831 0.500678 0.817783
C2    C     C_3   0.181327 0.420065 0.201836 0.291683
C3    C     C_3   0.221549 0.477425 0.300770 -0.201445
C4    C     C_3   0.312711 0.499395 0.312019 -0.089714
C5    C     C_R   0.669453 0.694265 0.427623 -0.011191
C6    C     C_R   0.686029 0.686238 0.501744 -0.044664
C7    C     C_R   0.763836 0.751225 0.580236 -0.187476
C8    C     C_R   0.828299 0.816411 0.580864 -0.201284
C9    C     C_R   0.813015 0.819936 0.504024 -0.066864
C10   C     C_R   0.730299 0.762513 0.429912 0.046433
C11   C     C_3   0.705410 0.709033 0.337463 -0.200635
C12   C     C_R   0.380565 0.499910 0.380471 0.821615
C13   C     C_3   0.641979 0.631405 0.336672 0.449524
C14   C     C_R   0.730288 0.454896 0.668053 0.085861
C15   C     C_R   0.687866 0.500975 0.688223 -0.101566
C16   C     C_R   0.718253 0.554728 0.776809 -0.208943
C17   C     C_R   0.782935 0.554140 0.841480 -0.212341
C18   C     C_R   0.819702 0.502238 0.818194 -0.073301
C19   C     C_R   0.799174 0.460212 0.731980 0.032653
C20   C     C_3   0.779500 0.370018 0.676104 -0.154879
C21   C     C_3   0.697981 0.360892 0.607651 -0.106848
C22   C     C_R   0.306071 0.232147 0.477101 0.000841
C23   C     C_R   0.380034 0.380908 0.498773 0.823119
C24   C     C_R   0.312807 0.314221 0.498622 -0.103240
C25   C     C_R   0.256995 0.333672 0.525750 -0.187921
C26   C     C_R   0.191496 0.269939 0.525199 0.227307
C27   C     C_R   0.185321 0.187465 0.502734 -0.095183
C28   C     C_R   0.245221 0.170938 0.482352 -0.004882
C29   C     C_3   0.225937 0.096285 0.403272 -0.495530
C30   C     C_3   0.290359 0.163270 0.394725 0.373402
C31   C     C_R   0.002700 0.619163 0.121331 0.792248
C32   C     C_R   0.123258 0.500152 0.123388 0.821478
C33   C     C_R   0.004400 0.381124 0.885521 0.804979
C34   C     C_R   0.618825 0.498887 0.619992 0.786328
C35   C     C_R   0.884650 0.499770 0.883960 0.787661
C36   C     C_R   0.999441 0.119098 0.617742 0.830785
C37   C     C_R   0.880978 0.882540 0.501194 0.774499
C38   C     C_R   0.998958 0.879070 0.382525 0.775965
C39   C     C_R   0.118586 0.119374 0.500716 0.836176
C40   C     C_R   0.992207 0.673512 0.253635 0.070202
C41   C     C_R   0.005703 0.687139 0.189907 -0.084523
C42   C     C_R   0.027027 0.769245 0.196192 -0.206272
C43   C     C_R   0.023622 0.831728 0.259054 -0.200610
C44   C     C_R   0.002127 0.813697 0.317966 -0.088054
C45   C     C_3   0.321615 0.579061 0.300994 0.143145
C46   C     C_R   0.993775 0.736807 0.319403 0.089226
C47   C     C_3   0.921322 0.667964 0.316976 -0.143645
C48   C     C_3   0.919261 0.599843 0.243164 -0.447049
C49   C     C_R   0.925605 0.237808 0.751563 -0.023468
C50   C     C_R   0.002815 0.315598 0.816214 -0.125043
C51   C     C_R   0.078406 0.333497 0.809372 -0.232501
C52   C     C_R   0.079489 0.270360 0.744278 0.063759
C53   C     C_R   0.002032 0.188795 0.683542 -0.116015
C54   C     C_R   0.926008 0.175238 0.687545 0.063889
C55   C     C_3   0.861049 0.101398 0.686617 0.263686
C56   C     C_3   0.230090 0.557765 0.289246 -0.220870
C57   C     C_3   0.859922 0.171799 0.757730 -0.133765
C58   C     C_3   0.190855 0.499919 0.190999 -0.100887
C59   C     C_3   0.282238 0.522299 0.202053 -0.193763
C60   C     C_3   0.272548 0.442006 0.213478 0.051608
Cu1   Cu    Cu3+1 0.500490 0.438210 0.438660 1.008671
Cu2   Cu    Cu3+1 0.499510 0.561790 0.561340 0.950154
Cu3   Cu    Cu3+1 0.942090 0.438240 0.003860 0.970368
Cu4   Cu    Cu3+1 0.065700 0.561800 0.003830 0.942827
Cu5   Cu    Cu3+1 0.937720 0.000020 0.437750 0.999470
Cu6   Cu    Cu3+1 0.062280 0.000080 0.562350 0.920806
H1    H     H_    0.211676 0.605574 0.318994 0.142126
H2    H     H_    0.760314 0.701607 0.332739 0.137384
H3    H     H_    0.689799 0.594245 0.796083 0.172756
H4    H     H_    0.802720 0.592356 0.909066 0.142640
H5    H     H_    0.768149 0.327474 0.704939 0.152660
H6    H     H_    0.698072 0.352061 0.546372 0.156787
H7    H     H_    0.261269 0.396906 0.543101 0.184212
H8    H     H_    0.247631 0.052494 0.420156 0.176627
H9    H     H_    0.156997 0.061953 0.349974 0.209196
H10   H     H_    0.041566 0.783316 0.149862 0.164231
H11   H     H_    0.036266 0.893351 0.260808 0.152729
H12   H     H_    0.860218 0.671843 0.295937 0.166129
H13   H     H_    0.939859 0.554799 0.258544 0.199445
H14   H     H_    0.306378 0.541098 0.161226 0.166097
H15   H     H_    0.858288 0.567209 0.179756 0.201758
H16   H     H_    0.138029 0.395253 0.857173 0.163871
H17   H     H_    0.888471 0.177941 0.822995 0.166389
H18   H     H_    0.197663 0.458767 0.341803 0.172795
H19   H     H_    0.776461 0.748875 0.639721 0.142065
H20   H     H_    0.890380 0.862394 0.640462 0.155200
O1    O     O_R   0.590590 0.537990 0.448210 -0.528176
O2    O     O_R   0.055390 0.642370 0.093330 -0.590567
O3    O     O_R   0.042570 0.447840 0.094710 -0.543875
O4    O     O_R   0.146960 0.552180 0.094690 -0.600442
O5    O     O_R   0.952400 0.357670 0.914360 -0.588134
O6    O     O_R   0.056780 0.462020 0.914330 -0.592680
O7    O     O_R   0.860840 0.447860 0.913000 -0.598115
O8    O     O_R   0.965220 0.552200 0.912980 -0.579563
O9    O     O_R   0.946640 0.090180 0.536890 -0.543623
O10   O     O_R   0.051820 0.090220 0.642110 -0.603320
O11   O     O_R   0.857230 0.909860 0.447430 -0.569802
O12   O     O_R   0.589760 0.642350 0.551800 -0.596970
O13   O     O_R   0.962420 0.909900 0.552660 -0.611689
O14   O     O_R   0.948170 0.909880 0.357990 -0.587716
O15   O     O_R   0.053360 0.909920 0.463210 -0.595922
O16   O     O_R   0.037580 0.090200 0.447440 -0.543397
O17   O     O_R   0.142770 0.090240 0.552670 -0.594268
O18   O     O_R   0.409550 0.447830 0.357350 -0.569109
O19   O     O_R   0.408710 0.552190 0.460940 -0.596721
O20   O     O_R   0.410240 0.357650 0.448200 -0.573614
O21   O     O_R   0.409410 0.462010 0.551790 -0.596738
O22   O     O_R   0.591290 0.447810 0.539060 -0.598249
O23   O     O_R   0.590450 0.552170 0.642650 -0.591973
O24   O     O_R   0.951010 0.538020 0.093350 -0.583778
Br1   Br    Br    0.517424 0.575484 0.255801 -0.606354
Br2   Br    Br    0.680257 0.545416 0.331156 -0.515284
C61   C     C_3   0.849960 0.372785 0.650862 -0.402663
C62   C     C_3   0.823019 0.282500 0.581235 -0.376734
C63   C     C_3   0.895919 0.284857 0.561288 -0.706883
H21   H     H_    0.909627 0.328987 0.534273 0.254625
H22   H     H_    0.956546 0.308072 0.621220 0.266498
H23   H     H_    0.875718 0.218227 0.512741 0.264855
H24   H     H_    0.807824 0.234882 0.603975 0.241166
H25   H     H_    0.763481 0.259609 0.520372 0.224090
H26   H     H_    0.863155 0.419652 0.626528 0.213170
H27   H     H_    0.911426 0.396199 0.710220 0.211175
C64   C     C_3   0.609459 0.294533 0.590449 -0.392987
C65   C     C_3   0.603267 0.301736 0.672067 -0.326195
C66   C     C_3   0.511100 0.240894 0.648060 -0.878474
H28   H     H_    0.464550 0.259466 0.615372 0.252834
H29   H     H_    0.490600 0.172144 0.604857 0.253653
H30   H     H_    0.509795 0.246257 0.708007 0.252690
H31   H     H_    0.647804 0.283950 0.708889 0.215283
H32   H     H_    0.621223 0.369106 0.715860 0.239373
H33   H     H_    0.557303 0.302936 0.550018 0.208785
H34   H     H_    0.596432 0.227653 0.551093 0.199600
C67   C     C_3   0.401967 0.670270 0.361702 -0.376187
C68   C     C_3   0.395111 0.732793 0.327190 -0.367075
C69   C     C_3   0.468715 0.826425 0.394026 -0.800538
H35   H     H_    0.462575 0.850359 0.452814 0.254702
H36   H     H_    0.533456 0.830278 0.413439 0.270690
H37   H     H_    0.464861 0.869442 0.365637 0.243585
H38   H     H_    0.398727 0.712236 0.266604 0.234331
H39   H     H_    0.331463 0.730930 0.311735 0.225024
H40   H     H_    0.407556 0.695386 0.426767 0.205646
H41   H     H_    0.461460 0.665861 0.368806 0.215115
Br3   Br    Br    0.108848 0.296814 0.549118 -0.580295
C70   C     C_3   0.372145 0.155076 0.405208 -0.413724
C71   C     C_3   0.351736 0.073380 0.328241 -0.315433
C72   C     C_3   0.433303 0.064671 0.344282 -0.861178
H42   H     H_    0.485508 0.122825 0.353404 0.256910
H43   H     H_    0.457809 0.058032 0.403059 0.252469
H44   H     H_    0.417191 0.005697 0.287516 0.248782
H45   H     H_    0.300486 0.013963 0.318378 0.221933
H46   H     H_    0.327370 0.077332 0.267821 0.255691
H47   H     H_    0.420578 0.213770 0.411415 0.217908
H48   H     H_    0.402095 0.152566 0.465588 0.189046
Br4   Br    Br    0.233188 0.173191 0.292922 -0.511289
C73   C     C_3   0.949276 0.656933 0.397893 -0.368149
C74   C     C_3   0.950746 0.723980 0.472431 -0.330042
C75   C     C_3   0.965192 0.704120 0.546804 -0.806591
H49   H     H_    0.910722 0.639674 0.524177 0.268577
H50   H     H_    0.027994 0.703858 0.572236 0.245810
H51   H     H_    0.967490 0.754995 0.600351 0.245984
H52   H     H_    0.004405 0.789669 0.497634 0.252106
H53   H     H_    0.887558 0.723310 0.448332 0.223747
H54   H     H_    0.901331 0.590466 0.379079 0.237977
H55   H     H_    0.014862 0.662021 0.420363 0.203224
C76   C     C_3   0.164754 0.291067 0.744512 -0.347706
C77   C     C_3   0.227122 0.284446 0.816551 -0.369881
C78   C     C_3   0.311911 0.301929 0.815042 -0.807496
H56   H     H_    0.298134 0.253241 0.751804 0.259862
H57   H     H_    0.345687 0.368565 0.825101 0.255384
H58   H     H_    0.355796 0.296899 0.867980 0.245661
H59   H     H_    0.242911 0.332649 0.881130 0.219511
H60   H     H_    0.195288 0.217915 0.807484 0.235832
H61   H     H_    0.153772 0.246304 0.681145 0.222123
H62   H     H_    0.195615 0.358120 0.754440 0.216118
Br5   Br    Br    0.756525 0.028444 0.571004 -0.618936
C79   C     C_3   0.895705 0.044663 0.714674 -0.407590
C80   C     C_3   0.979346 0.093527 0.804414 -0.381444
C81   C     C_3   0.019799 0.036016 0.814089 -0.819419
H63   H     H_    0.972287 0.975618 0.806366 0.251841
H64   H     H_    0.039740 0.018249 0.764578 0.259582
H65   H     H_    0.078656 0.072077 0.879712 0.251281
H66   H     H_    0.029159 0.153658 0.814214 0.232597
H67   H     H_    0.963506 0.112251 0.856998 0.231442
H68   H     H_    0.843019 0.994774 0.714396 0.216140
H69   H     H_    0.907604 0.008991 0.663899 0.214885
C82   C     C_3   0.774915 0.176533 0.733709 -0.353876
C83   C     C_3   0.708654 0.107551 0.739399 -0.317861
C84   C     C_3   0.624066 0.111534 0.714692 -0.844765
H70   H     H_    0.637064 0.175890 0.760775 0.252158
H71   H     H_    0.594588 0.101044 0.647528 0.262164
H72   H     H_    0.576706 0.059758 0.717559 0.246057
H73   H     H_    0.693252 0.041236 0.695137 0.257546
H74   H     H_    0.736944 0.118698 0.806905 0.215073
H75   H     H_    0.790887 0.242077 0.780599 0.203854
H76   H     H_    0.745431 0.169122 0.667970 0.225606
C85   C     C_3   0.294483 0.374332 0.168818 -0.309863
C86   C     C_3   0.248676 0.337292 0.070003 -0.367011
C87   C     C_3   0.264591 0.264259 0.025833 -0.811859
H77   H     H_    0.335418 0.289832 0.048694 0.269805
H78   H     H_    0.240699 0.210995 0.040203 0.266135
H79   H     H_    0.228616 0.236778 0.954370 0.230845
H80   H     H_    0.177151 0.310857 0.042378 0.248634
H81   H     H_    0.273744 0.389956 0.055206 0.220555
H82   H     H_    0.366185 0.405346 0.195556 0.250358
H83   H     H_    0.274113 0.320781 0.183728 0.236984
Br6   Br    Br    0.078747 0.304696 0.133633 -0.506248
C88   C     C_3   0.665952 0.740747 0.275747 -0.333223
C89   C     C_3   0.620464 0.791012 0.303291 -0.291810
C90   C     C_3   0.574976 0.810141 0.233596 -0.840866
H84   H     H_    0.623054 0.849725 0.221255 0.255027
H85   H     H_    0.523416 0.748212 0.172176 0.260482
H86   H     H_    0.543912 0.847280 0.255875 0.249084
H87   H     H_    0.571158 0.752965 0.315180 0.247592
H88   H     H_    0.669622 0.854031 0.364556 0.254458
H89   H     H_    0.720079 0.784760 0.272615 0.199793
H90   H     H_    0.620112 0.683777 0.208990 0.233971

loop_
_geom_bond_atom_site_label_1
_geom_bond_atom_site_label_2
_ccdc_geom_bond_type
C1    O1    A    
C69   H37   S    
C59   C60   S    
C77   H60   S    
C76   C77   S    
C67   C68   S    
C64   H34   S    
C41   C42   A    
C54   C55   S    
C19   C20   S    
C36   O9    A    
Cu4   O4    S    
C12   O19   A    
C37   O11   A    
C62   C63   S    
C49   C57   S    
C64   C65   S    
C78   H57   S    
Cu2   O19   S    
C53   C54   A    
C52   C53   A    
C40   C46   A    
Cu2   O23   S    
C60   C85   S    
C26   C27   A    
C89   H87   S    
C84   H72   S    
C5    C6    A    
C48   H13   S    
C28   C29   S    
C25   H7    S    
C12   O18   A    
C13   Br2   S    
C33   O5    A    
C17   H4    S    
C68   H39   S    
C20   C61   S    
C2    C60   S    
C45   C67   S    
C76   H61   S    
C15   C16   A    
C70   H48   S    
C90   H86   S    
C30   C70   S    
C48   H15   S    
C84   H71   S    
C18   C19   A    
C85   H83   S    
Cu1   O22   S    
C40   C48   S    
C36   C53   S    
Cu1   O1    S    
Cu2   O12   S    
C75   H49   S    
C32   O4    A    
C61   H27   S    
C47   C48   S    
C45   C56   S    
C27   C39   S    
C16   C17   A    
C63   H22   S    
C17   C18   A    
C66   H30   S    
C23   C24   S    
C57   H17   S    
C20   H5    S    
C87   H77   S    
C2    Br6   S    
C32   C58   S    
C85   H82   S    
C22   C30   S    
C18   C35   S    
C15   C34   S    
C5    C13   S    
C71   H45   S    
C74   H53   S    
C77   H59   S    
C75   H50   S    
C49   C54   A    
C22   C28   A    
C83   H74   S    
Cu6   O15   S    
Cu3   O3    S    
C61   C62   S    
Cu1   Cu2   S    
C11   C88   S    
Cu5   O16   S    
C14   C19   A    
C88   H89   S    
C44   C46   A    
C81   H63   S    
C78   H58   S    
C72   H43   S    
C4    C45   S    
C35   O7    A    
C73   C74   S    
C21   H6    S    
C88   C89   S    
C82   H76   S    
C69   H35   S    
Cu1   O18   S    
C24   C25   A    
C79   H69   S    
C33   O6    A    
C68   H38   S    
C79   H68   S    
C89   C90   S    
C29   H8    S    
C73   H54   S    
C76   H62   S    
C80   H67   S    
C23   O20   A    
C3    C4    S    
C51   C52   A    
C84   H70   S    
C74   C75   S    
Cu6   O13   S    
C21   C64   S    
C43   C44   A    
C43   H11   S    
C38   C44   S    
C29   C30   S    
C52   C76   S    
C72   H44   S    
C3    C56   S    
C36   O10   A    
C32   O3    A    
C30   Br4   S    
C63   H23   S    
C23   O21   A    
C4    C60   S    
C87   H79   S    
C9    C37   S    
C90   H84   S    
C8    C9    A    
C65   H32   S    
C86   H80   S    
C50   C51   A    
Cu1   O20   S    
C51   H16   S    
C55   Br5   S    
C83   H73   S    
C71   H46   S    
C29   H9    S    
C38   O14   A    
C79   C80   S    
C74   H52   S    
C49   C50   A    
C75   H51   S    
C55   C57   S    
C66   H28   S    
C22   C24   A    
C58   C59   S    
C57   C82   S    
C42   C43   A    
Cu4   O6    S    
C26   Br3   S    
C71   C72   S    
C78   H56   S    
C11   H2    S    
C14   C21   S    
C39   O16   A    
Cu6   O10   S    
C72   H42   S    
C9    C10   A    
C35   O8    A    
C69   H36   S    
Cu3   O7    S    
C46   C47   S    
C45   C59   S    
C89   H88   S    
C31   O2    A    
C31   C41   S    
C64   H33   S    
C67   H40   S    
Cu6   O17   S    
C82   H75   S    
C16   H3    S    
C62   H24   S    
Cu5   O14   S    
C85   C86   S    
C59   H14   S    
C81   H64   S    
C2    C58   S    
C39   O17   A    
C6    C7    A    
Cu2   O21   S    
C73   H55   S    
C38   O15   A    
C56   H1    S    
C1    C6    S    
C68   C69   S    
C42   H10   S    
C70   C71   S    
C34   O22   A    
Cu3   O24   S    
C87   H78   S    
C2    C3    S    
C25   C26   A    
C1    O12   A    
Cu5   O11   S    
C5    C10   A    
C70   H47   S    
C11   C13   S    
C37   O13   A    
C63   H21   S    
C7    H19   S    
C77   C78   S    
C47   C73   S    
C88   H90   S    
C90   H85   S    
C31   O24   A    
C56   C58   S    
C65   H31   S    
C86   H81   S    
C8    H20   S    
Cu5   Cu6   S    
C86   C87   S    
C67   H41   S    
C55   C79   S    
C81   H65   S    
C7    C8    A    
C10   C11   S    
Cu4   O8    S    
Cu3   Cu4   S    
Cu5   O9    S    
C61   H26   S    
C20   C21   S    
C83   C84   S    
C13   Br1   S    
C80   C81   S    
Cu3   O5    S    
C3    H18   S    
C66   H29   S    
C34   O23   A    
C14   C15   A    
C40   C41   A    
C47   H12   S    
C82   C83   S    
C4    C12   S    
C33   C50   S    
Cu4   O2    S    
C62   H25   S    
C80   H66   S    
C65   C66   S    
C27   C28   A    
