data_mof_unit_32407.cif
_audit_creation_date              2012-12-10T17:29:22-0500
_audit_creation_method            fapswitch 2.2
_symmetry_space_group_name_H-M    P1
_symmetry_Int_Tables_number       1
_space_group_crystal_system       triclinic
_cell_length_a                    11.995797
_cell_length_b                    12.878313
_cell_length_c                    13.099882
_cell_angle_alpha                 87.106389
_cell_angle_beta                  113.736784
_cell_angle_gamma                 94.48674
_cell_volume                      1846.46645771

loop_
_atom_site_label
_atom_site_type_symbol
_atom_type_description
_atom_site_fract_x
_atom_site_fract_y
_atom_site_fract_z
_atom_type_partial_charge
C1    C     C_R   0.475569 0.299339 0.496385 0.963651
C2    C     C_R   0.614135 0.505838 0.831033 -0.223252
C3    C     C_R   0.539997 0.812722 0.499566 -0.158376
C4    C     C_R   0.567902 0.499961 0.709199 0.934289
C5    C     C_R   0.457755 0.187422 0.491444 -0.231082
C6    C     C_R   0.380370 0.025489 0.546373 -0.303283
C7    C     C_R   0.380446 0.133768 0.536499 0.406926
C8    C     C_R   0.527447 0.133593 0.449389 0.350062
C9    C     C_R   0.531818 0.026590 0.465560 -0.021769
C10   C     C_R   0.458153 0.972854 0.514536 0.070714
C11   C     C_R   0.463152 0.866637 0.531397 -0.269943
C12   C     C_R   0.561338 0.521957 0.989080 0.027738
C13   C     C_R   0.618536 0.866509 0.455400 0.403396
C14   C     C_R   0.611352 0.972880 0.436235 -0.154211
C15   C     C_R   0.008617 0.598475 0.395176 -0.262157
C16   C     C_R   0.524104 0.700773 0.501658 0.885675
C17   C     C_R   0.128916 0.589088 0.405763 0.023873
C18   C     C_R   0.158350 0.457616 0.545677 0.017906
C19   C     C_R   0.037791 0.464269 0.537772 0.038306
C20   C     C_R   0.962039 0.535788 0.461675 0.083858
C21   C     C_R   0.841657 0.542523 0.454249 -0.162364
C22   C     C_R   0.870318 0.409751 0.593594 0.666816
C23   C     C_R   0.542659 0.549722 0.878931 0.005146
C24   C     C_R   0.991370 0.401066 0.603737 -0.432788
C25   C     C_R   0.433194 0.505684 0.291110 0.883999
C26   C     C_R   0.280698 0.620438 0.002591 0.439765
C27   C     C_R   0.394786 0.524462 0.172017 -0.147434
C28   C     C_R   0.721107 0.456253 0.899727 0.333951
C29   C     C_R   0.754809 0.451228 0.016327 0.384782
C30   C     C_R   0.672477 0.479069 0.058844 -0.265869
C31   C     C_3   0.534308 0.201737 0.288021 0.077478
C32   C     C_3   0.622121 0.236160 0.233611 -0.763706
C33   C     C_R   0.469168 0.539952 0.026108 0.097114
C34   C     C_R   0.370406 0.601675 0.961294 0.040171
C35   C     C_R   0.367856 0.645788 0.860426 -0.235261
C36   C     C_R   0.451931 0.619355 0.819378 -0.139356
C37   C     C_R   0.472464 0.495547 0.125808 -0.280477
C38   C     C_R   0.297305 0.585249 0.110210 -0.184298
H1    H     H_    0.235470 0.607027 0.145990 0.177252
H2    H     H_    0.539211 0.440921 0.172243 0.162671
H3    H     H_    0.700753 0.471465 0.148120 0.180259
H4    H     H_    0.446346 0.655472 0.741207 0.155135
H5    H     H_    0.405044 0.825343 0.567764 0.167698
H6    H     H_    0.749949 0.777327 0.490908 0.345428
H7    H     H_    0.263071 0.138595 0.604371 0.331661
H8    H     H_    0.469441 0.263583 0.273507 0.129225
H9    H     H_    0.482620 0.128780 0.247259 0.137793
H10   H     H_    0.684247 0.173454 0.242924 0.258115
H11   H     H_    0.570313 0.252938 0.143404 0.204234
H12   H     H_    0.323169 0.982777 0.582653 0.147387
H13   H     H_    0.677636 0.307388 0.273923 0.260397
H14   H     H_    0.885324 0.300892 0.705691 0.316580
H15   H     H_    0.153924 0.663665 0.863006 0.329000
H16   H     H_    0.831899 0.353438 0.900299 0.339390
H17   H     H_    0.925872 0.429844 0.057237 0.342050
H18   H     H_    0.669795 0.013115 0.399859 0.204444
H19   H     H_    0.782512 0.597451 0.396174 0.174680
H20   H     H_    0.952616 0.654158 0.335440 0.159512
H21   H     H_    0.048560 0.345336 0.662507 0.153020
H22   H     H_    0.164099 0.637410 0.354072 0.136151
H23   H     H_    0.301471 0.700394 0.811783 0.151307
H24   H     H_    0.217497 0.402742 0.603849 0.161324
N1    N     N_R   0.798200 0.480260 0.519790 -0.114835
N2    N     N_R   0.201820 0.519740 0.480210 -0.108267
O1    O     O_R   0.579910 0.341070 0.505280 -0.527443
O2    O     O_3   0.310940 0.188397 0.575053 -0.750938
O3    O     O_3   0.602031 0.186374 0.403442 -0.582339
O4    O     O_3   0.822647 0.347823 0.657025 -0.684019
O5    O     O_3   0.179077 0.675227 0.943502 -0.762999
O6    O     O_3   0.787784 0.410871 0.851126 -0.719052
O7    O     O_3   0.865240 0.417376 0.090846 -0.763600
O8    O     O_R   0.388440 0.353740 0.492580 -0.574420
O9    O     O_R   0.643280 0.490550 0.663120 -0.518089
O10   O     O_R   0.451810 0.503220 0.650420 -0.639368
O11   O     O_R   0.611560 0.646260 0.507420 -0.623363
O12   O     O_R   0.420090 0.658930 0.494720 -0.639197
O13   O     O_R   0.548190 0.496780 0.349580 -0.618035
O14   O     O_R   0.356720 0.509450 0.336880 -0.625067
O15   O     O_3   0.697880 0.817597 0.424698 -0.766212
Zn1   Zn    Zn3+2 0.627850 0.491540 0.508480 1.031410
Zn2   Zn    Zn3+2 0.372150 0.508460 0.491520 0.961129

loop_
_geom_bond_atom_site_label_1
_geom_bond_atom_site_label_2
_ccdc_geom_bond_type
C14   H18   S    
C13   O15   S    
C16   O11   A    
C36   H4    S    
C35   C36   A    
H15   O5    S    
C31   O3    S    
C12   C23   A    
C25   O13   A    
C28   C29   A    
C34   C35   A    
C37   H2    S    
C17   N2    A    
C38   H1    S    
C27   C38   A    
C18   C19   A    
C22   N1    A    
C26   C34   A    
C19   C20   A    
C8    C9    A    
C31   H8    S    
C1    O1    A    
C30   H3    S    
C11   H5    S    
C9    C10   A    
C4    O10   A    
O8    Zn2   S    
C3    C13   A    
O1    Zn1   S    
C31   H9    S    
C13   C14   A    
C32   H10   S    
N1    Zn1   S    
C15   C20   A    
C32   H11   S    
C28   O6    S    
C1    O8    A    
C25   O14   A    
C5    C7    A    
C26   C38   A    
C33   C37   A    
C2    C4    S    
C9    C14   A    
C32   H13   S    
C21   H19   S    
C29   C30   A    
C31   C32   S    
H16   O6    S    
C2    C23   A    
C33   C34   A    
C35   H23   S    
C6    H12   S    
C22   O4    S    
C4    O9    A    
C15   H20   S    
C22   C24   A    
O10   Zn2   S    
C1    C5    S    
O11   Zn1   S    
O13   Zn1   S    
C15   C17   A    
C12   C30   A    
C16   O12   A    
H6    O15   S    
C18   H24   S    
H14   O4    S    
O12   Zn2   S    
C6    C10   A    
C5    C8    A    
C6    C7    A    
C25   C27   S    
C19   C24   A    
C7    O2    S    
O14   Zn2   S    
C18   N2    A    
C27   C37   A    
C24   H21   S    
O9    Zn1   S    
N2    Zn2   S    
C21   N1    A    
C3    C11   A    
C10   C11   A    
C17   H22   S    
C20   C21   A    
C8    O3    S    
C23   C36   A    
H7    O2    S    
C26   O5    S    
C2    C28   A    
C12   C33   A    
H17   O7    S    
C3    C16   S    
C29   O7    S    
