data_mof_unit_29311.cif
_audit_creation_date              2012-12-11T14:28:20-0500
_audit_creation_method            fapswitch 2.2
_symmetry_space_group_name_H-M    P1
_symmetry_Int_Tables_number       1
_space_group_crystal_system       triclinic
_cell_length_a                    10.944058
_cell_length_b                    19.601254
_cell_length_c                    18.589789
_cell_angle_alpha                 89.983326
_cell_angle_beta                  89.541611
_cell_angle_gamma                 90.095183
_cell_volume                      3987.69730252

loop_
_atom_site_label
_atom_site_type_symbol
_atom_type_description
_atom_site_fract_x
_atom_site_fract_y
_atom_site_fract_z
_atom_type_partial_charge
C1    C     C_R   0.316258 0.935576 0.637444 0.535115
C2    C     C_3   0.152431 0.698119 0.018918 -0.091979
C3    C     C_3   0.101012 0.196315 0.971929 -0.144425
C4    C     C_3   0.508994 0.291509 0.476123 -0.125442
C5    C     C_3   0.510657 0.292354 0.024931 -0.126041
C6    C     C_3   0.599397 0.694571 0.528729 -0.143579
C7    C     C_3   0.503517 0.706968 0.978267 -0.119998
C8    C     C_3   0.137762 0.780673 0.506637 -0.159495
C9    C     C_3   0.181658 0.765993 0.981467 -0.153427
C10   C     C_3   0.185032 0.237601 0.480487 -0.156294
C11   C     C_3   0.183712 0.241065 0.019365 -0.159042
C12   C     C_3   0.637691 0.280624 0.506670 -0.159175
C13   C     C_3   0.148779 0.304086 0.518466 -0.087302
C14   C     C_3   0.638154 0.280144 0.992363 -0.159418
C15   C     C_3   0.685013 0.737555 0.480502 -0.155718
C16   C     C_3   0.633938 0.715371 0.007441 -0.159491
C17   C     C_3   0.079686 0.748075 0.573821 0.051911
C18   C     C_3   0.081425 0.751202 0.926761 0.052973
C19   C     C_3   0.081647 0.248184 0.426870 0.050870
C20   C     C_3   0.079645 0.250107 0.073865 0.050430
C21   C     C_3   0.579604 0.248043 0.573858 0.052944
C22   C     C_3   0.577726 0.249116 0.925781 0.053329
C23   C     C_3   0.581683 0.748190 0.426875 0.052253
C24   C     C_3   0.144440 0.306539 0.980992 -0.085958
C25   C     C_3   0.580827 0.751769 0.073799 0.051008
C26   C     C_3   0.951319 0.758826 0.544471 -0.180970
C27   C     C_3   0.988047 0.790545 0.973021 -0.153290
C28   C     C_3   0.994939 0.204936 0.474267 -0.153590
C29   C     C_3   0.995520 0.205437 0.026995 -0.153787
C30   C     C_3   0.451242 0.258790 0.544499 -0.181087
C31   C     C_3   0.450553 0.261510 0.956943 -0.184101
C32   C     C_3   0.494904 0.704991 0.474252 -0.153559
C33   C     C_3   0.451030 0.743437 0.045969 -0.182251
C34   C     C_3   0.957944 0.687623 0.507682 -0.164006
C35   C     C_3   0.646414 0.209516 0.471964 -0.078040
C36   C     C_3   0.956786 0.722719 0.011962 -0.115850
C37   C     C_3   0.956713 0.271602 0.513468 -0.116949
C38   C     C_3   0.954508 0.271220 0.987525 -0.119064
C39   C     C_3   0.457865 0.187577 0.507724 -0.164037
C40   C     C_3   0.454188 0.189775 0.992652 -0.162265
C41   C     C_3   0.456767 0.771662 0.513459 -0.117375
C42   C     C_3   0.463077 0.813242 0.006719 -0.162082
C43   C     C_3   0.084919 0.678273 0.539107 0.306384
C44   C     C_3   0.050614 0.685308 0.964350 0.291769
C45   C     C_3   0.044444 0.312811 0.464953 0.291567
C46   C     C_3   0.644431 0.208381 0.025869 -0.079600
C47   C     C_3   0.039751 0.314093 0.035285 0.291862
C48   C     C_3   0.584834 0.178230 0.539167 0.307627
C49   C     C_3   0.579849 0.178916 0.959179 0.310784
C50   C     C_3   0.544568 0.812822 0.464963 0.292274
C51   C     C_3   0.591590 0.820323 0.036501 0.307243
C52   C     C_3   0.036696 0.602022 0.631000 -0.065633
C53   C     C_3   0.923688 0.628864 0.885249 -0.102963
C54   C     C_3   0.913876 0.366364 0.385716 -0.093205
C55   C     C_3   0.907176 0.367445 0.114506 -0.097513
C56   C     C_3   0.536654 0.102039 0.631153 -0.070351
C57   C     C_3   0.648848 0.804044 0.518487 -0.087537
C58   C     C_3   0.524858 0.106207 0.865515 -0.070187
C59   C     C_3   0.414232 0.866457 0.385667 -0.098056
C60   C     C_3   0.554789 0.900915 0.125931 -0.060988
C61   C     C_3   0.648037 0.785262 0.970091 -0.076834
C62   C     C_3   0.018313 0.721329 0.440627 -0.004128
C63   C     C_3   0.060212 0.737689 0.065765 0.010788
C64   C     C_3   0.063137 0.260810 0.566314 0.015193
C65   C     C_R   0.315949 0.937356 0.862841 0.521745
C66   C     C_3   0.061514 0.261528 0.934054 0.015226
C67   C     C_3   0.518251 0.221277 0.440656 -0.005597
C68   C     C_3   0.517425 0.221448 0.059334 -0.005727
C69   C     C_3   0.563133 0.760816 0.566316 0.013314
C70   C     C_3   0.518308 0.776274 0.940370 0.003069
C71   C     C_R   0.321875 0.037189 0.437691 -0.059822
C72   C     C_R   0.323639 0.041616 0.061425 -0.056994
C73   C     C_R   0.322906 0.955506 0.561324 -0.056706
C74   C     C_R   0.323004 0.961015 0.937354 -0.056292
C75   C     C_R   0.821860 0.537179 0.437689 -0.059913
C76   C     C_R   0.315887 0.061918 0.363123 0.518785
C77   C     C_R   0.821996 0.540969 0.061301 -0.062312
C78   C     C_R   0.822889 0.455484 0.561316 -0.056450
C79   C     C_R   0.822103 0.458560 0.938078 -0.055965
C80   C     C_R   0.547600 0.043007 0.443119 -0.047529
C81   C     C_R   0.549791 0.047253 0.053553 -0.087062
C82   C     C_R   0.549852 0.953574 0.555083 -0.061955
C83   C     C_R   0.551139 0.957934 0.941485 -0.070444
C84   C     C_R   0.047574 0.542996 0.443116 -0.045637
C85   C     C_R   0.047592 0.546522 0.053588 -0.027135
C86   C     C_R   0.049824 0.453530 0.555052 -0.062629
C87   C     C_R   0.316676 0.063290 0.137144 0.524721
C88   C     C_R   0.049433 0.457861 0.940953 -0.032032
C89   C     C_R   0.657184 0.024748 0.472828 -0.034074
C90   C     C_R   0.659413 0.029041 0.022138 -0.024734
C91   C     C_R   0.658788 0.979724 0.529292 -0.060925
C92   C     C_R   0.660413 0.984204 0.965434 -0.013665
C93   C     C_R   0.157160 0.524720 0.472810 -0.032714
C94   C     C_R   0.156918 0.528940 0.021356 -0.053144
C95   C     C_R   0.158763 0.479679 0.529261 -0.061426
C96   C     C_R   0.158230 0.484764 0.964448 -0.068293
C97   C     C_R   0.435329 0.974617 0.528669 0.028531
C98   C     C_R   0.816255 0.435570 0.637443 0.532900
C99   C     C_R   0.436420 0.980193 0.968414 -0.011987
C100  C     C_R   0.434611 0.017734 0.468431 0.021583
C101  C     C_R   0.436268 0.023254 0.028649 -0.014030
C102  C     C_R   0.935305 0.474583 0.528648 0.028056
C103  C     C_R   0.934823 0.478875 0.968699 0.057312
C104  C     C_R   0.934589 0.517711 0.468419 0.021268
C105  C     C_R   0.934408 0.521875 0.029068 0.050879
C106  C     C_R   0.211858 0.970657 0.526569 0.007509
C107  C     C_R   0.212186 0.976860 0.972931 0.012582
C108  C     C_R   0.211134 0.019875 0.472690 0.006244
C109  C     C_R   0.815663 0.436457 0.862770 0.527740
C110  C     C_R   0.212776 0.025711 0.026933 0.008363
C111  C     C_R   0.711841 0.470643 0.526565 0.007846
C112  C     C_R   0.711121 0.474013 0.973776 0.007664
C113  C     C_R   0.711119 0.519862 0.472686 0.006547
C114  C     C_R   0.710776 0.523744 0.027273 0.004616
C115  C     C_R   0.099920 0.938689 0.545007 -0.088896
C116  C     C_R   0.099489 0.945184 0.956197 -0.093898
C117  C     C_R   0.097271 0.046243 0.451055 -0.083450
C118  C     C_R   0.099758 0.052393 0.050280 -0.087306
C119  C     C_R   0.599903 0.438678 0.545008 -0.088824
C120  C     C_R   0.815884 0.561916 0.363124 0.515791
C121  C     C_R   0.599070 0.441602 0.956986 -0.088645
C122  C     C_R   0.597258 0.546234 0.451054 -0.083365
C123  C     C_R   0.596770 0.550177 0.050043 -0.084886
C124  C     C_R   0.991921 0.956351 0.511771 -0.125230
C125  C     C_R   0.992192 0.963046 0.991880 -0.122851
C126  C     C_R   0.990842 0.010807 0.464846 -0.108196
C127  C     C_R   0.992639 0.017532 0.038587 -0.107671
C128  C     C_R   0.491908 0.456337 0.511768 -0.125002
C129  C     C_R   0.491010 0.459722 0.991282 -0.129650
C130  C     C_R   0.490829 0.510797 0.464846 -0.107860
C131  C     C_R   0.816283 0.563220 0.137006 0.527416
C132  C     C_R   0.490339 0.514547 0.037824 -0.115918
C133  C     C_R   0.133825 0.758489 0.644144 0.522167
C134  C     C_R   0.127969 0.757286 0.853573 0.524110
C135  C     C_R   0.127738 0.242646 0.353528 0.528351
C136  C     C_R   0.127176 0.243094 0.146870 0.524280
C137  C     C_R   0.633795 0.258480 0.644163 0.519953
C138  C     C_R   0.633136 0.258648 0.855626 0.522722
C139  C     C_R   0.627751 0.742645 0.353531 0.524382
C140  C     C_R   0.634067 0.741483 0.144133 0.523798
C141  C     C_R   0.539222 0.771706 0.643033 0.542834
C142  C     C_3   0.146481 0.709573 0.471915 -0.077941
C143  C     C_R   0.495245 0.787788 0.862748 0.530150
C144  C     C_R   0.494794 0.211618 0.362633 0.529172
C145  C     C_R   0.494652 0.211448 0.137594 0.531351
C146  C     C_R   0.039226 0.271704 0.643033 0.535209
C147  C     C_R   0.038365 0.271890 0.857172 0.535063
C148  C     C_R   0.994813 0.711630 0.362631 0.525511
C149  C     C_R   0.037769 0.727701 0.142609 0.540393
C150  C     C_3   0.009057 0.791558 0.476098 -0.125228
C151  C     C_3   0.089428 0.805048 0.028747 -0.143084
C152  C     C_3   0.099490 0.194569 0.528733 -0.143467
Cr1   Cr    Cr6+3 0.488160 0.884660 0.750000 0.958048
Cr2   Cr    Cr6+3 0.333410 0.272740 0.250000 1.032776
Cr3   Cr    Cr6+3 0.833410 0.227260 0.750000 1.044396
Cr4   Cr    Cr6+3 0.833410 0.772740 0.250000 1.034836
Cr5   Cr    Cr6+3 0.488160 0.115340 0.250000 0.969700
Cr6   Cr    Cr6+3 0.988160 0.384660 0.750000 0.971723
Cr7   Cr    Cr6+3 0.988160 0.615340 0.250000 0.989112
Cr8   Cr    Cr6+3 0.173480 0.883120 0.750000 0.985478
Cr9   Cr    Cr6+3 0.173480 0.116880 0.250000 0.976867
Cr10  Cr    Cr6+3 0.673480 0.383120 0.750000 0.989327
Cr11  Cr    Cr6+3 0.673480 0.616880 0.250000 0.981121
Cr12  Cr    Cr6+3 0.333410 0.727260 0.750000 1.040858
H1    H     H_    0.202864 0.823262 0.503376 0.087261
H2    H     H_    0.910201 0.933770 0.984820 0.118313
H3    H     H_    0.911298 0.023518 0.434968 0.101925
H4    H     H_    0.913781 0.030720 0.069989 0.104448
H5    H     H_    0.411146 0.426203 0.521335 0.095553
H6    H     H_    0.409427 0.430024 0.982770 0.098764
H7    H     H_    0.411283 0.523514 0.434973 0.102605
H8    H     H_    0.411050 0.527473 0.068805 0.106712
H9    H     H_    0.975829 0.836885 0.446697 0.153751
H10   H     H_    0.108992 0.851941 0.059965 0.144541
H11   H     H_    0.125599 0.147104 0.557258 0.136354
H12   H     H_    0.267102 0.784191 0.958006 0.114167
H13   H     H_    0.129907 0.149312 0.943299 0.135720
H14   H     H_    0.475784 0.336843 0.446723 0.153964
H15   H     H_    0.480416 0.338181 0.054902 0.154557
H16   H     H_    0.625389 0.647101 0.557254 0.136976
H17   H     H_    0.465854 0.659803 0.953842 0.150295
H18   H     H_    0.876213 0.778949 0.578511 0.118318
H19   H     H_    0.922065 0.826261 0.949233 0.102765
H20   H     H_    0.931064 0.165483 0.454310 0.108694
H21   H     H_    0.931923 0.165803 0.047443 0.106816
H22   H     H_    0.376109 0.278930 0.578514 0.117675
H23   H     H_    0.272189 0.225059 0.455380 0.121883
H24   H     H_    0.376399 0.283508 0.924188 0.117658
H25   H     H_    0.431022 0.665559 0.454273 0.108660
H26   H     H_    0.375588 0.727457 0.082199 0.118000
H27   H     H_    0.884993 0.648650 0.509787 0.085319
H28   H     H_    0.870091 0.703427 0.033471 0.091909
H29   H     H_    0.868847 0.285868 0.537274 0.100808
H30   H     H_    0.866920 0.282981 0.963146 0.102787
H31   H     H_    0.384878 0.148623 0.509851 0.085418
H32   H     H_    0.378966 0.152312 0.990564 0.091335
H33   H     H_    0.368944 0.785949 0.537248 0.100586
H34   H     H_    0.271497 0.231797 0.044201 0.127516
H35   H     H_    0.392822 0.853371 0.009456 0.090753
H36   H     H_    0.225867 0.688476 0.442168 0.113672
H37   H     H_    0.223032 0.663259 0.039166 0.099353
H38   H     H_    0.215041 0.343011 0.536632 0.100351
H39   H     H_    0.209305 0.346238 0.962275 0.100727
H40   H     H_    0.725841 0.188415 0.442249 0.113838
H41   H     H_    0.723553 0.185784 0.053870 0.111883
H42   H     H_    0.715108 0.842962 0.536669 0.100321
H43   H     H_    0.726703 0.803349 0.937749 0.116871
H44   H     H_    0.736883 0.052748 0.457107 0.096717
H45   H     H_    0.702744 0.323230 0.503409 0.087276
H46   H     H_    0.740481 0.055256 0.037993 0.093177
H47   H     H_    0.742190 0.968326 0.556867 0.095747
H48   H     H_    0.744106 0.971052 0.938018 0.097595
H49   H     H_    0.236857 0.552727 0.457101 0.096910
H50   H     H_    0.238820 0.553072 0.038348 0.077001
H51   H     H_    0.242162 0.468278 0.556838 0.096005
H52   H     H_    0.242426 0.471758 0.937378 0.088845
H53   H     H_    0.554280 0.083244 0.406239 0.158858
H54   H     H_    0.557088 0.084646 0.093267 0.164065
H55   H     H_    0.558897 0.916335 0.594960 0.171623
H56   H     H_    0.702521 0.323146 0.994517 0.086087
H57   H     H_    0.560911 0.919383 0.902841 0.167948
H58   H     H_    0.054244 0.583259 0.406267 0.158892
H59   H     H_    0.053948 0.585478 0.091981 0.163554
H60   H     H_    0.058856 0.416286 0.594928 0.171954
H61   H     H_    0.059196 0.418764 0.902932 0.168639
H62   H     H_    0.090544 0.090732 0.417600 0.158932
H63   H     H_    0.094823 0.096224 0.084383 0.163684
H64   H     H_    0.095508 0.897065 0.581860 0.164380
H65   H     H_    0.094950 0.902843 0.919924 0.163282
H66   H     H_    0.590530 0.590725 0.417603 0.158981
H67   H     H_    0.772128 0.724969 0.455410 0.122222
H68   H     H_    0.589577 0.594555 0.083668 0.159607
H69   H     H_    0.595483 0.397058 0.581866 0.164342
H70   H     H_    0.594630 0.399473 0.920480 0.161080
H71   H     H_    0.949682 0.585083 0.606970 0.115514
H72   H     H_    0.015755 0.643991 0.669064 0.116947
H73   H     H_    0.073649 0.559202 0.663120 0.157810
H74   H     H_    0.919203 0.675399 0.851184 0.104394
H75   H     H_    0.843280 0.626390 0.921891 0.111608
H76   H     H_    0.918849 0.584372 0.848605 0.173279
H77   H     H_    0.832520 0.368665 0.421367 0.115104
H78   H     H_    0.695720 0.671143 0.005365 0.086978
H79   H     H_    0.912307 0.318930 0.352946 0.103633
H80   H     H_    0.908210 0.409902 0.347800 0.176786
H81   H     H_    0.909494 0.321145 0.149047 0.107743
H82   H     H_    0.825209 0.366872 0.080018 0.114828
H83   H     H_    0.899072 0.412055 0.150859 0.176928
H84   H     H_    0.449626 0.085059 0.607168 0.117961
H85   H     H_    0.515732 0.144044 0.669172 0.109257
H86   H     H_    0.573659 0.059273 0.663335 0.150217
H87   H     H_    0.507871 0.149211 0.828245 0.105391
H88   H     H_    0.436392 0.091298 0.890099 0.121917
H89   H     H_    0.911155 0.926220 0.521337 0.095505
H90   H     H_    0.557862 0.062926 0.832306 0.152168
H91   H     H_    0.332794 0.868866 0.421242 0.117272
H92   H     H_    0.412578 0.819004 0.352947 0.101717
H93   H     H_    0.408822 0.909959 0.347704 0.174066
H94   H     H_    0.535367 0.861575 0.167154 0.122241
H95   H     H_    0.465561 0.916250 0.104030 0.120066
H96   H     H_    0.595253 0.945172 0.154270 0.152188
O1    O     O_R   0.575450 0.828820 0.667950 -0.558096
O2    O     O_R   0.416860 0.942890 0.825320 -0.534268
O3    O     O_R   0.416860 0.057110 0.325320 -0.517351
O4    O     O_R   0.416860 0.057110 0.174680 -0.529440
O5    O     O_R   0.916860 0.442890 0.674680 -0.526049
O6    O     O_R   0.916860 0.442890 0.825320 -0.516967
O7    O     O_R   0.916860 0.557110 0.325320 -0.514326
O8    O     O_R   0.916860 0.557110 0.174680 -0.506483
O9    O     O_R   0.213790 0.953680 0.668330 -0.501845
O10   O     O_R   0.213790 0.953680 0.831670 -0.500639
O11   O     O_R   0.213790 0.046320 0.331670 -0.503644
O12   O     O_R   0.575450 0.828820 0.832050 -0.549894
O13   O     O_R   0.213790 0.046320 0.168330 -0.500871
O14   O     O_R   0.713790 0.453680 0.668330 -0.502773
O15   O     O_R   0.713790 0.453680 0.831670 -0.504577
O16   O     O_R   0.713790 0.546320 0.331670 -0.505296
O17   O     O_R   0.713790 0.546320 0.168330 -0.506733
O18   O     O_R   0.121360 0.817890 0.672660 -0.553231
O19   O     O_R   0.121360 0.817890 0.827340 -0.553132
O20   O     O_R   0.121360 0.182110 0.327340 -0.550784
O21   O     O_R   0.121360 0.182110 0.172660 -0.553058
O22   O     O_R   0.621360 0.317890 0.672660 -0.554466
O23   O     O_R   0.575450 0.171180 0.332050 -0.542907
O24   O     O_R   0.621360 0.317890 0.827340 -0.552642
O25   O     O_R   0.621360 0.682110 0.327340 -0.551227
O26   O     O_R   0.621360 0.682110 0.172660 -0.549767
O27   O     O_R   0.206850 0.711370 0.665820 -0.473299
O28   O     O_R   0.206850 0.711370 0.834180 -0.491486
O29   O     O_R   0.206850 0.288630 0.334180 -0.491036
O30   O     O_R   0.206850 0.288630 0.165820 -0.495205
O31   O     O_R   0.706850 0.211370 0.665820 -0.476419
O32   O     O_R   0.706850 0.211370 0.834180 -0.474623
O33   O     O_R   0.706850 0.788630 0.334180 -0.497350
O34   O     O_R   0.575450 0.171180 0.167950 -0.543661
O35   O     O_R   0.706850 0.788630 0.165820 -0.479950
O36   O     O_R   0.457710 0.733190 0.672630 -0.482505
O37   O     O_R   0.457710 0.733190 0.827370 -0.487924
O38   O     O_R   0.457710 0.266810 0.327370 -0.484891
O39   O     O_R   0.457710 0.266810 0.172630 -0.485530
O40   O     O_R   0.957710 0.233190 0.672630 -0.486798
O41   O     O_R   0.957710 0.233190 0.827370 -0.488088
O42   O     O_R   0.957710 0.766810 0.327370 -0.490954
O43   O     O_R   0.957710 0.766810 0.172630 -0.482028
O44   O     O_3   0.331690 0.831680 0.750000 -0.315906
O45   O     O_R   0.075450 0.328820 0.667950 -0.561298
O46   O     O_3   0.331690 0.168320 0.250000 -0.331455
O47   O     O_3   0.831690 0.331680 0.750000 -0.303201
O48   O     O_3   0.831690 0.668320 0.250000 -0.318022
O49   O     O_3   0.124232 0.620253 0.577616 -0.556226
O50   O     O_3   0.033404 0.624901 0.924413 -0.561723
O51   O     O_3   0.021730 0.373257 0.426120 -0.556882
O52   O     O_3   0.013888 0.375221 0.072322 -0.564395
O53   O     O_3   0.624133 0.120218 0.577709 -0.554440
O54   O     O_3   0.614192 0.121160 0.918224 -0.552038
O55   O     O_3   0.521993 0.873284 0.426150 -0.558599
O56   O     O_R   0.075450 0.328820 0.832050 -0.560852
O57   O     O_3   0.637182 0.879278 0.071071 -0.556706
O58   O     O_R   0.075450 0.671180 0.332050 -0.547045
O59   O     O_R   0.075450 0.671180 0.167950 -0.556833
O60   O     O_R   0.416860 0.942890 0.674680 -0.527988

loop_
_geom_bond_atom_site_label_1
_geom_bond_atom_site_label_2
_ccdc_geom_bond_type
C46   H41   S    
C6    C32   S    
Cr6   O6    S    
C65   O2    A    
C21   C137  S    
C110  C118  A    
C58   H87   S    
C56   H84   S    
C64   C152  S    
C134  O19   A    
C72   C101  A    
C98   O5    A    
C9    H12   S    
C60   H94   S    
C54   O51   S    
C5    H15   S    
C113  C122  A    
C134  O28   A    
C4    C12   S    
C117  C126  A    
Cr7   O48   S    
Cr5   O23   S    
C21   C48   S    
C119  C128  A    
C80   C89   A    
C120  O7    A    
C71   C108  A    
C7    C33   S    
C14   H56   S    
C140  O35   A    
C53   H76   S    
Cr11  O16   S    
Cr2   O46   S    
C11   C20   S    
C94   H50   S    
C79   C109  S    
C59   H91   S    
C135  O20   A    
C25   C140  S    
Cr8   O18   S    
C126  H3    S    
C39   H31   S    
Cr3   O40   S    
C82   C91   A    
C47   O52   S    
C37   H29   S    
Cr5   O34   S    
C8    C150  S    
C55   O52   S    
C17   C43   S    
C18   C44   S    
C90   C92   A    
C51   O57   S    
C130  H7    S    
C56   H85   S    
C111  C113  A    
C94   C96   A    
C135  O29   A    
Cr7   O58   S    
Cr9   O13   S    
C22   C49   S    
C81   C90   A    
C26   H18   S    
C41   H33   S    
Cr5   O3    S    
Cr3   O47   S    
C137  O22   A    
C17   C133  S    
C118  H63   S    
C107  C110  A    
C36   C44   S    
C37   C45   S    
C52   H72   S    
C41   C69   S    
C21   C30   S    
C16   C25   S    
C9    C151  S    
C97   C100  A    
C62   C150  S    
Cr12  O27   S    
C64   C146  S    
Cr9   O46   S    
C50   C57   S    
C141  O1    A    
C124  H89   S    
Cr9   O20   S    
C145  O39   A    
C146  O40   A    
C8    C17   S    
C96   H52   S    
C106  C115  A    
C60   H96   S    
C13   C45   S    
Cr1   O44   S    
C58   H90   S    
C84   C93   A    
C27   H19   S    
C20   C47   S    
C3    C11   S    
C86   C95   A    
C83   H57   S    
C121  H70   S    
C125  C127  A    
C43   C142  S    
C132  H8    S    
C69   C141  S    
C16   H78   S    
C6    C69   S    
C147  O41   A    
C123  C132  A    
C112  C114  A    
C81   C101  A    
C13   H38   S    
C70   C143  S    
Cr4   O33   S    
C33   C42   S    
C12   H45   S    
Cr12  O44   S    
C1    O9    A    
C40   C49   S    
C76   O11   A    
C42   C70   S    
C111  C119  A    
C77   C131  S    
C3    C29   S    
C98   O14   A    
C74   C107  A    
C119  H69   S    
C148  O42   A    
C123  H68   S    
C146  O45   A    
C2    C44   S    
C149  O43   A    
C29   C38   S    
C32   C41   S    
C78   C111  A    
C75   C113  A    
C89   C91   A    
Cr1   O1    S    
Cr11  O26   S    
C128  H5    S    
C93   C95   A    
C151  H10   S    
C62   C148  S    
C79   C103  A    
Cr10  O47   S    
C62   C142  S    
C120  O16   A    
C117  H62   S    
C7    H17   S    
C129  H6    S    
C90   H46   S    
C91   H47   S    
C80   H53   S    
C141  O36   A    
Cr11  O17   S    
Cr7   O8    S    
C57   H42   S    
C65   C74   S    
C46   C68   S    
C65   O10   A    
C35   C67   S    
Cr3   O41   S    
C144  O23   A    
C103  C105  A    
C20   C136  S    
C12   C35   S    
C19   C28   S    
Cr12  O37   S    
C114  C123  A    
C116  C125  A    
C84   C104  A    
C92   H48   S    
C118  C127  A    
C50   O55   S    
C86   C102  A    
Cr7   O59   S    
C72   C87   S    
C2    C63   S    
C124  C126  A    
Cr4   O35   S    
C6    H16   S    
C36   H28   S    
C108  C117  A    
C75   C120  S    
C4    H14   S    
Cr1   O60   S    
C8    C142  S    
C19   C45   S    
Cr2   O29   S    
C54   H79   S    
C14   C22   S    
C28   H20   S    
C11   H34   S    
C112  C121  A    
C136  O30   A    
Cr10  O14   S    
C106  C108  A    
C28   C37   S    
C29   H21   S    
C30   C39   S    
C18   C134  S    
C107  C116  A    
C8    H1    S    
C9    C18   S    
C150  H9    S    
Cr2   O38   S    
C16   C61   S    
C138  O24   A    
C87   O13   A    
C140  O26   A    
C2    C9    S    
C49   O54   S    
C25   C33   S    
C61   C70   S    
C88   C96   A    
C24   H39   S    
Cr3   O32   S    
C78   C102  A    
Cr4   O42   S    
C53   H75   S    
C7    C70   S    
C14   C46   S    
C46   C49   S    
Cr8   O9    S    
C79   C112  A    
C42   H35   S    
C145  O34   A    
C148  O58   A    
C71   C76   S    
C116  H65   S    
Cr9   O21   S    
C35   H40   S    
C149  O59   A    
C67   C144  S    
C19   C135  S    
C34   C62   S    
C31   C40   S    
Cr11  O48   S    
C138  O32   A    
C10   C152  S    
C152  H11   S    
C127  H4    S    
C55   H82   S    
C56   H86   S    
C58   O54   S    
C24   C66   S    
C129  C132  A    
C15   H67   S    
Cr6   O5    S    
C83   C99   A    
C2    H37   S    
C5    C68   S    
C35   C48   S    
Cr12  O28   S    
C93   H49   S    
C54   H77   S    
C26   C150  S    
C23   C50   S    
C131  O8    A    
C133  O18   A    
C38   H30   S    
C33   H26   S    
Cr6   O56   S    
C10   C19   S    
C53   O50   S    
C136  O21   A    
Cr8   O44   S    
C63   C151  S    
C5    C14   S    
C61   H43   S    
C7    C16   S    
Cr5   O46   S    
C75   C104  A    
C82   C97   A    
C3    C66   S    
C77   C114  A    
C41   C50   S    
Cr12  O36   S    
C37   C64   S    
C56   O53   S    
C143  O37   A    
C27   C151  S    
C115  C124  A    
C59   H92   S    
C142  H36   S    
C121  C129  A    
C128  C130  A    
C74   C99   A    
Cr10  O24   S    
C27   C36   S    
C71   C100  A    
C22   C138  S    
C1    C73   S    
C23   C32   S    
C77   C105  A    
C115  H64   S    
C13   C64   S    
C131  O17   A    
Cr5   O4    S    
C40   C68   S    
C59   H93   S    
C84   H58   S    
C68   C145  S    
C52   H71   S    
C39   C48   S    
Cr11  O25   S    
C147  O56   A    
C95   H51   S    
C58   H88   S    
C51   C61   S    
Cr9   O11   S    
C73   C97   A    
C83   C92   A    
Cr4   O48   S    
C17   C26   S    
C30   H22   S    
C60   H95   S    
C23   C139  S    
C34   H27   S    
C89   H44   S    
Cr7   O7    S    
C1    O60   A    
C11   C24   S    
C52   O49   S    
C139  O25   A    
C137  O31   A    
C63   C149  S    
C6    C15   S    
C26   C34   S    
C38   C66   S    
C133  O27   A    
C31   H24   S    
C78   C98   S    
Cr6   O47   S    
Cr4   O43   S    
C36   C63   S    
C42   C51   S    
C85   C94   A    
C15   C23   S    
C55   H83   S    
C80   C100  A    
C15   C57   S    
Cr8   O19   S    
C86   H60   S    
C85   C105  A    
C20   C29   S    
Cr10  O22   S    
C122  H66   S    
C72   C110  A    
C22   C31   S    
C82   H55   S    
C143  O12   A    
C44   O50   S    
C45   O51   S    
C139  O33   A    
C12   C21   S    
Cr2   O30   S    
C54   H80   S    
C25   C51   S    
C59   O55   S    
C85   H59   S    
Cr10  O15   S    
C88   H61   S    
C10   H23   S    
C66   C147  S    
C48   O53   S    
C102  C104  A    
Cr1   O2    S    
C38   C47   S    
C109  O15   A    
C52   H73   S    
Cr3   O31   S    
C76   O3    A    
Cr2   O39   S    
C28   C152  S    
C88   C103  A    
C40   H32   S    
C99   C101  A    
C24   C47   S    
C39   C67   S    
C43   O49   S    
C18   C27   S    
C109  O6    A    
C10   C13   S    
C53   H74   S    
C4    C67   S    
Cr8   O10   S    
C125  H2    S    
C3    H13   S    
C73   C106  A    
C81   H54   S    
Cr6   O45   S    
C32   H25   S    
Cr1   O12   S    
C144  O38   A    
C55   H81   S    
C57   C69   S    
C34   C43   S    
C87   O4    A    
C122  C130  A    
C4    C30   S    
C60   O57   S    
C5    C31   S    
