data_mof_unit_62819.cif
_audit_creation_date              2012-12-10T16:54:03-0500
_audit_creation_method            fapswitch 2.2
_symmetry_space_group_name_H-M    P1
_symmetry_Int_Tables_number       1
_space_group_crystal_system       triclinic
_cell_length_a                    18.533788
_cell_length_b                    18.53379
_cell_length_c                    42.968515
_cell_angle_alpha                 89.999914
_cell_angle_beta                  89.998477
_cell_angle_gamma                 90.0
_cell_volume                      14759.7422472

loop_
_atom_site_label
_atom_site_type_symbol
_atom_type_description
_atom_site_fract_x
_atom_site_fract_y
_atom_site_fract_z
_atom_type_partial_charge
C1    C     C_R   0.500001 1.000000 0.584208 0.777972
C2    C     C_R   0.999999 0.500000 0.584208 0.777972
C3    C     C_R   0.000000 0.500000 0.084208 0.777965
C4    C     C_R   0.499999 0.999999 0.084208 0.777965
C5    C     C_R   0.999999 0.500002 0.718358 0.285168
C6    C     C_R   0.500006 0.000001 0.718358 0.285168
C7    C     C_R   0.499999 0.999986 0.218359 0.285170
C8    C     C_R   0.000009 0.500001 0.218359 0.285170
C9    C     C_R   0.500002 0.999988 0.281533 0.313094
C10   C     C_R   0.000008 0.500002 0.281533 0.313094
C11   C     C_R   0.000000 0.500001 0.781533 0.313134
C12   C     C_R   0.500005 0.000000 0.781533 0.313133
C13   C     C_R   0.936493 0.484530 0.667481 -0.158855
C14   C     C_R   0.515479 0.936496 0.667480 -0.158828
C15   C     C_R   0.063503 0.515475 0.667479 -0.158828
C16   C     C_R   0.484533 0.063505 0.667480 -0.158856
C17   C     C_R   0.436497 0.015477 0.167481 -0.158832
C18   C     C_R   0.984518 0.436499 0.167481 -0.158838
C19   C     C_R   0.563499 0.984501 0.167479 -0.158840
C20   C     C_R   0.015495 0.563501 0.167480 -0.158835
C21   C     C_R   0.936393 0.484967 0.635014 -0.186226
C22   C     C_R   0.515039 0.936395 0.635013 -0.186339
C23   C     C_R   0.063603 0.515036 0.635012 -0.186439
C24   C     C_R   0.484969 0.063605 0.635013 -0.186325
C25   C     C_R   0.436397 0.015043 0.135014 -0.186323
C26   C     C_R   0.984954 0.436399 0.135014 -0.186321
C27   C     C_R   0.563600 0.984944 0.135012 -0.186317
C28   C     C_R   0.015054 0.563601 0.135013 -0.186318
C29   C     C_R   0.999998 0.500001 0.618492 -0.002462
C30   C     C_R   0.500003 0.000000 0.618492 -0.002462
C31   C     C_R   0.499998 0.999996 0.118492 -0.002421
C32   C     C_R   0.000003 0.500000 0.118492 -0.002421
C33   C     C_R   0.999998 0.500002 0.684030 0.082714
C34   C     C_R   0.500006 0.000000 0.684030 0.082714
C35   C     C_R   0.499998 0.999987 0.184030 0.082710
C36   C     C_R   0.000008 0.500000 0.184030 0.082710
C37   C     C_R   0.500001 1.000000 0.415857 0.911785
C38   C     C_R   1.000000 0.500000 0.415857 0.911788
C39   C     C_R   0.000001 0.500000 0.915857 0.911883
C40   C     C_R   0.500000 1.000000 0.915857 0.911885
C41   C     C_R   0.361609 0.138798 0.499914 0.873803
C42   C     C_R   0.861201 0.361609 0.499914 0.873775
C43   C     C_R   0.638678 0.861485 0.500088 0.875916
C44   C     C_R   0.138514 0.638678 0.500088 0.875974
C45   C     C_R   0.638691 0.138504 0.500096 0.862336
C46   C     C_R   0.138504 0.361309 0.500096 0.862417
C47   C     C_R   0.361595 0.861208 0.499921 0.860940
C48   C     C_R   0.861207 0.638405 0.499921 0.860892
C49   C     C_R   0.861595 0.638792 0.999921 0.861008
C50   C     C_R   0.361207 0.861595 0.999921 0.861019
C51   C     C_R   0.138405 0.361208 0.999921 0.861019
C52   C     C_R   0.638792 0.138405 0.999921 0.861008
C53   C     C_R   0.138678 0.638514 0.000087 0.875846
C54   C     C_R   0.638514 0.861322 0.000087 0.875835
C55   C     C_R   0.861322 0.361485 0.000088 0.875837
C56   C     C_R   0.361485 0.138678 0.000088 0.875848
C57   C     C_2   0.193390 0.750457 0.481533 -0.144549
C58   C     C_2   0.248324 0.192177 0.482260 -0.148553
C59   C     C_2   0.807822 0.248325 0.482259 -0.148346
C60   C     C_2   0.750456 0.806609 0.481532 -0.144371
C61   C     C_2   0.807819 0.751700 0.482267 -0.155178
C62   C     C_2   0.750538 0.193328 0.481577 -0.151734
C63   C     C_2   0.193327 0.249460 0.481578 -0.151911
C64   C     C_2   0.248299 0.807820 0.482268 -0.155385
C65   C     C_2   0.692181 0.251702 0.982268 -0.155211
C66   C     C_2   0.748300 0.692181 0.982267 -0.155204
C67   C     C_2   0.307820 0.748299 0.982267 -0.155203
C68   C     C_2   0.251703 0.307820 0.982267 -0.155210
C69   C     C_2   0.306611 0.250456 0.981533 -0.144534
C70   C     C_2   0.250457 0.693390 0.981532 -0.144540
C71   C     C_2   0.693391 0.749544 0.981533 -0.144539
C72   C     C_2   0.749545 0.306611 0.981533 -0.144534
C73   C     C_2   0.193432 0.694364 0.501259 -0.291485
C74   C     C_2   0.308324 0.196109 0.499632 -0.286371
C75   C     C_2   0.803890 0.308324 0.499632 -0.286489
C76   C     C_2   0.694364 0.806568 0.501259 -0.291547
C77   C     C_2   0.803862 0.691666 0.499619 -0.287325
C78   C     C_2   0.694346 0.193460 0.501253 -0.290512
C79   C     C_2   0.193460 0.305654 0.501253 -0.290448
C80   C     C_2   0.308333 0.803863 0.499619 -0.287202
C81   C     C_2   0.696136 0.191667 0.999619 -0.287239
C82   C     C_2   0.808333 0.696137 0.999619 -0.287241
C83   C     C_2   0.303863 0.808333 0.999619 -0.287244
C84   C     C_2   0.191667 0.303863 0.999619 -0.287242
C85   C     C_2   0.306567 0.194363 0.001259 -0.291525
C86   C     C_2   0.194364 0.693432 0.001259 -0.291523
C87   C     C_2   0.693432 0.805636 0.001259 -0.291519
C88   C     C_2   0.805637 0.306567 0.001259 -0.291521
C89   C     C_R   0.457092 0.050551 0.364899 -0.049417
C90   C     C_R   0.949448 0.457091 0.364899 -0.049409
C91   C     C_R   0.542920 0.949446 0.364900 -0.048929
C92   C     C_R   0.050554 0.542917 0.364899 -0.048938
C93   C     C_R   0.957063 0.449468 0.864899 -0.048930
C94   C     C_R   0.550533 0.957061 0.864899 -0.048933
C95   C     C_R   0.042942 0.550530 0.864898 -0.048933
C96   C     C_R   0.449471 0.042939 0.864899 -0.048933
C97   C     C_R   0.456531 0.048571 0.332313 -0.180233
C98   C     C_R   0.951427 0.456530 0.332313 -0.180253
C99   C     C_R   0.543480 0.951418 0.332314 -0.180237
C100  C     C_R   0.048580 0.543479 0.332314 -0.180218
C101  C     C_R   0.956502 0.451446 0.832314 -0.180199
C102  C     C_R   0.548557 0.956501 0.832313 -0.180199
C103  C     C_R   0.043502 0.548553 0.832313 -0.180197
C104  C     C_R   0.451449 0.043500 0.832314 -0.180196
C105  C     C_R   0.500004 0.999992 0.315884 0.025996
C106  C     C_R   0.000006 0.500003 0.315884 0.025996
C107  C     C_R   0.000002 0.500000 0.815884 0.025941
C108  C     C_R   0.500004 0.000000 0.815884 0.025941
C109  C     C_R   0.500004 0.999999 0.381548 -0.172630
C110  C     C_R   0.000001 0.500002 0.381548 -0.172630
C111  C     C_R   0.000002 0.499999 0.881548 -0.172592
C112  C     C_R   0.500001 0.000000 0.881548 -0.172591
H1    H     H_    0.150958 0.755574 0.464229 0.181817
H2    H     H_    0.238909 0.145463 0.467536 0.180150
H3    H     H_    0.854536 0.238910 0.467534 0.180299
H4    H     H_    0.755571 0.849040 0.464227 0.181923
H5    H     H_    0.854592 0.761185 0.467587 0.179683
H6    H     H_    0.755781 0.150769 0.464338 0.180632
H7    H     H_    0.150767 0.244217 0.464341 0.180521
H8    H     H_    0.238813 0.854593 0.467589 0.179530
H9    H     H_    0.645410 0.261189 0.967588 0.179668
H10   H     H_    0.738815 0.645409 0.967587 0.179669
H11   H     H_    0.354592 0.738814 0.967587 0.179668
H12   H     H_    0.261190 0.354591 0.967587 0.179667
H13   H     H_    0.349045 0.255572 0.964228 0.181832
H14   H     H_    0.255573 0.650958 0.964227 0.181832
H15   H     H_    0.650959 0.744428 0.964228 0.181832
H16   H     H_    0.744429 0.349045 0.964229 0.181834
H17   H     H_    0.233526 0.688140 0.519326 0.149741
H18   H     H_    0.320787 0.242413 0.513945 0.151475
H19   H     H_    0.757586 0.320788 0.513945 0.151387
H20   H     H_    0.688140 0.766473 0.519327 0.149691
H21   H     H_    0.757475 0.679132 0.513874 0.153226
H22   H     H_    0.687967 0.233692 0.519252 0.151345
H23   H     H_    0.233692 0.312033 0.519251 0.151396
H24   H     H_    0.320866 0.757476 0.513873 0.153314
H25   H     H_    0.742522 0.179133 0.013873 0.153283
H26   H     H_    0.820866 0.742523 0.013874 0.153282
H27   H     H_    0.257476 0.820867 0.013874 0.153281
H28   H     H_    0.179133 0.257477 0.013873 0.153282
H29   H     H_    0.266470 0.188139 0.019326 0.149716
H30   H     H_    0.188139 0.733527 0.019326 0.149718
H31   H     H_    0.733528 0.811861 0.019326 0.149719
H32   H     H_    0.811861 0.266470 0.019326 0.149717
H33   H     H_    0.423975 0.087184 0.319604 0.189836
H34   H     H_    0.912813 0.423974 0.319604 0.189844
H35   H     H_    0.576038 0.912803 0.319606 0.189855
H36   H     H_    0.087195 0.576037 0.319605 0.189848
H37   H     H_    0.923925 0.412848 0.819606 0.189851
H38   H     H_    0.587156 0.923924 0.819604 0.189852
H39   H     H_    0.076079 0.587151 0.819604 0.189852
H40   H     H_    0.412851 0.076077 0.819605 0.189853
H41   H     H_    0.886652 0.472682 0.679599 0.155179
H42   H     H_    0.527328 0.886655 0.679598 0.155171
H43   H     H_    0.113344 0.527323 0.679597 0.155168
H44   H     H_    0.472685 0.113346 0.679598 0.155176
H45   H     H_    0.386659 0.027336 0.179600 0.155168
H46   H     H_    0.972659 0.386661 0.179599 0.155165
H47   H     H_    0.613337 0.972639 0.179596 0.155166
H48   H     H_    0.027356 0.613340 0.179597 0.155169
H49   H     H_    0.886617 0.473013 0.622858 0.162766
H50   H     H_    0.526994 0.886619 0.622857 0.162685
H51   H     H_    0.113379 0.526990 0.622856 0.162673
H52   H     H_    0.473014 0.113381 0.622857 0.162754
H53   H     H_    0.386624 0.027011 0.122859 0.162680
H54   H     H_    0.972987 0.386626 0.122858 0.162680
H55   H     H_    0.613373 0.972978 0.122855 0.162682
H56   H     H_    0.027020 0.613374 0.122856 0.162682
N1    N     N_R   0.554632 0.968572 0.265427 -0.162624
N2    N     N_R   0.031424 0.554633 0.265427 -0.162604
N3    N     N_R   0.445370 0.031403 0.265429 -0.162606
N4    N     N_R   0.968593 0.445371 0.265429 -0.162626
N5    N     N_R   0.054643 0.531396 0.765427 -0.162603
N6    N     N_R   0.468609 0.054643 0.765428 -0.162603
N7    N     N_R   0.945357 0.468606 0.765429 -0.162602
N8    N     N_R   0.531401 0.945358 0.765428 -0.162602
N9    N     N_R   0.054736 0.531232 0.734458 -0.168921
N10   N     N_R   0.468774 0.054737 0.734459 -0.168915
N11   N     N_R   0.945262 0.468772 0.734460 -0.168917
N12   N     N_R   0.531237 0.945264 0.734459 -0.168923
N13   N     N_R   0.554725 0.968735 0.234459 -0.168926
N14   N     N_R   0.031260 0.554727 0.234459 -0.168921
N15   N     N_R   0.445274 0.031237 0.234460 -0.168927
N16   N     N_R   0.968758 0.445276 0.234460 -0.168931
O1    O     O_3   0.500000 0.000000 0.500000 -0.495250
O2    O     O_3   0.000000 0.500000 0.500000 -0.495251
O3    O     O_3   0.000000 0.500000 0.000000 -0.495293
O4    O     O_3   0.500000 0.000000 0.000000 -0.495293
O5    O     O_R   0.500000 0.939850 0.569320 -0.646933
O6    O     O_R   0.060150 0.500000 0.569320 -0.647231
O7    O     O_R   0.500000 0.060150 0.569320 -0.646952
O8    O     O_R   0.939850 0.500000 0.569320 -0.646654
O9    O     O_R   0.000000 0.439850 0.069320 -0.646940
O10   O     O_R   0.560150 0.000000 0.069320 -0.646937
O11   O     O_R   0.000000 0.560150 0.069320 -0.646940
O12   O     O_R   0.439850 0.000000 0.069320 -0.646942
O13   O     O_R   0.439930 0.000000 0.430670 -0.619571
O14   O     O_R   1.000000 0.439930 0.430670 -0.619945
O15   O     O_R   0.560070 0.000000 0.430670 -0.620192
O16   O     O_R   1.000000 0.560070 0.430670 -0.619819
O17   O     O_R   0.939930 0.500000 0.930670 -0.619854
O18   O     O_R   0.500000 0.939930 0.930670 -0.619855
O19   O     O_R   0.060070 0.500000 0.930670 -0.619858
O20   O     O_R   0.500000 0.060070 0.930670 -0.619857
O21   O     O_R   0.415450 0.144560 0.518170 -0.645860
O22   O     O_R   0.855440 0.415450 0.518170 -0.646161
O23   O     O_R   0.584550 0.855440 0.518170 -0.645725
O24   O     O_R   0.144560 0.584550 0.518170 -0.645419
O25   O     O_R   0.584550 0.144560 0.518170 -0.641968
O26   O     O_R   0.144560 0.415450 0.518170 -0.641665
O27   O     O_R   0.415450 0.855440 0.518170 -0.641954
O28   O     O_R   0.855440 0.584550 0.518170 -0.642252
O29   O     O_R   0.915450 0.644560 0.018170 -0.642007
O30   O     O_R   0.355440 0.915450 0.018170 -0.642009
O31   O     O_R   0.084550 0.355440 0.018170 -0.642007
O32   O     O_R   0.644560 0.084550 0.018170 -0.642005
O33   O     O_R   0.084550 0.644560 0.018170 -0.645670
O34   O     O_R   0.644560 0.915450 0.018170 -0.645669
O35   O     O_R   0.915450 0.355440 0.018170 -0.645672
O36   O     O_R   0.355440 0.084550 0.018170 -0.645673
O37   O     O_R   0.644640 0.915430 0.481820 -0.631165
O38   O     O_R   0.084570 0.644640 0.481820 -0.631413
O39   O     O_R   0.355360 0.084570 0.481820 -0.630948
O40   O     O_R   0.915430 0.355360 0.481820 -0.630711
O41   O     O_R   0.355360 0.915430 0.481820 -0.643558
O42   O     O_R   0.915430 0.644640 0.481820 -0.643336
O43   O     O_R   0.644640 0.084570 0.481820 -0.643768
O44   O     O_R   0.084570 0.355360 0.481820 -0.644001
O45   O     O_R   0.144640 0.415430 0.981820 -0.643359
O46   O     O_R   0.584570 0.144640 0.981820 -0.643358
O47   O     O_R   0.855360 0.584570 0.981820 -0.643357
O48   O     O_R   0.415430 0.855360 0.981820 -0.643356
O49   O     O_R   0.855360 0.415430 0.981820 -0.631380
O50   O     O_R   0.415430 0.144640 0.981820 -0.631382
O51   O     O_R   0.144640 0.584570 0.981820 -0.631383
O52   O     O_R   0.584570 0.855360 0.981820 -0.631382
Zn1   Zn    Zn3+2 0.414160 0.000000 0.474030 1.020458
Zn2   Zn    Zn3+2 0.000000 0.414160 0.474030 1.020216
Zn3   Zn    Zn3+2 0.585840 0.000000 0.474030 1.020052
Zn4   Zn    Zn3+2 0.000000 0.585840 0.474030 1.020286
Zn5   Zn    Zn3+2 0.914160 0.500000 0.974030 1.020289
Zn6   Zn    Zn3+2 0.500000 0.914160 0.974030 1.020291
Zn7   Zn    Zn3+2 0.085840 0.500000 0.974030 1.020292
Zn8   Zn    Zn3+2 0.500000 0.085840 0.974030 1.020290
Zn9   Zn    Zn3+2 0.500000 0.085780 0.525960 0.980544
Zn10  Zn    Zn3+2 0.914220 0.500000 0.525960 0.980398
Zn11  Zn    Zn3+2 0.500000 0.914220 0.525960 0.980639
Zn12  Zn    Zn3+2 0.085780 0.500000 0.525960 0.980787
Zn13  Zn    Zn3+2 1.000000 0.585780 0.025960 0.980621
Zn14  Zn    Zn3+2 0.414220 0.000000 0.025960 0.980622
Zn15  Zn    Zn3+2 1.000000 0.414220 0.025960 0.980621
Zn16  Zn    Zn3+2 0.585780 0.000000 0.025960 0.980620
C113  C     C_2   0.414342 0.108288 0.380396 0.924387
O53   O     O_2   0.435593 0.135954 0.404556 -0.637264
O54   O     O_R   0.350625 0.132986 0.366581 -0.796341
H57   H     H_    0.326627 0.172759 0.379047 0.351090
C114  C     C_2   0.891711 0.414340 0.380397 0.924388
O55   O     O_2   0.864046 0.435592 0.404558 -0.637192
O56   O     O_R   0.867012 0.350624 0.366581 -0.796408
H58   H     H_    0.827239 0.326626 0.379048 0.351078
C115  C     C_2   0.585678 0.891719 0.380399 0.923715
O57   O     O_2   0.564422 0.864046 0.404557 -0.637666
O58   O     O_R   0.649408 0.867040 0.366588 -0.796550
H59   H     H_    0.673414 0.827277 0.379058 0.350636
C116  C     C_2   0.108281 0.585676 0.380398 0.923712
O59   O     O_2   0.135954 0.564420 0.404556 -0.637736
O60   O     O_R   0.132960 0.649406 0.366588 -0.796484
H60   H     H_    0.172723 0.673412 0.379057 0.350650
C117  C     C_2   0.914280 0.391758 0.880398 0.923799
O61   O     O_2   0.935532 0.364063 0.904552 -0.637683
O62   O     O_R   0.850532 0.367119 0.866591 -0.796492
H61   H     H_    0.826509 0.327363 0.879060 0.350638
C118  C     C_2   0.608243 0.914278 0.880396 0.923798
O63   O     O_2   0.635936 0.935528 0.904551 -0.637684
O64   O     O_R   0.632884 0.850530 0.866589 -0.796491
H62   H     H_    0.672638 0.826507 0.879057 0.350638
C119  C     C_2   0.085725 0.608240 0.880396 0.923798
O65   O     O_2   0.064475 0.635935 0.904550 -0.637683
O66   O     O_R   0.149474 0.632879 0.866588 -0.796490
H63   H     H_    0.173497 0.672634 0.879056 0.350638
C120  C     C_2   0.391760 0.085722 0.880397 0.923797
O67   O     O_2   0.364064 0.064471 0.904552 -0.637684
O68   O     O_R   0.367120 0.149470 0.866590 -0.796491
H64   H     H_    0.327364 0.173492 0.879059 0.350638

loop_
_geom_bond_atom_site_label_1
_geom_bond_atom_site_label_2
_ccdc_geom_bond_type
C25   C31   A    
O1    Zn11  S    
C57   C64   S    
O2    Zn10  S    
C97   H33   S    
C67   C83   D    
C115  O57   D    
C95   C119  S    
O36   Zn14  S    
O5    Zn11  S    
O41   Zn1   S    
C9    N1    A    
O64   H62   S    
C18   C26   A    
O26   Zn12  S    
C91   C109  A    
O3    Zn5   S    
C13   H41   S    
C71   H15   S    
C68   H12   S    
C94   C118  S    
C83   H27   S    
O8    Zn10  S    
O58   H59   S    
C40   C112  S    
C63   C79   D    
C80   H24   S    
C47   O27   A    
C4    O10   A    
C67   H11   S    
C96   C112  A    
C53   O51   A    
C92   C100  A    
C42   C75   S    
C3    O9    A    
C77   H21   S    
O37   Zn3   S    
C2    C29   S    
O48   Zn6   S    
C23   C29   A    
C12   N6    A    
O16   Zn4   S    
C43   O37   A    
C2    O8    A    
C60   H4    S    
C39   O19   A    
C58   C63   S    
C45   O43   A    
C54   C87   S    
C22   H50   S    
C12   C108  S    
C51   O45   A    
C50   O30   A    
C10   N4    A    
O62   H61   S    
O18   Zn6   S    
C52   O32   A    
C49   O29   A    
O54   H57   S    
C44   O24   A    
C41   O21   A    
O17   Zn5   S    
O4    Zn14  S    
C114  O55   D    
C8    C36   S    
O52   Zn6   S    
C55   C88   S    
O4    Zn16  S    
C89   C97   A    
C5    N11   A    
O14   Zn2   S    
O20   Zn8   S    
C41   C74   S    
O2    Zn2   S    
O4    Zn6   S    
C75   H19   S    
O1    Zn1   S    
C48   O28   A    
C45   C78   S    
C61   C77   D    
C68   C69   S    
O38   Zn4   S    
C5    C33   S    
O30   Zn14  S    
O66   H63   S    
C38   O14   A    
O29   Zn13  S    
C53   C86   S    
C54   O52   A    
C38   C110  S    
C19   C27   A    
C116  O59   D    
N6    N10   A    
C115  O58   S    
C91   C115  S    
O46   Zn8   S    
C103  H39   S    
O56   H58   S    
C12   N8    A    
C97   C105  A    
C8    N16   A    
C104  C108  A    
C15   C23   A    
C69   H13   S    
C16   C24   A    
C37   O15   A    
O35   Zn15  S    
C117  O61   D    
C14   H42   S    
O31   Zn15  S    
C64   C80   D    
C56   O50   A    
C24   H52   S    
C59   C75   D    
O33   Zn13  S    
C47   C80   S    
C55   O49   A    
C42   O40   A    
O2    Zn12  S    
O40   Zn2   S    
C72   C88   D    
C57   C73   D    
C95   C103  A    
C50   C83   S    
C54   O34   A    
C23   H51   S    
C37   C109  S    
C53   O33   A    
C99   C105  A    
C73   H17   S    
C11   N5    A    
C21   H49   S    
C7    N13   A    
C9    C105  S    
C43   O23   A    
C68   C84   D    
O51   Zn7   S    
C40   O20   A    
C28   C32   A    
O42   Zn4   S    
O3    Zn7   S    
O39   Zn1   S    
C93   C101  A    
C113  O54   S    
C26   C32   A    
C89   C109  A    
C55   O35   A    
C98   H34   S    
C70   H14   S    
C120  O67   D    
C46   O26   A    
O27   Zn11  S    
C60   C76   D    
C37   O13   A    
C45   O25   A    
C6    C34   S    
O15   Zn3   S    
C60   C61   S    
C114  O56   S    
C49   C82   S    
C49   O47   A    
C81   H25   S    
O24   Zn12  S    
C13   C33   A    
C52   O46   A    
C18   H46   S    
C69   C85   D    
C8    N14   A    
C66   C82   D    
C48   O42   A    
O47   Zn5   S    
N4    N16   A    
C65   C81   D    
C66   C71   S    
C47   O41   A    
N5    N9    A    
O32   Zn16  S    
C16   C34   A    
C48   C77   S    
C66   H10   S    
C118  O63   D    
C13   C21   A    
C3    C32   S    
O19   Zn7   S    
C57   H1    S    
C102  C108  A    
C11   N7    A    
C78   H22   S    
N1    N13   A    
C41   O39   A    
C102  H38   S    
C101  C107  A    
C71   C87   D    
C92   C116  S    
C1    O7    A    
O43   Zn3   S    
O28   Zn10  S    
C40   O18   A    
C19   C35   A    
C5    N9    A    
C65   H9    S    
C119  O66   S    
C27   C31   A    
C11   C107  S    
O7    Zn9   S    
O10   Zn16  S    
O4    Zn8   S    
C24   C30   A    
C44   O38   A    
C90   C110  A    
C6    N10   A    
C85   H29   S    
C15   H43   S    
C70   C86   D    
C74   H18   S    
O25   Zn9   S    
C116  O60   S    
C56   O36   A    
C17   H45   S    
C58   C74   D    
C86   H30   S    
O1    Zn9   S    
C51   O31   A    
C43   C76   S    
C4    O12   A    
C96   C104  A    
C99   H35   S    
C26   H54   S    
C59   C62   S    
C46   O44   A    
C50   O48   A    
C22   C30   A    
C98   C106  A    
O22   Zn10  S    
N3    N15   A    
O1    Zn3   S    
O34   Zn16  S    
C62   C78   D    
C104  H40   S    
C2    O6    A    
C90   C98   A    
C17   C25   A    
O23   Zn11  S    
C14   C34   A    
O13   Zn1   S    
O60   H60   S    
C1    C30   S    
O6    Zn12  S    
C10   N2    A    
C65   C72   S    
C20   C28   A    
N7    N11   A    
O21   Zn9   S    
C96   C120  S    
C64   H8    S    
C52   C81   S    
C7    N15   A    
O2    Zn4   S    
C103  C107  A    
C25   H53   S    
C120  O68   S    
C14   C22   A    
C117  O62   S    
O44   Zn2   S    
C113  O53   D    
C19   H47   S    
C79   H23   S    
C82   H26   S    
C61   H5    S    
C95   C111  A    
C39   C111  S    
C76   H20   S    
C92   C110  A    
C56   C85   S    
C46   C79   S    
C21   C29   A    
C100  H36   S    
O45   Zn7   S    
C6    N12   A    
O11   Zn13  S    
C7    C35   S    
C101  H37   S    
O3    Zn13  S    
C118  O64   S    
C15   C33   A    
C16   H44   S    
C42   O22   A    
C38   O16   A    
O9    Zn15  S    
C39   O17   A    
O3    Zn15  S    
C44   C73   S    
C3    O11   A    
C62   H6    S    
C4    C31   S    
C9    N3    A    
C28   H56   S    
C100  C106  A    
C20   C36   A    
N8    N12   A    
C93   C117  S    
C84   H28   S    
C59   H3    S    
C63   H7    S    
C20   H48   S    
O12   Zn14  S    
O68   H64   S    
C58   H2    S    
C10   C106  S    
C72   H16   S    
C93   C111  A    
C89   C113  S    
C17   C35   A    
C67   C70   S    
C87   H31   S    
C91   C99   A    
C119  O65   D    
C90   C114  S    
C18   C36   A    
C51   C84   S    
C88   H32   S    
C94   C112  A    
N2    N14   A    
O49   Zn5   S    
C94   C102  A    
C27   H55   S    
O50   Zn8   S    
C1    O5    A    
