data_mof_unit_52389.cif
_audit_creation_date              2012-12-10T20:34:47-0500
_audit_creation_method            fapswitch 2.2
_symmetry_space_group_name_H-M    P1
_symmetry_Int_Tables_number       1
_space_group_crystal_system       triclinic
_cell_length_a                    10.635822
_cell_length_b                    10.670859
_cell_length_c                    9.860398
_cell_angle_alpha                 90.000507
_cell_angle_beta                  90.200595
_cell_angle_gamma                 90.085799
_cell_volume                      1119.08155615

loop_
_atom_site_label
_atom_site_type_symbol
_atom_type_description
_atom_site_fract_x
_atom_site_fract_y
_atom_site_fract_z
_atom_type_partial_charge
C1    C     C_R   0.503683 0.259980 0.500094 0.875948
C2    C     C_3   0.878723 0.501567 0.499224 0.108809
C3    C     C_3   0.929010 0.619751 0.574756 0.100118
C4    C     C_3   0.928243 0.500307 0.350969 -0.363847
C5    C     C_R   0.516850 0.063878 0.623549 0.150874
C6    C     C_R   0.522983 0.128605 0.501225 -0.116810
C7    C     C_R   0.552383 0.064882 0.381071 -0.223851
C8    C     C_R   0.552170 0.935279 0.381014 -0.169307
C9    C     C_R   0.522593 0.871488 0.501121 -0.086950
C10   C     C_R   0.516729 0.936124 0.623496 0.161909
C11   C     C_3   0.421398 0.928844 0.734326 -0.491298
C12   C     C_R   0.257642 0.499640 0.499654 0.843367
C13   C     C_3   0.421416 0.070909 0.734304 -0.496793
C14   C     C_R   0.436016 0.409677 0.070921 0.221137
C15   C     C_R   0.572138 0.582141 0.072290 -0.137655
C16   C     C_R   0.572074 0.582217 0.928246 -0.139359
C17   C     C_R   0.436214 0.409539 0.928292 0.222057
C18   C     C_3   0.298379 0.385278 0.921528 -0.522199
C19   C     C_3   0.297928 0.386298 0.075322 -0.519373
C20   C     C_R   0.503457 0.740041 0.500032 0.911272
C21   C     C_R   0.742324 0.500213 0.499928 0.887268
C22   C     C_3   0.071824 0.382374 0.573640 -0.410656
C23   C     C_3   0.927493 0.382404 0.572435 -0.463435
C24   C     C_3   0.073679 0.619865 0.571530 -0.417821
C25   C     C_3   0.070841 0.499176 0.351095 -0.398453
C26   C     C_3   0.121266 0.500225 0.499017 0.136599
H1    H     H_    0.105898 0.381053 0.680449 0.179885
H2    H     H_    0.894292 0.583691 0.293840 0.212356
H3    H     H_    0.109884 0.704339 0.518146 0.194996
H4    H     H_    0.567037 0.114090 0.286310 0.169138
H5    H     H_    0.566839 0.886103 0.286255 0.168063
H6    H     H_    0.330703 0.887291 0.700063 0.203223
H7    H     H_    0.461112 0.887813 0.828816 0.209594
H8    H     H_    0.330756 0.112149 0.699869 0.198565
H9    H     H_    0.460973 0.112074 0.828879 0.206920
H10   H     H_    0.628449 0.650044 0.126923 0.153429
H11   H     H_    0.107152 0.295921 0.523412 0.170600
H12   H     H_    0.628262 0.650238 0.874061 0.155954
H13   H     H_    0.245126 0.464645 0.876357 0.216443
H14   H     H_    0.276486 0.291828 0.877630 0.196234
H15   H     H_    0.245404 0.467077 0.117724 0.214098
H16   H     H_    0.274904 0.293711 0.120593 0.200338
H17   H     H_    0.892394 0.296758 0.519930 0.185374
H18   H     H_    0.892606 0.379057 0.678711 0.184839
H19   H     H_    0.110271 0.623731 0.677399 0.157297
H20   H     H_    0.898248 0.616371 0.682527 0.137042
H21   H     H_    0.105846 0.582456 0.294413 0.186666
H22   H     H_    0.103674 0.413410 0.297655 0.176516
H23   H     H_    0.893263 0.415590 0.296482 0.174483
N1    N     N_R   0.499150 0.499140 0.142800 -0.108703
N2    N     N_R   0.499150 0.499180 0.857150 -0.107676
O1    O     O_R   0.500020 0.316790 0.614690 -0.615487
O2    O     O_R   0.500000 0.316760 0.385350 -0.624561
O3    O     O_R   0.314800 0.500000 0.614670 -0.629523
O4    O     O_R   0.314790 0.499960 0.385330 -0.627003
O5    O     O_R   0.500000 0.683240 0.614650 -0.613822
O6    O     O_R   0.499980 0.683210 0.385310 -0.621501
O7    O     O_R   0.685210 0.500040 0.614670 -0.628287
O8    O     O_R   0.685200 0.500000 0.385330 -0.621662
Zn1   Zn    Zn3+2 0.500010 0.500020 0.653130 0.943683
Zn2   Zn    Zn3+2 0.499990 0.499980 0.346870 0.943118
Br1   Br    Br    0.862856 0.776566 0.500645 -0.602178

loop_
_geom_bond_atom_site_label_1
_geom_bond_atom_site_label_2
_ccdc_geom_bond_type
C2    C4    S    
C18   H13   S    
C16   N2    A    
O6    Zn2   S    
C6    C7    A    
O1    Zn1   S    
C9    C10   A    
C25   H21   S    
C3    H20   S    
C5    C13   S    
C25   H22   S    
C19   H16   S    
C4    H23   S    
C20   O5    A    
C21   O7    A    
C17   N2    A    
C2    C21   S    
C17   C18   S    
C20   O6    A    
C5    C10   A    
C7    H4    S    
O3    Zn1   S    
C1    O2    A    
C11   C13   S    
C14   C17   A    
C3    C24   S    
C14   N1    A    
C24   H19   S    
O4    Zn2   S    
C4    H2    S    
C24   C26   S    
C11   H6    S    
C4    C25   S    
C2    C3    S    
C22   H1    S    
C5    C6    A    
C1    O1    A    
O8    Zn2   S    
C12   O4    A    
C7    C8    A    
C10   C11   S    
C23   H18   S    
O7    Zn1   S    
C15   C16   A    
C21   O8    A    
C19   H15   S    
C15   H10   S    
C11   H7    S    
C23   H17   S    
C3    Br1   S    
C18   C19   S    
C22   C26   S    
C15   N1    A    
C16   H12   S    
C2    C23   S    
N1    Zn2   S    
C18   H14   S    
C22   C23   S    
C13   H8    S    
N2    Zn1   S    
C9    C20   S    
C25   C26   S    
C24   H3    S    
C22   H11   S    
O2    Zn2   S    
C14   C19   S    
C13   H9    S    
C12   O3    A    
C8    H5    S    
O5    Zn1   S    
C12   C26   S    
C8    C9    A    
C1    C6    S    
