data_mof_unit_66664.cif
_audit_creation_date              2013-03-05T15:40:42-0500
_audit_creation_method            fapswitch 2.2
_symmetry_space_group_name_H-M    P1
_symmetry_Int_Tables_number       1
_space_group_crystal_system       triclinic
_cell_length_a                    7.845667
_cell_length_b                    8.50622
_cell_length_c                    12.068741
_cell_angle_alpha                 92.196206
_cell_angle_beta                  101.098312
_cell_angle_gamma                 93.988439
_cell_volume                      787.353299242

loop_
_atom_site_label
_atom_site_type_symbol
_atom_site_description
_atom_site_fract_x
_atom_site_fract_y
_atom_site_fract_z
_atom_type_partial_charge
O1    O     O_R   0.893060 0.738880 0.507150 -0.576437
O2    O     O_R   0.172250 0.711130 0.488470 -0.546378
C1    C     C_R   0.037256 0.792429 0.483162 0.932183
O3    O     O_R   0.944700 0.520730 0.667600 -0.606319
O4    O     O_R   0.223890 0.492980 0.648920 -0.569142
C2    C     C_R   0.106495 0.506762 0.710643 0.946842
Zn1   Zn    Zn3+2 0.813580 0.518530 0.512470 1.092475
Zn2   Zn    Zn3+2 0.186420 0.481470 0.487530 1.086896
O5    O     O_R   0.827750 0.288870 0.511530 -0.580553
O6    O     O_R   0.106940 0.261120 0.492850 -0.573976
O7    O     O_R   0.776110 0.507020 0.351080 -0.629783
O8    O     O_R   0.055300 0.479270 0.332400 -0.628576
C3    C     C_R   0.950028 0.205363 0.489392 0.911646
C4    C     C_R   0.893476 0.492237 0.289455 0.838764
C5    C     C_R   0.837815 0.342220 0.990405 -0.103981
H1    H     H_    0.048063 0.346752 0.133058 0.176191
H2    H     H_    0.899872 0.260816 0.942919 0.196483
C6    C     C_R   0.838142 0.481187 0.167825 -0.049108
C7    C     C_R   0.098794 0.648617 0.888246 -0.216617
C8    C     C_R   0.206735 0.736880 0.976542 -0.114057
C9    C     C_R   0.379507 0.702323 0.010320 0.294591
C10   C     C_R   0.436034 0.558935 0.969242 -0.022981
C11   C     C_R   0.324351 0.467938 0.880750 -0.070374
C12   C     C_R   0.599315 0.503047 0.011879 0.048215
C13   C     C_R   0.667056 0.384178 0.950632 0.018213
C14   C     C_R   0.555178 0.296042 0.861719 0.244859
C15   C     C_R   0.379161 0.326845 0.836630 0.220320
C16   C     C_R   0.682824 0.543184 0.122480 -0.147227
C17   C     C_R   0.923914 0.391836 0.099180 -0.174824
C18   C     C_R   0.165254 0.526693 0.832457 -0.087491
H3    H     H_    0.616751 0.607173 0.178482 0.202646
H4    H     H_    0.973959 0.691441 0.852888 0.204228
H5    H     H_    0.161872 0.843481 0.009299 0.197281
C19   C     C_2   0.044337 0.951209 0.449501 0.002807
C20   C     C_2   0.912235 0.040922 0.461871 0.015815
N1    N     N_2   0.434800 0.456690 0.470850 -0.095420
H6    H     H_    0.469476 0.374921 0.415823 0.195354
N2    N     N_2   0.565200 0.543310 0.529150 0.071004
N3    N     N_R   0.734289 0.976545 0.451148 0.236386
O9    O     O_R   0.661346 0.885375 0.363295 -0.330659
O10   O     O_R   0.640280 0.020866 0.522721 -0.261265
Br1   Br    Br    0.526424 0.698445 0.634398 -0.216631
Br2   Br    Br    0.633227 0.118405 0.786155 -0.326496
Br3   Br    Br    0.534419 0.876062 0.086318 -0.427461
Br4   Br    Br    0.210953 0.162991 0.758075 -0.437346
Br5   Br    Br    0.244494 0.019482 0.385910 -0.340097

loop_
_geom_bond_atom_site_label_1
_geom_bond_atom_site_label_2
_geom_bond_distance
_ccdc_geom_bond_type
O4    Zn2   1.910697 S    
C20   N3    1.443737 S    
C5    C17   1.390784 A    
C19   Br5   1.939989 S    
C11   C15   1.421207 A    
C9    Br3   1.928621 S    
C4    C6    1.445867 S    
C7    C8    1.385367 A    
Zn2   O8    1.953715 S    
C15   Br4   1.934997 S    
N1    N2    1.289538 D    
O2    C1    1.297397 A    
H1    C17   1.083346 S    
N3    O10   1.300491 A    
C6    C17   1.397983 A    
O1    Zn1   1.941181 S    
C9    C10   1.429568 A    
C8    C9    1.393508 A    
Zn1   O7    1.910699 S    
C14   C15   1.401019 A    
O3    Zn1   1.953714 S    
C8    H5    1.083007 S    
O3    C2    1.291191 A    
N1    H6    1.029223 S    
C2    C18   1.453165 S    
Zn1   N2    2.021713 S    
O8    C4    1.289667 A    
C14   Br2   1.930777 S    
N2    Br1   1.877101 S    
C16   H3    1.080618 S    
O4    C2    1.299782 A    
O7    C4    1.299786 A    
C10   C12   1.407680 A    
C5    C13   1.408797 A    
C7    H4    1.083826 S    
C11   C18   1.405898 A    
C6    C16   1.384667 A    
C12   C13   1.421236 A    
Zn2   O6    1.941182 S    
C19   C20   1.356355 D    
Zn2   N1    2.021713 S    
N3    O9    1.301825 A    
Zn1   O5    1.964128 S    
O5    C3    1.294309 A    
C10   C11   1.410510 A    
C1    C19   1.425692 S    
C13   C14   1.402921 A    
C5    H2    1.081140 S    
C7    C18   1.399169 A    
C3    C20   1.422528 S    
O2    Zn2   1.964128 S    
C12   C16   1.387383 A    
O1    C1    1.278935 A    
O6    C3    1.280514 A    
