data_mof_unit_58585.cif
_audit_creation_date              2012-12-10T16:53:08-0500
_audit_creation_method            fapswitch 2.2
_symmetry_space_group_name_H-M    P1
_symmetry_Int_Tables_number       1
_space_group_crystal_system       triclinic
_cell_length_a                    10.786502
_cell_length_b                    10.957733
_cell_length_c                    9.804681
_cell_angle_alpha                 88.344237
_cell_angle_beta                  91.680986
_cell_angle_gamma                 91.576287
_cell_volume                      1157.47559339

loop_
_atom_site_label
_atom_site_type_symbol
_atom_type_description
_atom_site_fract_x
_atom_site_fract_y
_atom_site_fract_z
_atom_type_partial_charge
C1    C     C_R   0.502341 0.266466 0.501530 0.829340
C2    C     C_R   0.075101 0.616760 0.524176 0.082850
C3    C     C_R   0.129636 0.506946 0.491508 -0.066802
C4    C     C_R   0.056851 0.404041 0.460991 -0.220046
C5    C     C_R   0.928980 0.409348 0.465048 -0.179568
C6    C     C_R   0.872979 0.513156 0.512832 -0.107364
C7    C     C_2   0.435561 0.941781 0.402008 0.186348
C8    C     C_2   0.469677 0.864860 0.504750 -0.420488
C9    C     C_2   0.425903 0.071635 0.433817 -0.167212
C10   C     C_2   0.514411 0.135904 0.502702 0.025911
C11   C     C_2   0.446804 0.414742 0.925452 0.238695
C12   C     C_R   0.262900 0.497183 0.497754 0.761059
C13   C     C_2   0.473205 0.406201 0.076828 -0.031148
C14   C     C_R   0.491064 0.733913 0.498768 0.819884
C15   C     C_R   0.737553 0.511524 0.502936 0.805835
C16   C     C_R   0.145203 0.727166 0.524809 -0.166110
C17   C     C_R   0.093267 0.834030 0.565280 -0.193101
C18   C     C_R   0.976664 0.829201 0.621215 -0.148939
C19   C     C_R   0.907267 0.718463 0.628877 0.141329
C20   C     C_R   0.948126 0.615880 0.556482 0.024327
Cu1   Cu    Cu3+1 0.500020 0.500020 0.638630 0.927451
Cu2   Cu    Cu3+1 0.499980 0.499980 0.361370 0.929698
H1    H     H_    0.099100 0.320267 0.432315 0.129670
H2    H     H_    0.576251 0.541830 0.886840 0.197594
H3    H     H_    0.461925 0.316952 0.126243 0.139348
H4    H     H_    0.239303 0.731798 0.490513 0.127916
H5    H     H_    0.147465 0.918703 0.563672 0.146507
H6    H     H_    0.945997 0.909706 0.670635 0.149948
H7    H     H_    0.873145 0.330545 0.434125 0.141698
H8    H     H_    0.475254 0.899907 0.607309 0.169292
H9    H     H_    0.346135 0.119488 0.390992 0.120701
N1    N     N_2   0.498640 0.498660 0.846910 -0.290839
N2    N     N_2   0.498610 0.498630 0.153040 -0.150826
O1    O     O_R   0.500020 0.321960 0.617040 -0.574848
O2    O     O_R   0.499980 0.321920 0.382900 -0.590512
O3    O     O_R   0.319670 0.500020 0.617100 -0.574325
O4    O     O_R   0.319630 0.499980 0.382950 -0.586307
O5    O     O_R   0.500020 0.678080 0.617100 -0.570145
O6    O     O_R   0.499980 0.678040 0.382960 -0.598650
O7    O     O_R   0.680370 0.500020 0.617050 -0.586295
O8    O     O_R   0.680330 0.499980 0.382900 -0.555628
C21   C     C_3   0.635987 0.085774 0.556886 -0.877402
H10   H     H_    0.706329 0.160692 0.571240 0.220075
H11   H     H_    0.623109 0.040390 0.658108 0.232616
H12   H     H_    0.674313 0.021648 0.484321 0.245021
C22   C     C_3   0.357497 0.318496 0.871728 -0.771302
H13   H     H_    0.271773 0.317487 0.931824 0.192861
H14   H     H_    0.328783 0.332464 0.764452 0.274221
H15   H     H_    0.400111 0.227572 0.883846 0.201469
C23   C     C_3   0.484500 0.623541 0.100206 -0.105526
C24   C     C_3   0.610948 0.691236 0.097333 -0.841873
H16   H     H_    0.601254 0.781176 0.043747 0.209650
H17   H     H_    0.648700 0.706463 0.201871 0.274531
H18   H     H_    0.680665 0.638617 0.044723 0.230209
H19   H     H_    0.432496 0.634042 0.002272 0.136578
H20   H     H_    0.420311 0.669063 0.165355 0.190218
C25   C     C_3   0.825146 0.705402 0.751242 -0.396616
C26   C     C_3   0.722557 0.798560 0.746583 -0.822591
H21   H     H_    0.756590 0.885098 0.792588 0.227115
H22   H     H_    0.692899 0.819121 0.639670 0.257427
H23   H     H_    0.642471 0.763349 0.805496 0.260410
H24   H     H_    0.788917 0.612000 0.769593 0.224087
H25   H     H_    0.883888 0.722249 0.844336 0.194065
C27   C     C_3   0.403165 0.898990 0.259692 -0.355095
C28   C     C_3   0.356407 0.997422 0.158354 -0.886574
H26   H     H_    0.266221 0.031971 0.190351 0.250045
H27   H     H_    0.425494 0.074112 0.149429 0.256878
H28   H     H_    0.342060 0.957407 0.056120 0.243445
H29   H     H_    0.488611 0.863799 0.218194 0.223897
H30   H     H_    0.330188 0.825749 0.266426 0.195914

loop_
_geom_bond_atom_site_label_1
_geom_bond_atom_site_label_2
_ccdc_geom_bond_type
C11   N1    D    
H2    N1    S    
C13   N2    D    
C24   H16   S    
C27   H30   S    
C2    C16   A    
C12   O3    A    
C6    C20   A    
C9    C10   D    
C23   H19   S    
Cu1   O1    S    
C28   H28   S    
C8    H8    S    
C27   C28   S    
C24   H18   S    
C26   H23   S    
C2    C3    A    
C14   O6    A    
C25   H24   S    
Cu1   O3    S    
Cu1   Cu2   S    
C19   C25   S    
Cu2   O2    S    
C11   C13   S    
C22   H15   S    
C13   H3    S    
C25   C26   S    
C16   C17   A    
Cu1   O7    S    
C21   H11   S    
Cu2   O6    S    
C28   H27   S    
C1    O1    A    
C25   H25   S    
C5    H7    S    
C16   H4    S    
C5    C6    A    
C7    C27   S    
Cu1   N1    S    
C22   H14   S    
C15   O7    A    
C26   H21   S    
Cu2   O8    S    
C10   C21   S    
C21   H10   S    
C9    H9    S    
C26   H22   S    
C14   O5    A    
C17   H5    S    
C7    C8    D    
C18   H6    S    
C15   O8    A    
C17   C18   A    
C28   H26   S    
C1    C10   S    
C12   O4    A    
C7    C9    S    
Cu2   N2    S    
C22   H13   S    
C18   C19   A    
C11   C22   S    
C8    C14   S    
C3    C12   S    
N2    C23   S    
C1    O2    A    
C23   C24   S    
C6    C15   S    
C27   H29   S    
Cu2   O4    S    
C2    C20   A    
C21   H12   S    
C4    H1    S    
C23   H20   S    
Cu1   O5    S    
C19   C20   A    
C4    C5    A    
C24   H17   S    
C3    C4    A    
