data_mof_unit_17786.cif
_audit_creation_date              2012-12-10T17:11:28-0500
_audit_creation_method            fapswitch 2.2
_symmetry_space_group_name_H-M    P1
_symmetry_Int_Tables_number       1
_space_group_crystal_system       triclinic
_cell_length_a                    15.066654
_cell_length_b                    13.011384
_cell_length_c                    11.657647
_cell_angle_alpha                 100.580214
_cell_angle_beta                  93.312877
_cell_angle_gamma                 90.22979
_cell_volume                      2242.48537616

loop_
_atom_site_label
_atom_site_type_symbol
_atom_type_description
_atom_site_fract_x
_atom_site_fract_y
_atom_site_fract_z
_atom_type_partial_charge
C1    C     C_R   0.500212 0.298694 0.477454 0.897271
C2    C     C_R   0.499676 0.701282 0.522521 0.899486
C3    C     C_R   0.037611 0.313881 0.394664 0.399251
C4    C     C_R   0.962267 0.668195 0.633359 0.418918
C5    C     C_R   0.497888 0.815396 0.537210 -0.102158
C6    C     C_R   0.502051 0.184541 0.462674 -0.105535
C7    C     C_R   0.518085 0.011126 0.346727 -0.203184
C8    C     C_R   0.481753 0.988777 0.653066 -0.183084
C9    C     C_R   0.515703 0.119007 0.353805 0.426876
C10   C     C_R   0.483527 0.880883 0.645847 0.413589
C11   C     C_R   0.490749 0.139962 0.561581 -0.249949
C12   C     C_R   0.509790 0.859971 0.438419 -0.254030
C13   C     C_R   0.493276 0.032348 0.553981 0.097532
C14   C     C_R   0.507173 0.967581 0.445970 0.108296
C15   C     C_R   0.412621 0.405134 0.021520 0.365674
C16   C     C_R   0.584703 0.597728 0.978646 0.364059
C17   C     C_R   0.423253 0.412603 0.144195 0.051207
C18   C     C_R   0.577148 0.586908 0.855848 0.067743
C19   C     C_R   0.536452 0.541597 0.157459 0.060940
C20   C     C_R   0.462489 0.459603 0.842663 0.065866
C21   C     C_R   0.530480 0.535569 0.034507 -0.109230
C22   C     C_R   0.468140 0.465844 0.965708 -0.088285
C23   C     C_R   0.329028 0.498952 0.500713 0.945792
C24   C     C_R   0.670860 0.499858 0.499225 0.946332
C25   C     C_R   0.815429 0.589059 0.554587 0.307140
C26   C     C_R   0.184987 0.406185 0.444611 0.291685
C27   C     C_R   0.767051 0.499838 0.498482 -0.222667
C28   C     C_R   0.232679 0.495753 0.502586 -0.229219
C29   C     C_R   0.809308 0.409286 0.446342 0.288341
C30   C     C_R   0.189972 0.582034 0.563984 0.282918
C31   C     C_R   0.902411 0.407705 0.448223 -0.008551
C32   C     C_R   0.097245 0.580705 0.566752 -0.013985
C33   C     C_R   0.952940 0.495555 0.506981 -0.052551
C34   C     C_R   0.047121 0.492777 0.506943 -0.051508
C35   C     C_R   0.909445 0.585899 0.565752 -0.038211
C36   C     C_R   0.090808 0.402606 0.447538 -0.042519
C37   C     C_R   0.945689 0.318517 0.394573 -0.164222
C38   C     C_R   0.054023 0.665436 0.630765 -0.162825
Cu1   Cu    Cu3+1 0.506660 0.507730 0.615930 1.035385
Cu2   Cu    Cu3+1 0.493340 0.492270 0.384070 1.037069
H1    H     H_    0.908195 0.249622 0.351911 0.236882
H2    H     H_    0.091382 0.730529 0.682735 0.236982
H3    H     H_    0.521192 0.810914 0.354885 0.158423
H4    H     H_    0.479588 0.189016 0.645189 0.179421
H5    H     H_    0.528618 0.961213 0.263494 0.150117
H6    H     H_    0.470600 0.038633 0.736158 0.182954
H7    H     H_    0.414860 0.406864 0.788316 0.173116
H8    H     H_    0.583601 0.594987 0.211803 0.169944
H9    H     H_    0.620020 0.632683 0.812741 0.170668
H10   H     H_    0.382943 0.363960 0.187168 0.179515
N1    N     N_R   0.516670 0.519360 0.790130 -0.221786
N2    N     N_R   0.483330 0.480640 0.209870 -0.217040
O1    O     O_R   0.504720 0.354460 0.582000 -0.614790
O2    O     O_R   0.495280 0.645540 0.418000 -0.618899
O3    O     O_R   0.493480 0.341410 0.386200 -0.514124
O4    O     O_R   0.506520 0.658590 0.613800 -0.521505
O5    O     O_R   0.375880 0.506510 0.597910 -0.561500
O6    O     O_R   0.624120 0.493490 0.402090 -0.552982
O7    O     O_R   0.364640 0.493450 0.402110 -0.577762
O8    O     O_R   0.635360 0.506550 0.597890 -0.579524
Cl1   Cl    Cl    0.754339 0.705503 0.594319 -0.553401
Cl2   Cl    Cl    0.248278 0.302902 0.369423 -0.577598
O9    O     O_3   0.352712 0.333906 0.955187 -0.607688
C39   C     C_3   0.264336 0.357517 0.985508 0.010855
H11   H     H_    0.226546 0.374821 0.906721 0.181999
H12   H     H_    0.257871 0.427448 0.056111 0.134141
C40   C     C_3   0.221646 0.262268 0.021296 -0.293485
H13   H     H_    0.221540 0.194926 0.947204 0.246579
H14   H     H_    0.261126 0.240858 0.096657 0.267268
C41   C     C_3   0.126295 0.283996 0.055343 -0.760326
H15   H     H_    0.125266 0.347776 0.133018 0.266525
H16   H     H_    0.096423 0.212407 0.077160 0.300279
H17   H     H_    0.085626 0.306589 0.981633 0.245119
O10   O     O_3   0.648378 0.664880 0.042659 -0.598303
C42   C     C_3   0.615155 0.767882 0.065983 0.007559
H18   H     H_    0.626934 0.798062 0.161257 0.168457
H19   H     H_    0.542022 0.773729 0.045735 0.156876
C43   C     C_3   0.666006 0.837635 0.999024 -0.306617
H20   H     H_    0.738613 0.831822 0.019447 0.261593
H21   H     H_    0.652439 0.810805 0.903534 0.252912
C44   C     C_3   0.638965 0.951695 0.031377 -0.735068
H22   H     H_    0.566399 0.959525 0.012703 0.285429
H23   H     H_    0.675246 0.999625 0.979172 0.276231
H24   H     H_    0.655941 0.981816 0.125593 0.270493
Cl3   Cl    Cl    0.743739 0.297741 0.380386 -0.571456
Cl4   Cl    Cl    0.254155 0.694224 0.631918 -0.558140
Cl5   Cl    Cl    0.076598 0.189811 0.331074 -0.500025
Cl6   Cl    Cl    0.922125 0.772426 0.735546 -0.484694
Cl7   Cl    Cl    0.464344 0.834074 0.775212 -0.577545
Cl8   Cl    Cl    0.532291 0.165746 0.223680 -0.555736

loop_
_geom_bond_atom_site_label_1
_geom_bond_atom_site_label_2
_ccdc_geom_bond_type
Cu1   N1    S    
C16   C21   A    
C27   C29   A    
C24   C27   S    
C6    C9    A    
C44   H22   S    
C23   O7    A    
C8    C13   A    
C16   O10   S    
C7    H5    S    
C19   C21   A    
C38   H2    S    
C20   N1    A    
C43   H21   S    
Cu1   O5    S    
C7    C9    A    
C1    O1    A    
C19   N2    A    
C15   C22   A    
C10   Cl7   S    
C31   C33   A    
C41   H15   S    
C32   C38   A    
C30   Cl4   S    
C29   Cl3   S    
C4    C35   A    
C24   O6    A    
Cu2   O7    S    
C21   C22   A    
C37   H1    S    
C17   N2    A    
C44   H23   S    
C18   N1    A    
C7    C14   A    
Cu2   O6    S    
O10   C42   S    
C3    Cl5   S    
C40   H13   S    
C39   C40   S    
C5    C12   A    
C2    O2    A    
C6    C11   A    
C43   H20   S    
Cu2   N2    S    
C1    C6    S    
C40   H14   S    
C39   H12   S    
C9    Cl8   S    
C42   H18   S    
Cu1   O4    S    
C24   O8    A    
Cu2   O3    S    
C41   H17   S    
C33   C34   A    
C11   H4    S    
C25   Cl1   S    
C23   C28   S    
C42   H19   S    
C25   C35   A    
C8    C10   A    
C12   C14   A    
Cu2   O2    S    
C2    C5    S    
C25   C27   A    
C20   C22   A    
Cu1   Cu2   S    
C44   H24   S    
C26   C36   A    
C23   O5    A    
C19   H8    S    
C4    C38   A    
C17   H10   S    
C15   C17   A    
C4    Cl6   S    
C12   H3    S    
C26   C28   A    
C40   C41   S    
C39   H11   S    
C28   C30   A    
C26   Cl2   S    
C5    C10   A    
C29   C31   A    
C2    O4    A    
C30   C32   A    
C11   C13   A    
C43   C44   S    
Cu1   O1    S    
C3    C36   A    
Cu1   O8    S    
C33   C35   A    
C34   C36   A    
C1    O3    A    
C42   C43   S    
C8    H6    S    
C20   H7    S    
O9    C39   S    
C31   C37   A    
C3    C37   A    
C16   C18   A    
C15   O9    S    
C41   H16   S    
C13   C14   A    
C18   H9    S    
C32   C34   A    
