data_mof_unit_28047.cif
_audit_creation_date              2013-03-05T16:33:48-0500
_audit_creation_method            fapswitch 2.2
_symmetry_space_group_name_H-M    P1
_symmetry_Int_Tables_number       1
_space_group_crystal_system       triclinic
_cell_length_a                    15.953459
_cell_length_b                    10.822225
_cell_length_c                    9.633935
_cell_angle_alpha                 89.131089
_cell_angle_beta                  89.273579
_cell_angle_gamma                 90.616325
_cell_volume                      1662.89274686

loop_
_atom_site_label
_atom_site_type_symbol
_atom_site_description
_atom_site_fract_x
_atom_site_fract_y
_atom_site_fract_z
_atom_type_partial_charge
O1    O     O_R   0.500000 0.319640 0.618810 -0.589672
O2    O     O_R   0.500010 0.319680 0.381230 -0.543158
C1    C     C_R   0.502047 0.262913 0.500906 0.859362
O3    O     O_R   0.380300 0.499950 0.618760 -0.532464
O4    O     O_R   0.380310 0.499990 0.381180 -0.551007
C2    C     C_R   0.341510 0.498515 0.500737 0.825678
Cu1   Cu    Cu3+1 0.500000 0.499980 0.640670 0.954395
Cu2   Cu    Cu3+1 0.500000 0.500020 0.359330 0.986450
O5    O     O_R   0.499990 0.680320 0.618770 -0.587720
O6    O     O_R   0.500000 0.680360 0.381190 -0.560072
O7    O     O_R   0.619690 0.500010 0.618820 -0.587072
O8    O     O_R   0.619700 0.500050 0.381240 -0.542180
C3    C     C_R   0.501952 0.737473 0.499318 0.828637
C4    C     C_R   0.658486 0.499320 0.499260 0.823062
C5    C     C_R   0.953888 0.490071 0.621641 -0.326511
H1    H     H_    0.918254 0.499260 0.717490 0.155701
C6    C     C_R   0.912180 0.479737 0.495814 0.041323
C7    C     C_R   0.957226 0.465086 0.370682 0.205915
C8    C     C_R   0.045868 0.468238 0.372462 0.153088
C9    C     C_R   0.087308 0.480229 0.500206 0.035052
C10   C     C_R   0.041335 0.487913 0.625416 0.229273
C11   C     C_1   0.822579 0.487470 0.496524 0.009222
C12   C     C_1   0.177241 0.486619 0.502212 0.037564
C13   C     C_1   0.252351 0.492554 0.502299 -0.170619
C14   C     C_1   0.747572 0.493739 0.497551 -0.163513
C15   C     C_R   0.480337 0.061633 0.616955 0.014630
C16   C     C_R   0.511109 0.130198 0.503515 -0.139252
C17   C     C_R   0.554992 0.068903 0.397122 0.083485
C18   C     C_R   0.554408 0.938211 0.395863 0.097116
C19   C     C_R   0.509735 0.871204 0.500326 -0.104628
C20   C     C_R   0.479151 0.934606 0.614727 -0.015985
C21   C     C_3   0.396895 0.923018 0.690379 -0.483405
C22   C     C_3   0.397600 0.064276 0.693361 0.344828
H2    H     H_    0.347009 0.881978 0.625263 0.163699
H3    H     H_    0.403773 0.877991 0.794054 0.190229
C23   C     C_R   0.572751 0.515988 0.070792 0.131679
N1    N     N_R   0.500520 0.500930 0.147930 -0.220288
C24   C     C_R   0.431827 0.460272 0.077082 0.271070
C25   C     C_R   0.428969 0.472653 0.929647 0.257278
N2    N     N_R   0.500520 0.500890 0.852020 -0.203261
C26   C     C_R   0.572922 0.513902 0.924260 0.137222
C27   C     C_3   0.633204 0.619567 0.911977 -0.514321
C28   C     C_3   0.632445 0.623139 0.070120 0.049813
H4    H     H_    0.693912 0.591203 0.865021 0.202703
H5    H     H_    0.604999 0.702717 0.862957 0.193377
H6    H     H_    0.604144 0.707044 0.113433 0.176160
N3    N     N_2   0.082702 0.495688 0.755221 -0.433835
H7    H     H_    0.050309 0.545486 0.828565 0.248083
C29   C     C_3   0.110106 0.377914 0.810328 -0.708945
H8    H     H_    0.055160 0.316368 0.832426 0.225041
H9    H     H_    0.144309 0.392402 0.908452 0.223387
H10   H     H_    0.153227 0.332465 0.735984 0.245872
N4    N     N_3   0.403609 0.113959 0.833624 -0.589939
H11   H     H_    0.455709 0.076896 0.883724 0.199081
H12   H     H_    0.414228 0.209216 0.824913 0.245153
N5    N     N_2   0.363700 0.402780 0.150127 -0.378229
H13   H     H_    0.305236 0.438153 0.130701 0.247263
C30   C     C_3   0.365100 0.269106 0.155915 -0.653264
H14   H     H_    0.330460 0.230515 0.066924 0.203568
H15   H     H_    0.334068 0.236249 0.253715 0.231386
H16   H     H_    0.430326 0.233876 0.153816 0.236651
N6    N     N_2   0.349461 0.466831 0.866224 -0.377429
H17   H     H_    0.312604 0.391796 0.895085 0.237409
C31   C     C_3   0.304818 0.582782 0.869769 -0.673818
H18   H     H_    0.290424 0.609183 0.978273 0.187267
H19   H     H_    0.245322 0.573834 0.812362 0.251797
H20   H     H_    0.343040 0.657640 0.819277 0.242059
N7    N     N_2   0.712469 0.591227 0.130614 -0.365163
H21   H     H_    0.734836 0.505157 0.105384 0.268003
C32   C     C_3   0.776004 0.687475 0.122634 -0.674238
H22   H     H_    0.827808 0.664210 0.193768 0.241929
H23   H     H_    0.749902 0.777407 0.154494 0.222370
H24   H     H_    0.801504 0.696174 0.015060 0.208953
N8    N     N_2   0.913054 0.451965 0.243860 -0.432246
H25   H     H_    0.941507 0.492805 0.157941 0.252120
C33   C     C_3   0.882988 0.327959 0.218032 -0.708581
H26   H     H_    0.846253 0.327670 0.120910 0.219261
H27   H     H_    0.841509 0.294460 0.304411 0.242904
H28   H     H_    0.936621 0.264133 0.206219 0.215351
N9    N     N_2   0.093768 0.456080 0.247513 -0.425667
H29   H     H_    0.069080 0.394947 0.177487 0.257094
C34   C     C_3   0.119998 0.572197 0.183521 -0.725928
H30   H     H_    0.064605 0.626831 0.152194 0.215971
H31   H     H_    0.158527 0.553924 0.089663 0.223837
H32   H     H_    0.158520 0.626919 0.256106 0.242096
N10   N     N_3   0.599138 0.139213 0.291194 -0.578531
H33   H     H_    0.574449 0.117358 0.194537 0.208660
H34   H     H_    0.662426 0.115365 0.292481 0.207156
N11   N     N_3   0.598962 0.874050 0.289929 -0.589721
H35   H     H_    0.576497 0.903210 0.193516 0.201497
H36   H     H_    0.662337 0.898421 0.295770 0.205920
N12   N     N_3   0.330323 0.122103 0.613790 -0.586838
H37   H     H_    0.273329 0.100578 0.663767 0.225818
H38   H     H_    0.327771 0.083928 0.514716 0.196533

loop_
_geom_bond_atom_site_label_1
_geom_bond_atom_site_label_2
_geom_bond_distance
_ccdc_geom_bond_type
C26   C27   1.488588 S    
C8    C9    1.411418 A    
C33   H28   1.111208 S    
C18   N11   1.429208 S    
Cu1   Cu2   2.710405 S    
N3    C29   1.447369 S    
N4    H11   1.046990 S    
Cu1   O7    1.918379 S    
C15   C16   1.392816 A    
N6    H17   1.030136 S    
N8    C33   1.446479 S    
C17   C18   1.414545 A    
N1    C24   1.370460 A    
C33   H27   1.110654 S    
C19   C20   1.392862 A    
O7    C4    1.300818 A    
N10   H34   1.044999 S    
C30   H15   1.110634 S    
C5    H1    1.084630 S    
N5    H13   1.030272 S    
C5    C6    1.395583 A    
C7    C8    1.414512 A    
O5    C3    1.298054 A    
N6    C31   1.450160 S    
C20   C21   1.496127 S    
C28   N7    1.452936 S    
C29   H9    1.109814 S    
C11   C14   1.199193 T    
Cu1   N2    2.036427 S    
C32   H22   1.108900 S    
N11   H36   1.044548 S    
C30   H16   1.112121 S    
C15   C20   1.375137 A    
C7    N8    1.426355 S    
C23   C26   1.412168 A    
C27   H4    1.111925 S    
O3    Cu1   1.923916 S    
N4    H12   1.044857 S    
C22   N4    1.465771 S    
C24   C25   1.426011 A    
N8    H25   1.030347 S    
C31   H20   1.111162 S    
C3    C19   1.451445 S    
C33   H26   1.110356 S    
N9    C34   1.446717 S    
C22   N12   1.466989 S    
C25   N2    1.385486 A    
N10   H33   1.045062 S    
N7    H21   1.032409 S    
C30   H14   1.110292 S    
O1    C1    1.299544 A    
C27   H5    1.111959 S    
C31   H19   1.108664 S    
C21   H3    1.111869 S    
C18   C19   1.412508 A    
C15   C22   1.503896 S    
N3    H7    1.032021 S    
C9    C12   1.436056 S    
Cu2   O8    1.923913 S    
C29   H10   1.110689 S    
C2    C13   1.423039 S    
C32   H24   1.110822 S    
N12   H38   1.046876 S    
C6    C7    1.407525 A    
O3    C2    1.301607 A    
N2    C26   1.363168 A    
O8    C4    1.301295 A    
C29   H8    1.111655 S    
C34   H31   1.108369 S    
C17   N10   1.436354 S    
Cu2   N1    2.036401 S    
Cu1   O5    1.959870 S    
C25   N6    1.416092 S    
C23   N1    1.370136 A    
O1    Cu1   1.966182 S    
Cu2   O6    1.966182 S    
O2    Cu2   1.959868 S    
N9    H29   1.030839 S    
O6    C3    1.303824 A    
O4    Cu2   1.918379 S    
C34   H32   1.110416 S    
C6    C11   1.432731 S    
C31   H18   1.109704 S    
C1    C16   1.444951 S    
O2    C1    1.299101 A    
C21   C22   1.529357 S    
O4    C2    1.300470 A    
N12   H37   1.045828 S    
N5    C30   1.447297 S    
C4    C14   1.423068 S    
C8    N9    1.426159 S    
C28   H6    1.103646 S    
C12   C13   1.199306 T    
C5    C10   1.396456 A    
C24   N5    1.419985 S    
C9    C10   1.407784 A    
N7    C32   1.446078 S    
C34   H30   1.110953 S    
C27   C28   1.524516 S    
C16   C17   1.411796 A    
C23   C28   1.492485 S    
C32   H23   1.108786 S    
N11   H35   1.045349 S    
C21   H2    1.112505 S    
C10   N3    1.424555 S    
