data_mof_unit_65216.cif
_audit_creation_date              2012-10-26T17:15:23-0400
_audit_creation_method            fapswitch 2.2
_symmetry_space_group_name_H-M    P1
_symmetry_Int_Tables_number       1
_space_group_crystal_system       triclinic
_cell_length_a                    22.013438
_cell_length_b                    21.921496
_cell_length_c                    22.269021
_cell_angle_alpha                 60.111163
_cell_angle_beta                  119.167904
_cell_angle_gamma                 90.115714
_cell_volume                      7712.86208654

loop_
_atom_site_label
_atom_site_type_symbol
_atom_type_description
_atom_site_fract_x
_atom_site_fract_y
_atom_site_fract_z
_atom_type_partial_charge
C1    C     C_R   0.612904 0.503940 0.492036 0.557757
C2    C     C_2   0.819604 0.501439 0.508152 0.009505
C3    C     C_2   0.701060 0.563102 0.469658 -0.137410
C4    C     C_R   0.419782 0.580373 0.339630 0.552665
C5    C     C_2   0.666190 0.513235 0.470161 -0.134880
C6    C     C_3   0.709268 0.221456 0.029495 -0.086895
C7    C     C_3   0.697331 0.305261 0.972447 -0.113402
C8    C     C_1   0.625164 0.374357 0.750248 -0.036228
C9    C     C_1   0.875773 0.124957 0.249824 -0.029623
C10   C     C_3   0.721103 0.207855 0.973740 0.051022
C11   C     C_3   0.709227 0.290641 0.917536 0.048196
C12   C     C_3   0.291708 0.709534 0.082666 0.027244
C13   C     C_3   0.804383 0.193494 0.027912 -0.086929
C14   C     C_3   0.792196 0.208305 0.082574 0.042089
C15   C     C_3   0.792105 0.277408 0.970858 -0.112673
C16   C     C_R   0.382944 0.498981 0.501013 0.562340
C17   C     C_3   0.780847 0.291426 0.027031 -0.106326
C18   C     C_1   0.663065 0.336565 0.825700 -0.069289
C19   C     C_1   0.838203 0.162600 0.174355 -0.063243
C20   C     C_2   0.248051 0.487391 0.564337 -0.138038
C21   C     C_2   0.179420 0.522250 0.496338 -0.134455
C22   C     C_2   0.310671 0.501766 0.557133 -0.001693
C23   C     C_3   0.180086 0.752470 0.973533 -0.130484
C24   C     C_2   0.317582 0.493954 0.503378 0.000949
C25   C     C_R   0.001405 0.881178 0.502597 0.556533
C26   C     C_R   0.079848 0.919824 0.660266 0.553625
C27   C     C_R   0.998626 0.118836 0.497265 0.556046
C28   C     C_R   0.580127 0.419618 0.660402 0.552516
C29   C     C_R   0.920134 0.080083 0.339694 0.553598
C30   C     C_R   0.997475 0.617924 0.499427 0.555182
C31   C     C_R   0.882737 0.501011 0.501097 0.555419
C32   C     C_R   0.003236 0.382138 0.500406 0.555757
C33   C     C_R   0.116768 0.505502 0.499391 0.557684
C34   C     C_3   0.208148 0.792200 0.917277 0.046945
C35   C     C_2   0.992108 0.688980 0.554681 -0.163864
C36   C     C_2   0.991066 0.685986 0.495554 -0.120174
C37   C     C_2   0.982023 0.759919 0.546363 -0.161554
C38   C     C_2   0.006406 0.812178 0.508166 -0.115670
C39   C     C_2   0.020273 0.307472 0.451202 -0.013924
C40   C     C_3   0.273637 0.721779 0.972116 0.030022
C41   C     C_2   0.010708 0.314227 0.503486 -0.111423
C42   C     C_2   0.030468 0.233550 0.465042 -0.140513
C43   C     C_2   0.992613 0.189756 0.487950 -0.137664
C44   C     C_3   0.319893 0.749224 0.026433 0.073739
C45   C     C_3   0.226036 0.779957 0.028528 -0.106970
C46   C     C_1   0.374874 0.625652 0.249857 -0.032246
C47   C     C_1   0.124190 0.875151 0.750052 -0.032271
C48   C     C_3   0.246224 0.681286 0.029187 -0.108032
C49   C     C_3   0.401658 0.740627 0.063860 -0.270077
C50   C     C_3   0.417297 0.788296 0.997967 -0.443882
C51   C     C_3   0.686136 0.161446 0.941424 -0.277726
C52   C     C_3   0.708883 0.081110 0.013237 -0.444315
C53   C     C_3   0.369778 0.518385 0.615426 -0.252440
C54   C     C_3   0.358053 0.517397 0.678194 -0.453863
C55   C     C_3   0.297696 0.687791 0.938902 -0.405562
C56   C     C_3   0.253848 0.819797 0.971533 0.053974
C57   C     C_3   0.265242 0.466303 0.453948 -0.401406
C58   C     C_3   0.024621 0.372589 0.383129 -0.242395
C59   C     C_3   0.044071 0.354336 0.335439 -0.459379
C60   C     C_3   0.251703 0.900850 0.934319 -0.274225
C61   C     C_3   0.297381 0.914213 0.001933 -0.444392
C62   C     C_3   0.756634 0.636615 0.387060 -0.253793
C63   C     C_3   0.691171 0.703533 0.340659 -0.454341
C64   C     C_3   0.832136 0.432027 0.587562 -0.269115
C65   C     C_3   0.851238 0.445518 0.654873 -0.424615
C66   C     C_1   0.337234 0.663532 0.174447 -0.070795
C67   C     C_1   0.161826 0.837709 0.825460 -0.066684
C68   C     C_2   0.760514 0.564118 0.456010 -0.003612
Cu1   Cu    Cu3+1 0.500050 0.438990 0.500010 0.922626
Cu2   Cu    Cu3+1 0.499950 0.561010 0.499990 0.911522
Cu3   Cu    Cu3+1 0.061010 0.999870 0.499990 0.926014
Cu4   Cu    Cu3+1 0.938990 0.999980 0.500010 0.931021
Cu5   Cu    Cu3+1 0.958560 0.541440 0.417120 0.896727
Cu6   Cu    Cu3+1 0.041440 0.458560 0.582880 0.911084
H1    H     H_    0.677530 0.477352 0.453956 0.104798
H2    H     H_    0.978335 0.736535 0.438183 0.105288
H3    H     H_    0.958256 0.767331 0.576009 0.143017
H4    H     H_    0.037450 0.801362 0.486789 0.106719
H5    H     H_    0.015956 0.265185 0.557094 0.089561
H6    H     H_    0.067143 0.215948 0.453287 0.152098
H7    H     H_    0.951934 0.208755 0.494349 0.105121
H8    H     H_    0.206908 0.803132 0.052987 0.106570
H9    H     H_    0.122247 0.754243 0.950931 0.110289
H10   H     H_    0.243767 0.623778 0.053859 0.109023
H11   H     H_    0.687646 0.602091 0.481244 0.144514
H12   H     H_    0.653078 0.351689 0.948813 0.104749
H13   H     H_    0.395550 0.776327 0.949832 0.152616
H14   H     H_    0.392988 0.848055 0.967492 0.149238
H15   H     H_    0.477534 0.775892 0.028569 0.134120
H16   H     H_    0.422194 0.755490 0.109668 0.138355
H17   H     H_    0.432183 0.681419 0.098243 0.141327
H18   H     H_    0.769366 0.055394 0.051973 0.150476
H19   H     H_    0.691182 0.078399 0.053221 0.150296
H20   H     H_    0.682570 0.049026 0.987591 0.137655
H21   H     H_    0.625476 0.185878 0.902726 0.144550
H22   H     H_    0.703293 0.162969 0.901459 0.146338
H23   H     H_    0.675655 0.197895 0.054316 0.102005
H24   H     H_    0.304338 0.557969 0.645119 0.162060
H25   H     H_    0.360700 0.460931 0.722295 0.145326
H26   H     H_    0.402077 0.532958 0.715123 0.136856
H27   H     H_    0.424016 0.477030 0.651478 0.150122
H28   H     H_    0.371726 0.574488 0.576993 0.170262
H29   H     H_    0.349869 0.641319 0.991061 0.126711
H30   H     H_    0.254816 0.666456 0.909921 0.132144
H31   H     H_    0.305439 0.730368 0.890781 0.131880
H32   H     H_    0.286980 0.448448 0.427571 0.149472
H33   H     H_    0.255290 0.417672 0.494561 0.135238
H34   H     H_    0.806079 0.325485 0.050097 0.107414
H35   H     H_    0.212723 0.511174 0.399292 0.114239
H36   H     H_    0.100170 0.313973 0.378161 0.146054
H37   H     H_    0.003571 0.331686 0.305524 0.156361
H38   H     H_    0.043028 0.405777 0.285541 0.136316
H39   H     H_    0.970553 0.416920 0.336617 0.170795
H40   H     H_    0.066544 0.395057 0.411683 0.155137
H41   H     H_    0.277458 0.898596 0.043204 0.149451
H42   H     H_    0.356068 0.881689 0.040283 0.151448
H43   H     H_    0.292488 0.973973 0.972074 0.137037
H44   H     H_    0.271518 0.917256 0.892917 0.142142
H45   H     H_    0.825631 0.300993 0.945919 0.104644
H46   H     H_    0.193840 0.936328 0.895322 0.143380
H47   H     H_    0.638733 0.692783 0.311085 0.157135
H48   H     H_    0.694143 0.716321 0.384226 0.148318
H49   H     H_    0.692204 0.752809 0.290651 0.136609
H50   H     H_    0.807492 0.650475 0.414572 0.155445
H51   H     H_    0.753039 0.628969 0.339864 0.167885
H52   H     H_    0.899441 0.465760 0.669090 0.162361
H53   H     H_    0.804354 0.486717 0.634660 0.155171
H54   H     H_    0.864998 0.392728 0.713009 0.132221
H55   H     H_    0.785742 0.409667 0.575355 0.133032
H56   H     H_    0.848573 0.147073 0.051431 0.101477
H57   H     H_    0.878397 0.385360 0.614744 0.153359
H58   H     H_    0.258898 0.446871 0.625495 0.147529
H59   H     H_    0.168597 0.565929 0.436216 0.110263
H60   H     H_    0.996572 0.639811 0.607534 0.140883
O1    O     O_R   0.589060 0.448490 0.499990 -0.508081
O2    O     O_R   0.034920 0.554020 0.569980 -0.503494
O3    O     O_R   0.875990 0.534990 0.430030 -0.519940
O4    O     O_R   0.588980 0.551530 0.499980 -0.507581
O5    O     O_R   0.945970 0.465000 0.570010 -0.512069
O6    O     O_R   0.965080 0.445980 0.430020 -0.510228
O7    O     O_R   0.035060 0.375990 0.570000 -0.505793
O8    O     O_R   0.054030 0.535000 0.429990 -0.513598
O9    O     O_R   0.124010 0.465010 0.569970 -0.505945
O10   O     O_R   0.439580 0.508940 0.379080 -0.507017
O11   O     O_R   0.439510 0.611990 0.379070 -0.504973
O12   O     O_R   0.948460 0.910940 0.500030 -0.503641
O13   O     O_R   0.411020 0.448470 0.500020 -0.510791
O14   O     O_R   0.410940 0.551510 0.500010 -0.520391
O15   O     O_R   0.560490 0.388010 0.620930 -0.502106
O16   O     O_R   0.560420 0.491060 0.620920 -0.507486
O17   O     O_R   0.051510 0.910850 0.500010 -0.508262
O18   O     O_R   0.111980 0.939430 0.620910 -0.504267
O19   O     O_R   0.008930 0.939520 0.620930 -0.505508
O20   O     O_R   0.051540 0.088910 0.499970 -0.508273
O21   O     O_R   0.948490 0.089000 0.499990 -0.506223
O22   O     O_R   0.991070 0.060330 0.379070 -0.505756
O23   O     O_R   0.888020 0.060420 0.379090 -0.503108
O24   O     O_R   0.964940 0.624010 0.430000 -0.513683

loop_
_geom_bond_atom_site_label_1
_geom_bond_atom_site_label_2
_ccdc_geom_bond_type
C44   C49   S    
Cu6   O9    S    
C11   C18   S    
C34   C56   S    
C23   C45   S    
C3    H11   S    
Cu5   Cu6   S    
C3    C68   S    
Cu2   O16   S    
C49   H16   S    
C12   C48   S    
Cu1   O13   S    
C62   H50   S    
C39   C41   D    
C4    C46   S    
C53   C54   S    
C33   O9    A    
Cu1   O10   S    
C42   H6    S    
C62   C63   S    
C23   H9    S    
C55   H31   S    
C16   O13   A    
C1    C5    S    
C65   H53   S    
C35   C37   S    
C49   H17   S    
C46   C66   T    
C2    C68   D    
C7    H12   S    
C21   C33   S    
Cu3   O22   S    
C55   H29   S    
C59   H36   S    
C30   O24   A    
C47   C67   T    
C36   H2    S    
C11   C15   S    
C9    C19   T    
Cu3   O17   S    
C35   C36   D    
C45   C56   S    
C53   H27   S    
C24   C57   S    
C7    C17   S    
Cu6   O2    S    
C61   H41   S    
C58   H39   S    
C59   H37   S    
C13   H56   S    
C52   H20   S    
C25   O12   A    
C23   C48   S    
C31   O3    A    
C50   H14   S    
C51   H22   S    
C23   C34   S    
C27   O20   A    
C57   H32   S    
C28   O15   A    
Cu1   O1    S    
Cu4   O21   S    
C13   C14   S    
C14   C17   S    
C54   H26   S    
C20   H58   S    
C10   C51   S    
C35   H60   S    
C21   H59   S    
C63   H47   S    
C2    C64   S    
C39   C42   S    
Cu5   O8    S    
C27   O21   A    
C57   H35   S    
C61   H43   S    
C51   C52   S    
C6    H23   S    
C10   C11   S    
C17   H34   S    
C29   O23   A    
C38   H4    S    
C58   C59   S    
C39   C58   S    
C12   C66   S    
C55   H30   S    
C45   H8    S    
C8    C18   T    
Cu4   O23   S    
C48   H10   S    
C2    C31   S    
C5    H1    S    
C7    C11   S    
C65   H54   S    
C41   H5    S    
C37   C38   D    
C25   C38   S    
C6    C14   S    
C44   C56   S    
C50   H15   S    
Cu3   O18   S    
C64   H57   S    
C53   H28   S    
C32   C41   S    
C40   C55   S    
C61   H42   S    
C59   H38   S    
C52   H19   S    
Cu2   O11   S    
C20   C21   D    
C60   H44   S    
C32   O7    A    
C50   H13   S    
C29   O22   A    
C22   C53   S    
C26   C47   S    
C57   H33   S    
Cu6   O7    S    
C20   C22   S    
Cu2   O4    S    
C30   O2    A    
C13   C15   S    
C43   H7    S    
C34   C40   S    
C54   H25   S    
C52   H18   S    
Cu2   O14   S    
C42   C43   D    
C31   O5    A    
C63   H48   S    
C40   C48   S    
C28   O16   A    
Cu4   O19   S    
C14   C19   S    
Cu5   O3    S    
C54   H24   S    
C12   C45   S    
C3    C5    D    
C10   C13   S    
C34   C67   S    
C4    O10   A    
C62   H51   S    
C63   H49   S    
C15   C17   S    
C6    C7    S    
Cu5   O6    S    
C9    C29   S    
C33   O8    A    
Cu6   O5    S    
C30   C36   S    
C25   O17   A    
Cu1   O15   S    
C64   C65   S    
C26   O18   A    
Cu3   Cu4   S    
C12   C44   S    
C65   H52   S    
Cu3   O20   S    
C16   O14   A    
C37   H3    S    
Cu4   O12   S    
C4    O11   A    
Cu5   O24   S    
C15   H45   S    
C60   H46   S    
C22   C24   D    
C62   C68   S    
C32   O6    A    
Cu1   Cu2   S    
C6    C10   S    
C27   C43   S    
C40   C44   S    
C56   C60   S    
C64   H55   S    
C8    C28   S    
C16   C24   S    
C49   C50   S    
C58   H40   S    
C60   C61   S    
C26   O19   A    
C1    O1    A    
C1    O4    A    
C51   H21   S    
