data_mof_unit_61982.cif
_audit_creation_date              2013-03-05T15:57:59-0500
_audit_creation_method            fapswitch 2.2
_symmetry_space_group_name_H-M    P1
_symmetry_Int_Tables_number       1
_space_group_crystal_system       triclinic
_cell_length_a                    18.716433
_cell_length_b                    18.667675
_cell_length_c                    18.786341
_cell_angle_alpha                 109.506786
_cell_angle_beta                  109.549137
_cell_angle_gamma                 109.494772
_cell_volume                      5044.25343474

loop_
_atom_site_label
_atom_site_type_symbol
_atom_site_description
_atom_site_fract_x
_atom_site_fract_y
_atom_site_fract_z
_atom_type_partial_charge
O1    O     O_R   0.408680 0.356690 0.448540 -0.592520
O2    O     O_R   0.408060 0.460070 0.551440 -0.636049
C1    C     C_R   0.380390 0.379685 0.500371 0.917097
O3    O     O_R   0.592410 0.448290 0.540650 -0.586398
O4    O     O_R   0.591790 0.551670 0.643550 -0.600960
C2    C     C_R   0.622501 0.502132 0.620881 0.891643
Zn1   Zn    Zn3+2 0.500420 0.430970 0.431290 1.105562
Zn2   Zn    Zn3+2 0.499580 0.569030 0.568710 1.085545
O5    O     O_R   0.591940 0.539930 0.448560 -0.615209
O6    O     O_R   0.591320 0.643310 0.551460 -0.589030
O7    O     O_R   0.408210 0.448330 0.356450 -0.597716
O8    O     O_R   0.407590 0.551710 0.459350 -0.597497
C3    C     C_R   0.620766 0.620405 0.500680 0.913058
C4    C     C_R   0.379272 0.500010 0.379174 1.005747
C5    C     C_3   0.653893 0.410033 0.677906 -0.447614
H1    H     H_    0.625156 0.357948 0.609653 0.236681
H2    H     H_    0.598994 0.396669 0.691814 0.226801
C6    C     C_3   0.726435 0.403268 0.739335 0.227305
H3    H     H_    0.747762 0.365424 0.700105 0.162027
H4    H     H_    0.867738 0.486249 0.725840 0.207469
C7    C     C_3   0.775359 0.530287 0.682140 0.161076
C8    C     C_3   0.714872 0.570906 0.782718 0.085080
C9    C     C_3   0.690731 0.503380 0.689195 -0.188656
H5    H     H_    0.653367 0.558086 0.784342 0.194555
C10   C     C_3   0.807361 0.498791 0.808864 -0.216595
C11   C     C_3   0.844845 0.530176 0.754558 -0.512417
C12   C     C_3   0.776445 0.560867 0.854931 0.392038
H6    H     H_    0.801306 0.598570 0.693766 0.166523
H7    H     H_    0.904131 0.596100 0.794845 0.255866
C13   C     C_R   0.242174 0.319127 0.497971 -0.088819
H8    H     H_    0.234848 0.374053 0.497026 0.171882
C14   C     C_R   0.177487 0.252982 0.494764 -0.205351
H9    H     H_    0.120873 0.257896 0.492967 0.171203
C15   C     C_R   0.186945 0.182196 0.496307 -0.133346
C16   C     C_R   0.261397 0.176364 0.499969 0.337420
C17   C     C_R   0.325098 0.242746 0.501512 -0.221746
H10   H     H_    0.382474 0.239652 0.503316 0.185194
C18   C     C_R   0.315040 0.313112 0.500447 -0.056712
C19   C     C_R   0.329332 0.578653 0.310562 0.279355
C20   C     C_R   0.264373 0.577646 0.246189 -0.216802
H11   H     H_    0.276025 0.637453 0.243719 0.203289
C21   C     C_R   0.184923 0.499943 0.184584 -0.143100
C22   C     C_R   0.168849 0.422222 0.186291 -0.218575
H12   H     H_    0.106559 0.362412 0.138134 0.201652
C23   C     C_R   0.232181 0.421218 0.250275 0.273729
C24   C     C_R   0.312845 0.499950 0.312560 -0.277985
C25   C     C_R   0.757453 0.759640 0.580123 -0.148170
H13   H     H_    0.763324 0.766417 0.641716 0.180793
C26   C     C_R   0.821972 0.822985 0.579928 -0.151216
H14   H     H_    0.877476 0.879246 0.641386 0.163529
C27   C     C_R   0.813606 0.814113 0.500258 -0.019117
C28   C     C_R   0.742089 0.742022 0.420822 -0.166495
H15   H     H_    0.736129 0.735255 0.359211 0.158906
C29   C     C_R   0.679001 0.677361 0.421052 -0.090199
H16   H     H_    0.623761 0.620894 0.359563 0.166308
C30   C     C_R   0.686663 0.686832 0.500677 0.000535
O9    O     O_R   0.946090 0.356640 0.906180 -0.613241
O10   O     O_R   0.049540 0.460010 0.906120 -0.627708
C31   C     C_R   0.997765 0.379480 0.877620 0.832706
O11   O     O_R   0.853500 0.448290 0.905220 -0.536691
O12   O     O_R   0.956960 0.551660 0.905160 -0.595600
C32   C     C_R   0.876181 0.497666 0.874579 0.921413
Zn3   Zn    Zn3+2 0.928250 0.430930 0.997320 1.098941
Zn4   Zn    Zn3+2 0.066410 0.568980 0.997240 1.074654
O13   O     O_R   0.945110 0.539900 0.088450 -0.601721
O14   O     O_R   0.048570 0.643270 0.088390 -0.572139
O15   O     O_R   0.037700 0.448250 0.089410 -0.625057
O16   O     O_R   0.141150 0.551620 0.089350 -0.623885
C33   C     C_R   0.996026 0.620975 0.115967 0.955861
C34   C     C_R   0.118325 0.499957 0.118193 0.891542
O17   O     O_R   0.948590 0.908340 0.356800 -0.588929
O18   O     O_R   0.052580 0.908350 0.460820 -0.588850
C35   C     C_R   0.000612 0.880120 0.380606 0.959496
O19   O     O_R   0.039640 0.091520 0.447910 -0.596273
O20   O     O_R   0.143620 0.091540 0.551930 -0.593430
C36   C     C_R   0.120281 0.118156 0.498216 0.933242
Zn5   Zn    Zn3+2 0.930570 0.999900 0.430450 1.062270
Zn6   Zn    Zn3+2 0.069430 0.999920 0.569370 1.061627
O21   O     O_R   0.947420 0.091470 0.539000 -0.619702
O22   O     O_R   0.051410 0.091490 0.643030 -0.619803
O23   O     O_R   0.856380 0.908290 0.447890 -0.616812
O24   O     O_R   0.960370 0.908300 0.551910 -0.621903
C37   C     C_R   0.999197 0.119898 0.619434 0.836330
C38   C     C_R   0.879820 0.879954 0.500012 0.836908
C39   C     C_R   0.077981 0.321652 0.820711 -0.158189
H17   H     H_    0.139619 0.377444 0.876551 0.156283
C40   C     C_R   0.078346 0.257094 0.757757 -0.163866
H18   H     H_    0.140273 0.263300 0.764556 0.157143
C41   C     C_R   0.998734 0.185852 0.685371 -0.016685
C42   C     C_R   0.918725 0.177808 0.676097 -0.153355
H19   H     H_    0.857095 0.122244 0.620038 0.163311
C43   C     C_R   0.918338 0.241018 0.740421 -0.155465
H20   H     H_    0.856441 0.234804 0.733758 0.166951
C44   C     C_R   0.997989 0.312999 0.812040 -0.013602
C45   C     C_R   0.022246 0.772946 0.190007 0.375938
C46   C     C_R   0.022363 0.836292 0.255276 0.364796
C47   C     C_R   0.002519 0.816843 0.314458 -0.158822
C48   C     C_R   0.981179 0.735538 0.308852 -0.227085
H21   H     H_    0.965507 0.721379 0.354913 0.172059
C49   C     C_R   0.977426 0.671265 0.242157 -0.183146
H22   H     H_    0.960067 0.607902 0.237932 0.189652
C50   C     C_R   0.997851 0.689309 0.182741 -0.186194
N1    N     N_R   0.850889 0.648573 0.927592 0.238734
O25   O     O_R   0.840538 0.693946 0.989138 -0.271341
O26   O     O_R   0.919034 0.689270 0.922726 -0.306458
N2    N     N_R   0.272805 0.103995 0.500649 0.224198
O27   O     O_R   0.207108 0.023930 0.450963 -0.344667
O28   O     O_R   0.351162 0.116589 0.541859 -0.333009
N3    N     N_R   0.411891 0.659022 0.371465 0.221428
O29   O     O_R   0.414444 0.734232 0.396838 -0.340290
O30   O     O_R   0.485114 0.658279 0.391477 -0.421507
N4    N     N_R   0.212668 0.340841 0.252437 0.224165
O31   O     O_R   0.233277 0.341578 0.326114 -0.408108
O32   O     O_R   0.162972 0.265626 0.179994 -0.331195
Cl1   Cl    Cl    0.052433 0.800888 0.119114 -0.371407
Cl2   Cl    Cl    0.679314 0.334345 0.777822 -0.464811
Cl3   Cl    Cl    0.048696 0.940300 0.263540 -0.427561
N5    N     N_R   0.760208 0.474537 0.595724 0.234781
O33   O     O_R   0.740382 0.392945 0.568319 -0.384022
O34   O     O_R   0.771779 0.508534 0.547511 -0.365568
Cl4   Cl    Cl    0.758432 0.682435 0.802163 -0.496171
N6    N     N_R   0.728752 0.520006 0.892745 0.228001
O35   O     O_R   0.643851 0.482643 0.857301 -0.356834
O36   O     O_R   0.772680 0.525642 0.966651 -0.310908

loop_
_geom_bond_atom_site_label_1
_geom_bond_atom_site_label_2
_geom_bond_distance
_ccdc_geom_bond_type
C5    C6    1.534380 S    
O21   C37   1.282692 A    
C40   H18   1.083769 S    
Zn3   O13   2.013153 S    
C16   C17   1.387340 A    
O20   C36   1.280877 A    
N4    O32   1.301449 A    
C47   C48   1.390952 A    
C23   N4    1.439194 S    
C25   C26   1.381777 A    
C39   H17   1.083778 S    
Zn1   O7    2.028302 S    
O19   C36   1.284172 A    
O11   Zn3   2.028087 S    
Zn4   O16   2.028128 S    
C17   H10   1.084462 S    
C15   C16   1.414378 A    
N3    O30   1.300409 A    
C13   H8    1.083891 S    
O7    C4    1.278580 A    
Zn6   O22   2.016953 S    
O9    C31   1.276678 A    
O14   C33   1.273011 A    
N2    O27   1.300267 A    
C5    H1    1.111568 S    
C21   C34   1.438514 S    
C13   C18   1.392097 A    
O11   C32   1.271954 A    
C6    H3    1.113083 S    
C12   N1    1.482342 S    
O5    C3    1.276634 A    
N5    O33   1.301503 A    
C49   H22   1.083750 S    
O18   Zn6   2.015402 S    
C45   C46   1.389237 A    
C1    C18   1.424170 S    
C45   Cl1   1.770826 S    
C26   C27   1.397297 A    
O19   Zn5   2.011717 S    
C31   C44   1.429643 S    
C45   C50   1.415974 A    
C3    C30   1.427648 S    
N2    O28   1.301509 A    
C5    C9    1.552526 S    
C6    C10   1.580451 S    
O3    Zn1   2.026659 S    
C49   C50   1.398648 A    
N4    O31   1.300462 A    
C12   N6    1.488312 S    
C28   C29   1.380902 A    
O9    Zn3   2.017978 S    
Zn3   O15   2.026469 S    
C39   C40   1.382098 A    
O10   Zn4   2.012977 S    
C37   C41   1.430416 S    
C29   C30   1.397242 A    
C27   C28   1.396223 A    
C46   Cl3   1.773567 S    
C4    C24   1.438307 S    
C6    Cl2   1.801843 S    
C19   C20   1.388020 A    
O17   C35   1.278215 A    
C33   C50   1.440694 S    
C10   C11   1.574840 S    
C23   C24   1.413107 A    
O1    C1    1.276858 A    
Zn4   O14   2.018105 S    
O12   Zn4   2.026383 S    
C35   C47   1.420692 S    
C22   H12   1.083991 S    
C7    N5    1.471616 S    
C39   C44   1.397114 A    
Zn6   O24   2.011593 S    
C42   C43   1.382735 A    
C25   H13   1.083897 S    
Zn5   O23   2.013401 S    
Zn2   O8    2.026658 S    
C46   C47   1.400639 A    
C43   C44   1.396978 A    
Zn5   O21   2.015401 S    
N1    O26   1.299969 A    
C22   C23   1.388006 A    
C19   C24   1.413211 A    
O3    C2    1.281236 A    
C20   H11   1.084005 S    
C7    H6    1.112778 S    
O8    C4    1.278505 A    
C48   H21   1.084212 S    
O24   C38   1.281702 A    
C8    C12   1.572043 S    
C7    C9    1.559704 S    
C8    H5    1.108101 S    
C21   C22   1.393838 A    
N6    O36   1.302118 A    
C41   C42   1.397585 A    
O17   Zn5   2.016740 S    
O23   C38   1.282338 A    
C28   H15   1.083809 S    
C8    Cl4   1.814562 S    
O22   C37   1.282852 A    
C5    H2    1.112829 S    
C29   H16   1.083793 S    
O1    Zn1   2.014790 S    
O2    Zn2   2.009615 S    
O18   C35   1.281108 A    
O6    C3    1.278024 A    
O4    Zn2   2.028304 S    
C10   C12   1.593604 S    
C48   C49   1.376692 A    
O15   C34   1.278443 A    
C14   H9    1.084112 S    
C17   C18   1.393332 A    
O2    C1    1.275836 A    
O10   C31   1.276153 A    
C16   N2    1.439814 S    
N3    O29   1.301445 A    
C13   C14   1.377617 A    
C42   H19   1.083732 S    
O4    C2    1.273794 A    
H4    C11   1.113930 S    
O13   C33   1.284975 A    
C2    C9    1.463464 S    
C7    C11   1.536832 S    
C20   C21   1.393619 A    
C43   H20   1.083863 S    
C40   C41   1.397039 A    
C10   C32   1.467929 S    
O12   C32   1.283242 A    
O20   Zn6   2.013525 S    
N5    O34   1.301362 A    
Zn1   O5    2.009616 S    
C19   N3    1.439020 S    
C11   H7    1.105922 S    
Zn2   O6    2.014791 S    
C26   H14   1.083768 S    
C15   C36   1.431870 S    
N1    O25   1.302767 A    
O16   C34   1.278720 A    
C8    C9    1.577820 S    
N6    O35   1.302655 A    
C27   C38   1.427413 S    
C14   C15   1.398790 A    
C25   C30   1.396525 A    
