data_mof_unit_12776.cif
_audit_creation_date              2012-12-10T20:26:30-0500
_audit_creation_method            fapswitch 2.2
_symmetry_space_group_name_H-M    P1
_symmetry_Int_Tables_number       1
_space_group_crystal_system       triclinic
_cell_length_a                    10.566289
_cell_length_b                    10.668347
_cell_length_c                    9.877006
_cell_angle_alpha                 90.054653
_cell_angle_beta                  86.438086
_cell_angle_gamma                 89.27217
_cell_volume                      1111.14176182

loop_
_atom_site_label
_atom_site_type_symbol
_atom_type_description
_atom_site_fract_x
_atom_site_fract_y
_atom_site_fract_z
_atom_type_partial_charge
C1    C     C_R   0.504832 0.260280 0.499547 0.911194
C2    C     C_R   0.594934 0.554467 0.065772 -0.102838
C3    C     C_R   0.594851 0.554664 0.921905 -0.109707
C4    C     C_R   0.262442 0.517269 0.504946 0.917489
C5    C     C_R   0.398393 0.455642 0.935386 0.214520
C6    C     C_3   0.348583 0.325749 0.933455 -0.531400
C7    C     C_3   0.347576 0.326194 0.087231 -0.478994
C8    C     C_R   0.501582 0.739700 0.500009 0.881350
C9    C     C_R   0.738334 0.495716 0.495208 0.943416
C10   C     C_2   0.930473 0.591814 0.418394 -0.182836
C11   C     C_2   0.872560 0.495056 0.480193 -0.352926
C12   C     C_R   0.516301 0.128248 0.500611 -0.161827
C13   C     C_2   0.067740 0.600031 0.416425 0.172485
C14   C     C_2   0.130437 0.558562 0.522989 -0.126324
C15   C     C_R   0.453138 0.065326 0.607240 0.110381
C16   C     C_3   0.072137 0.567635 0.669660 -0.426661
C17   C     C_3   0.121643 0.681893 0.743159 -0.364926
C18   C     C_3   0.064384 0.690254 0.888399 -0.818837
C19   C     C_R   0.593371 0.062004 0.402386 0.141839
C20   C     C_R   0.589735 0.931993 0.403002 -0.234689
C21   C     C_R   0.512124 0.871214 0.501554 -0.123180
C22   C     C_R   0.451800 0.937493 0.608244 0.148299
C23   C     C_3   0.315460 0.933995 0.657314 -0.502982
C24   C     C_3   0.316582 0.075652 0.655963 -0.469893
C25   C     C_R   0.398409 0.455629 0.077784 0.277977
H1    H     H_    0.877018 0.663574 0.367468 0.171985
H2    H     H_    0.644557 0.878978 0.325676 0.177896
H3    H     H_    0.254657 0.893508 0.580849 0.205416
H4    H     H_    0.302600 0.894418 0.761224 0.213606
H5    H     H_    0.256084 0.117708 0.579241 0.203053
H6    H     H_    0.959487 0.700074 0.889534 0.256829
H7    H     H_    0.089377 0.604727 0.945549 0.278615
H8    H     H_    0.102389 0.773599 0.938783 0.272018
H9    H     H_    0.226364 0.677540 0.746011 0.250875
H10   H     H_    0.094732 0.768152 0.688398 0.229248
H11   H     H_    0.967954 0.579191 0.677354 0.227865
H12   H     H_    0.302987 0.116760 0.759028 0.208718
H13   H     H_    0.093879 0.480128 0.725252 0.210591
H14   H     H_    0.672726 0.596433 0.114924 0.149900
H15   H     H_    0.672601 0.597133 0.862984 0.153604
H16   H     H_    0.252160 0.322685 0.894609 0.202491
H17   H     H_    0.418770 0.258214 0.885534 0.228484
H18   H     H_    0.250459 0.324525 0.137339 0.216984
H19   H     H_    0.415846 0.257892 0.127972 0.236375
H20   H     H_    0.923957 0.419912 0.527901 0.148958
I1    I     I_    0.156612 0.684949 0.241041 -0.427897
I2    I     I_    0.714896 0.148469 0.251181 -0.374880
N1    N     N_R   0.499170 0.499140 0.142800 -0.102983
N2    N     N_R   0.499170 0.499180 0.857150 -0.110619
O1    O     O_R   0.500020 0.316790 0.614690 -0.615600
O2    O     O_R   0.500000 0.316760 0.385350 -0.595928
O3    O     O_R   0.319080 0.500020 0.614640 -0.625750
O4    O     O_R   0.319070 0.499980 0.385300 -0.590129
O5    O     O_R   0.500000 0.683240 0.614650 -0.626847
O6    O     O_R   0.499980 0.683210 0.385310 -0.606692
O7    O     O_R   0.680930 0.500020 0.614700 -0.624522
O8    O     O_R   0.680920 0.499980 0.385360 -0.598154
Zn1   Zn    Zn3+2 0.500010 0.500020 0.653130 0.941607
Zn2   Zn    Zn3+2 0.499990 0.499980 0.346870 0.983957

loop_
_geom_bond_atom_site_label_1
_geom_bond_atom_site_label_2
_ccdc_geom_bond_type
C23   C24   S    
C6    C7    S    
C20   H2    S    
O6    Zn2   S    
C4    O4    A    
C1    O2    A    
C1    O1    A    
C9    O8    A    
C19   C20   A    
C7    C25   S    
C12   C15   A    
C2    N1    A    
C10   H1    S    
C2    C3    A    
C3    N2    A    
C9    O7    A    
C7    H19   S    
C16   H11   S    
C9    C11   S    
C25   N1    A    
C5    N2    A    
C5    C6    S    
C1    C12   S    
O3    Zn1   S    
C4    O3    A    
C5    C25   A    
C23   H4    S    
C12   C19   A    
C21   C22   A    
C15   C24   S    
O7    Zn1   S    
C3    H15   S    
C17   C18   S    
C7    H18   S    
C10   C11   D    
C4    C14   S    
C13   I1    S    
C18   H8    S    
C14   C16   S    
C11   H20   S    
O8    Zn2   S    
C18   H7    S    
C17   H9    S    
C24   H5    S    
O1    Zn1   S    
O2    Zn2   S    
C20   C21   A    
C8    O6    A    
N1    Zn2   S    
C24   H12   S    
O5    Zn1   S    
C19   I2    S    
C8    O5    A    
C22   C23   S    
C18   H6    S    
C17   H10   S    
C13   C14   D    
O4    Zn2   S    
C23   H3    S    
C6    H17   S    
C2    H14   S    
C10   C13   S    
C15   C22   A    
N2    Zn1   S    
C16   H13   S    
C16   C17   S    
C6    H16   S    
C8    C21   S    
