data_mof_unit_60403.cif
_audit_creation_date              2013-03-05T15:45:28-0500
_audit_creation_method            fapswitch 2.2
_symmetry_space_group_name_H-M    P1
_symmetry_Int_Tables_number       1
_space_group_crystal_system       triclinic
_cell_length_a                    15.064527
_cell_length_b                    15.08593
_cell_length_c                    19.482159
_cell_angle_alpha                 88.925584
_cell_angle_beta                  91.071976
_cell_angle_gamma                 90.040065
_cell_volume                      4426.00873922

loop_
_atom_site_label
_atom_site_type_symbol
_atom_site_description
_atom_site_fract_x
_atom_site_fract_y
_atom_site_fract_z
_atom_type_partial_charge
Zn1   Zn    Zn3+2 0.433070 0.575010 0.435400 1.022263
Zn2   Zn    Zn3+2 0.418400 0.433070 0.557650 0.986954
Zn3   Zn    Zn3+2 0.575700 0.573520 0.558390 0.960380
Zn4   Zn    Zn3+2 0.572830 0.418400 0.448560 1.044956
O1    O     O_3   0.500000 0.500000 0.500000 -0.503052
O2    O     O_R   0.542340 0.296600 0.470110 -0.592469
O3    O     O_R   0.461800 0.698790 0.448670 -0.644267
O4    O     O_R   0.296600 0.461110 0.533510 -0.641275
O5    O     O_R   0.699270 0.543500 0.547710 -0.641459
O6    O     O_R   0.437070 0.459640 0.654640 -0.652873
O7    O     O_R   0.556790 0.436390 0.349710 -0.614595
O8    O     O_R   0.547170 0.557950 0.655150 -0.646375
O9    O     O_R   0.458970 0.546010 0.340500 -0.620829
O10   O     O_R   0.306870 0.560460 0.447950 -0.625438
O11   O     O_R   0.697260 0.434930 0.470830 -0.639489
O12   O     O_R   0.434240 0.306870 0.546470 -0.645770
O13   O     O_R   0.561630 0.697750 0.534750 -0.638982
C1    C     C_R   0.485724 0.260128 0.509921 0.871001
C2    C     C_R   0.514556 0.739673 0.489156 0.787339
C3    C     C_R   0.259891 0.512570 0.488309 0.829717
C4    C     C_R   0.739553 0.486482 0.511734 0.777246
C5    C     C_R   0.489806 0.511142 0.687281 0.781390
C6    C     C_R   0.508556 0.488732 0.312810 0.875412
C7    C     C_R   0.509712 0.483293 0.238290 -0.107881
C8    C     C_R   0.430180 0.485924 0.198757 0.305085
C9    C     C_R   0.435272 0.490627 0.127243 -0.207154
C10   C     C_R   0.517999 0.492821 0.094952 0.136930
C11   C     C_R   0.595974 0.485514 0.134791 -0.155087
C12   C     C_R   0.591898 0.480683 0.205984 -0.231232
C13   C     C_R   0.547024 0.555439 0.872000 -0.155953
C14   C     C_R   0.554060 0.549964 0.801098 -0.204872
C15   C     C_R   0.402640 0.495301 0.793474 -0.195688
C16   C     C_R   0.395102 0.502410 0.864182 -0.165583
C17   C     C_R   0.467753 0.530564 0.903821 0.193419
C18   C     C_2   0.525490 0.500056 0.019776 -0.194798
C19   C     C_2   0.459895 0.531107 0.978542 -0.230652
C20   C     C_R   0.482344 0.518535 0.761605 0.005250
H1    H     H_    0.615862 0.568879 0.777332 0.160191
H2    H     H_    0.346068 0.472113 0.763717 0.158826
H3    H     H_    0.397023 0.552316 0.998780 0.158930
H4    H     H_    0.660292 0.485464 0.110809 0.142624
H5    H     H_    0.603233 0.579154 0.901884 0.136789
H6    H     H_    0.653151 0.478068 0.236019 0.163740
H7    H     H_    0.587405 0.478834 0.997466 0.152090
H8    H     H_    0.374104 0.489780 0.097433 0.170238
H9    H     H_    0.333429 0.483570 0.888224 0.139270
C21   C     C_R   0.483830 0.163661 0.515585 -0.123973
C22   C     C_R   0.519223 0.835452 0.482190 0.000960
C23   C     C_R   0.513811 0.965213 0.407648 -0.139357
C24   C     C_R   0.519907 0.873952 0.416334 -0.201621
C25   C     C_R   0.512587 0.888305 0.539872 -0.242684
C26   C     C_R   0.503439 0.980087 0.531632 0.140711
C27   C     C_R   0.505347 0.019541 0.464932 0.050025
C28   C     C_R   0.496234 0.111946 0.457020 0.241002
C29   C     C_R   0.478840 0.123554 0.580809 -0.246349
C30   C     C_R   0.489503 0.032445 0.588908 -0.199886
H10   H     H_    0.470173 0.163329 0.625933 0.172186
H11   H     H_    0.513197 0.992140 0.355802 0.196573
H12   H     H_    0.486990 0.002924 0.639983 0.152442
H13   H     H_    0.523858 0.832979 0.371387 0.157289
H14   H     H_    0.509758 0.857577 0.590578 0.143364
C31   C     C_R   0.163397 0.513005 0.480993 -0.032716
C32   C     C_R   0.835421 0.481801 0.517394 0.013613
C33   C     C_R   0.967967 0.470178 0.588822 -0.205649
C34   C     C_R   0.875937 0.468568 0.582021 -0.191747
C35   C     C_R   0.886498 0.497639 0.459326 -0.260481
C36   C     C_R   0.978759 0.502711 0.466064 0.173783
C37   C     C_R   0.019762 0.487910 0.531263 0.177700
C38   C     C_R   0.111851 0.492028 0.538022 -0.267288
C39   C     C_R   0.122597 0.529998 0.416764 -0.147978
C40   C     C_R   0.030635 0.524001 0.409164 -0.203207
H15   H     H_    0.143457 0.479678 0.587773 0.154221
H16   H     H_    0.162001 0.545604 0.372180 0.197938
H17   H     H_    0.998476 0.459281 0.639089 0.143574
H18   H     H_    0.000164 0.536135 0.359043 0.155906
H19   H     H_    0.836164 0.457094 0.627103 0.142579
H20   H     H_    0.854189 0.509506 0.409773 0.138102
N1    N     N_R   0.344363 0.481198 0.230005 0.210983
O14   O     O_R   0.276005 0.519221 0.200143 -0.395001
O15   O     O_R   0.331758 0.430090 0.283508 -0.371954
N2    N     N_R   0.498195 0.153273 0.389975 0.201209
O16   O     O_R   0.569731 0.149518 0.353736 -0.374867
O17   O     O_R   0.431771 0.201766 0.367990 -0.363669

loop_
_geom_bond_atom_site_label_1
_geom_bond_atom_site_label_2
_geom_bond_distance
_ccdc_geom_bond_type
C29   C30   1.389634 A    
C32   C34   1.399859 A    
C18   C19   1.340906 D    
C25   H14   1.084869 S    
C1    C21   1.457698 S    
N2    O16   1.301178 A    
C27   C28   1.406155 A    
O6    C5    1.279834 A    
C31   C39   1.403117 A    
C9    C10   1.406583 A    
O4    C3    1.280904 A    
C34   H19   1.083605 S    
Zn1   O1    1.944677 S    
C33   C37   1.399658 A    
C11   C12   1.390048 A    
C13   C14   1.391357 A    
N1    O15   1.301570 A    
O8    C5    1.280654 A    
C11   H4    1.083551 S    
O9    C6    1.276374 A    
C15   H2    1.083267 S    
C7    C12   1.400249 A    
Zn3   O8    1.951164 S    
C2    C22   1.450514 S    
C9    H8    1.080181 S    
C22   C25   1.395186 A    
C37   C38   1.392521 A    
C6    C7    1.456081 S    
C39   C40   1.393554 A    
Zn2   O12   1.935750 S    
C17   C19   1.462909 S    
C22   C24   1.398603 A    
C35   C36   1.395791 A    
C32   C35   1.396837 A    
C12   H6    1.083702 S    
C16   H9    1.083633 S    
N2    O17   1.301224 A    
O2    C1    1.280553 A    
C13   C17   1.403404 A    
C36   C37   1.416006 A    
O10   C3    1.280565 A    
C19   H3    1.083524 S    
C7    C8    1.412311 A    
Zn4   O2    1.934070 S    
N1    O14   1.301476 A    
C10   C18   1.473047 S    
C8    C9    1.397275 A    
C5    C20   1.460781 S    
C8    N1    1.440372 S    
C23   H11   1.081485 S    
C25   C26   1.397495 A    
C31   C38   1.398665 A    
C38   H15   1.084888 S    
Zn3   O5    1.932063 S    
C39   H16   1.083365 S    
C16   C17   1.398092 A    
C15   C20   1.403269 A    
Zn4   O7    1.950354 S    
C18   H7    1.087283 S    
C21   C28   1.409609 A    
O3    C2    1.276027 A    
C29   H10   1.083564 S    
Zn2   O1    1.949216 S    
Zn1   O9    1.954346 S    
Zn2   O6    1.954132 S    
C26   C27   1.419897 A    
C21   C29   1.400401 A    
C35   H20   1.084888 S    
Zn1   O3    1.937494 S    
Zn2   O4    1.930845 S    
Zn4   O1    1.952627 S    
Zn3   O1    1.954910 S    
C30   H12   1.083810 S    
C14   H1    1.083232 S    
C24   H13   1.083848 S    
C33   C34   1.390483 A    
Zn4   O11   1.933149 S    
C15   C16   1.390478 A    
C40   H18   1.083668 S    
O5    C4    1.280100 A    
C23   C27   1.404711 A    
O7    C6    1.276043 A    
O13   C2    1.283708 A    
Zn3   O13   1.932337 S    
C36   C40   1.400511 A    
C3    C31   1.457962 S    
C4    C32   1.448022 S    
C14   C20   1.402099 A    
O11   C4    1.284275 A    
O12   C1    1.282984 A    
C23   C24   1.386858 A    
C10   C11   1.399005 A    
C33   H17   1.083752 S    
C13   H5    1.083003 S    
Zn1   O10   1.933161 S    
C28   N2    1.437552 S    
C26   C30   1.398275 A    
