data_mof_unit_51773.cif
_audit_creation_date              2012-12-10T19:01:54-0500
_audit_creation_method            fapswitch 2.2
_symmetry_space_group_name_H-M    P1
_symmetry_Int_Tables_number       1
_space_group_crystal_system       triclinic
_cell_length_a                    11.687666
_cell_length_b                    10.838536
_cell_length_c                    9.638658
_cell_angle_alpha                 90.624168
_cell_angle_beta                  90.058115
_cell_angle_gamma                 91.741387
_cell_volume                      1220.36068293

loop_
_atom_site_label
_atom_site_type_symbol
_atom_type_description
_atom_site_fract_x
_atom_site_fract_y
_atom_site_fract_z
_atom_type_partial_charge
C1    C     C_R   0.498124 0.263178 0.499593 0.781296
C2    C     C_R   0.494856 0.130676 0.499847 -0.084985
C3    C     C_R   0.437833 0.061398 0.394846 -0.206001
C4    C     C_R   0.437940 0.931774 0.396774 -0.179729
C5    C     C_R   0.497663 0.870161 0.501322 -0.078430
C6    C     C_R   0.551855 0.942285 0.603420 -0.063415
C7    C     C_3   0.635207 0.939500 0.721135 -0.202024
C8    C     C_3   0.631981 0.083831 0.722119 0.252027
C9    C     C_R   0.595862 0.531465 0.071960 0.247591
C10   C     C_R   0.411019 0.446607 0.073911 0.011111
C11   C     C_R   0.410341 0.447854 0.924677 0.014983
C12   C     C_R   0.284248 0.499661 0.499949 0.816723
C13   C     C_R   0.598331 0.523113 0.927012 0.192133
C14   C     C_3   0.684382 0.626441 0.914756 -0.259144
C15   C     C_3   0.675674 0.643046 0.073234 -0.117089
C16   C     C_R   0.501196 0.737210 0.500650 0.775433
C17   C     C_R   0.715720 0.500087 0.500070 0.802225
C18   C     C_1   0.162446 0.499330 0.499934 -0.101521
C19   C     C_1   0.059865 0.499185 0.500105 0.058469
C20   C     C_1   0.939995 0.499307 0.500248 0.027893
C21   C     C_1   0.837448 0.499632 0.500202 -0.182949
C22   C     C_R   0.548019 0.066874 0.604656 0.062976
Cu1   Cu    Cu3+1 0.499990 0.499980 0.640670 0.937088
Cu2   Cu    Cu3+1 0.500010 0.500020 0.359330 0.941265
H1    H     H_    0.393007 0.106683 0.312396 0.140467
H2    H     H_    0.652546 0.702258 0.851194 0.154017
H3    H     H_    0.756795 0.625082 0.129088 0.171497
H4    H     H_    0.391253 0.880155 0.317238 0.160292
H5    H     H_    0.595684 0.896221 0.813599 0.149441
N1    N     N_R   0.500710 0.500930 0.147930 -0.236771
N2    N     N_R   0.500710 0.500890 0.852020 -0.248314
O1    O     O_R   0.500000 0.319640 0.618810 -0.617544
O2    O     O_R   0.500010 0.319680 0.381230 -0.604895
O3    O     O_R   0.337190 0.499990 0.618790 -0.561370
O4    O     O_R   0.337200 0.500030 0.381210 -0.569644
O5    O     O_R   0.499990 0.680320 0.618770 -0.580054
O6    O     O_R   0.500000 0.680360 0.381190 -0.585025
O7    O     O_R   0.662800 0.499970 0.618790 -0.584186
O8    O     O_R   0.662810 0.500010 0.381210 -0.570616
C23   C     C_3   0.626331 0.768944 0.114389 -0.357871
C24   C     C_3   0.502315 0.789131 0.069010 -0.772416
H6    H     H_    0.488403 0.765891 0.957977 0.242228
H7    H     H_    0.441405 0.732191 0.130933 0.277469
H8    H     H_    0.482153 0.887723 0.084980 0.223676
H9    H     H_    0.634494 0.783001 0.227898 0.221632
H10   H     H_    0.682025 0.841726 0.067334 0.202992
C25   C     C_2   0.746583 0.882798 0.681625 0.332467
H11   H     H_    0.755970 0.836269 0.582132 0.061659
O9    O     O_2   0.826766 0.886623 0.762847 -0.557953
C26   C     C_3   0.574140 0.134534 0.855206 -0.451359
C27   C     C_3   0.652511 0.133667 0.982219 -0.817381
H12   H     H_    0.691171 0.042371 0.993866 0.266171
H13   H     H_    0.721973 0.205265 0.972674 0.273460
H14   H     H_    0.602277 0.154502 0.076946 0.240135
H15   H     H_    0.548764 0.230929 0.839846 0.221345
H16   H     H_    0.494659 0.079512 0.878447 0.194999
C28   C     C_3   0.743961 0.158208 0.683185 -0.303252
C29   C     C_3   0.783264 0.148716 0.531547 -0.821493
H17   H     H_    0.786410 0.051833 0.494720 0.248759
H18   H     H_    0.725743 0.199707 0.462670 0.237462
H19   H     H_    0.870350 0.191568 0.521980 0.253788
H20   H     H_    0.731686 0.257701 0.705977 0.221317
H21   H     H_    0.814637 0.129273 0.751428 0.249979
C30   C     C_2   0.320619 0.375081 0.147098 0.451997
H22   H     H_    0.342925 0.299716 0.213293 0.050269
O10   O     O_2   0.220251 0.401589 0.136485 -0.489883
C31   C     C_2   0.319427 0.376746 0.849843 0.461792
H23   H     H_    0.340859 0.298860 0.784710 0.050128
O11   O     O_2   0.219616 0.405993 0.858435 -0.480295
C32   C     C_2   0.799640 0.583414 0.867366 0.418252
H24   H     H_    0.848649 0.638108 0.793528 0.117276
O12   O     O_2   0.839468 0.488532 0.911609 -0.530570

loop_
_geom_bond_atom_site_label_1
_geom_bond_atom_site_label_2
_ccdc_geom_bond_type
C26   H15   S    
C2    C22   A    
C8    C22   S    
Cu1   Cu2   S    
C32   H24   S    
C7    H5    S    
Cu1   O5    S    
C8    C28   S    
Cu1   O7    S    
C14   C32   S    
C24   H6    S    
C10   N1    A    
C15   H3    S    
Cu2   O2    S    
C3    H1    S    
C16   O6    A    
C27   H14   S    
Cu1   O1    S    
Cu1   O3    S    
C29   H19   S    
C2    C3    A    
C9    C15   S    
C11   N2    A    
C28   H20   S    
C25   O9    D    
C13   C14   S    
C14   H2    S    
C12   O4    A    
C23   H10   S    
C24   H7    S    
C30   O10   D    
C28   C29   S    
C16   O5    A    
C9    N1    A    
C5    C6    A    
C30   H22   S    
C23   C24   S    
C4    H4    S    
C11   C31   S    
C28   H21   S    
C6    C7    S    
Cu2   N1    S    
C17   O7    A    
C23   H9    S    
C24   H8    S    
C26   H16   S    
C15   C23   S    
Cu2   O4    S    
C10   C11   A    
C1    O2    A    
C27   H13   S    
C29   H18   S    
C31   H23   S    
C6    C22   A    
C25   H11   S    
C8    C26   S    
C7    C8    S    
Cu2   O8    S    
C27   H12   S    
C20   C21   T    
Cu2   O6    S    
C1    C2    S    
C17   O8    A    
C12   C18   S    
C9    C13   A    
C14   C15   S    
C18   C19   T    
C5    C16   S    
C32   O12   D    
C26   C27   S    
C29   H17   S    
C12   O3    A    
C13   N2    A    
C1    O1    A    
C10   C30   S    
C3    C4    A    
C19   C20   S    
C7    C25   S    
C4    C5    A    
C31   O11   D    
Cu1   N2    S    
C17   C21   S    
