data_mof_unit_28098.cif
_audit_creation_date              2012-12-10T16:48:42-0500
_audit_creation_method            fapswitch 2.2
_symmetry_space_group_name_H-M    P1
_symmetry_Int_Tables_number       1
_space_group_crystal_system       triclinic
_cell_length_a                    7.779493
_cell_length_b                    8.581869
_cell_length_c                    10.854704
_cell_angle_alpha                 88.35806
_cell_angle_beta                  99.357426
_cell_angle_gamma                 93.382417
_cell_volume                      713.665625331

loop_
_atom_site_label
_atom_site_type_symbol
_atom_type_description
_atom_site_fract_x
_atom_site_fract_y
_atom_site_fract_z
_atom_type_partial_charge
C1    C     C_R   0.544593 0.794671 0.496809 0.967208
C2    C     C_R   0.455406 0.205329 0.503191 0.967208
C3    C     C_R   0.573562 0.494517 0.735444 0.846230
C4    C     C_R   0.426437 0.505483 0.264556 0.846230
C5    C     C_2   0.619713 0.508131 0.868698 0.225842
C6    C     C_2   0.380287 0.491869 0.131302 0.225842
C7    C     C_2   0.491714 0.477907 0.935736 -0.178162
C8    C     C_2   0.508285 0.522093 0.064264 -0.178163
C9    C     C_2   0.568065 0.958118 0.495028 -0.350119
C10   C     C_2   0.431935 0.041882 0.504972 -0.350118
H1    H     H_    0.632104 0.576186 0.108144 0.214403
H2    H     H_    0.367895 0.423816 0.891856 0.214403
H3    H     H_    0.696778 0.009016 0.485552 0.186729
H4    H     H_    0.303221 0.990984 0.514448 0.186729
H5    H     H_    0.985372 0.385200 0.407741 0.214442
H6    H     H_    0.014628 0.614800 0.592259 0.214442
N1    N     N_2   0.940600 0.458860 0.467170 -0.161409
N2    N     N_2   0.059400 0.541140 0.532830 -0.161409
O1    O     O_R   0.391630 0.738350 0.508060 -0.610531
O2    O     O_R   0.608370 0.261650 0.491940 -0.610531
O3    O     O_R   0.674540 0.711990 0.487010 -0.624559
O4    O     O_R   0.325460 0.288010 0.512990 -0.624559
O5    O     O_R   0.411370 0.508250 0.688780 -0.629942
O6    O     O_R   0.588630 0.491750 0.311220 -0.629941
O7    O     O_R   0.694270 0.481880 0.667740 -0.577707
O8    O     O_R   0.305730 0.518120 0.332260 -0.577707
Zn1   Zn    Zn3+2 0.311100 0.517600 0.514050 0.997700
Zn2   Zn    Zn3+2 0.688900 0.482400 0.485950 0.997700
Cl1   Cl    Cl    0.172981 0.406844 0.069980 -0.520126
Cl2   Cl    Cl    0.827020 0.593154 0.930021 -0.520126

loop_
_geom_bond_atom_site_label_1
_geom_bond_atom_site_label_2
_ccdc_geom_bond_type
C2    O4    A    
C4    O8    A    
C1    O3    A    
O5    Zn1   S    
O1    Zn1   S    
C9    C10   D    
C3    O5    A    
N1    N2    D    
C7    C8    S    
O7    Zn2   S    
O8    Zn1   S    
C8    H1    S    
C4    C6    S    
O3    Zn2   S    
O4    Zn1   S    
C7    H2    S    
C4    O6    A    
C1    O1    A    
C2    O2    A    
C2    C10   S    
C3    O7    A    
C6    Cl1   S    
C1    C9    S    
H6    N2    S    
C5    Cl2   S    
C10   H4    S    
C5    C7    D    
C9    H3    S    
C6    C8    D    
O2    Zn2   S    
H5    N1    S    
N1    Zn2   S    
N2    Zn1   S    
O6    Zn2   S    
C3    C5    S    
