data_mof_unit_25091.cif
_audit_creation_date              2013-03-05T15:49:10-0500
_audit_creation_method            fapswitch 2.2
_symmetry_space_group_name_H-M    P1
_symmetry_Int_Tables_number       1
_space_group_crystal_system       triclinic
_cell_length_a                    17.474085
_cell_length_b                    24.411846
_cell_length_c                    15.011478
_cell_angle_alpha                 90.044052
_cell_angle_beta                  126.236188
_cell_angle_gamma                 89.972787
_cell_volume                      5164.99227632

loop_
_atom_site_label
_atom_site_type_symbol
_atom_site_description
_atom_site_fract_x
_atom_site_fract_y
_atom_site_fract_z
_atom_type_partial_charge
C1    C     C_R   0.308566 0.123965 0.907806 -0.126445
C2    C     C_R   0.308514 0.876102 0.907693 -0.128248
C3    C     C_R   0.808449 0.623802 0.907717 -0.126994
C4    C     C_R   0.808599 0.375987 0.907766 -0.128070
H1    H     H_    0.250848 0.132306 0.822800 0.104227
H2    H     H_    0.250750 0.867907 0.822587 0.104404
H3    H     H_    0.750669 0.631950 0.822614 0.104801
H4    H     H_    0.750875 0.367650 0.822737 0.104160
N1    N     N_R   0.392450 0.103580 0.942190 -0.036910
N2    N     N_R   0.392450 0.896420 0.942190 -0.036761
N3    N     N_R   0.892450 0.603580 0.942190 -0.036544
N4    N     N_R   0.892450 0.396420 0.942190 -0.037128
C5    C     C_R   0.403243 0.876266 0.093359 -0.138723
C6    C     C_R   0.403279 0.123765 0.093441 -0.138865
C7    C     C_R   0.903330 0.376208 0.093418 -0.138624
C8    C     C_R   0.903164 0.623681 0.093370 -0.138852
H5    H     H_    0.433251 0.870391 0.179313 0.103916
H6    H     H_    0.433310 0.129664 0.179405 0.102106
H7    H     H_    0.933380 0.370324 0.179382 0.103675
H8    H     H_    0.933143 0.629564 0.179323 0.102201
N5    N     N_R   0.450490 0.896000 0.057360 -0.040123
N6    N     N_R   0.450490 0.104000 0.057360 -0.039703
N7    N     N_R   0.950490 0.396000 0.057360 -0.040072
N8    N     N_R   0.950490 0.604000 0.057360 -0.039749
C9    C     C_R   0.552044 0.045322 0.305966 -0.144578
C10   C     C_R   0.552178 0.954400 0.305527 -0.136844
C11   C     C_R   0.052065 0.545299 0.306002 -0.143620
C12   C     C_R   0.052199 0.454377 0.305506 -0.137970
H9    H     H_    0.564786 0.087606 0.332262 0.098333
H10   H     H_    0.566767 0.912088 0.331369 0.095806
H11   H     H_    0.064749 0.587577 0.332351 0.098748
H12   H     H_    0.066899 0.412066 0.331338 0.095433
N9    N     N_R   0.525490 0.028390 0.207550 -0.037171
N10   N     N_R   0.525490 0.971610 0.207550 -0.037931
N11   N     N_R   0.025490 0.528390 0.207550 -0.037341
N12   N     N_R   0.025490 0.471610 0.207550 -0.037733
C13   C     C_R   0.239913 0.954360 0.696126 -0.108811
C14   C     C_R   0.239819 0.046110 0.697172 -0.109576
C15   C     C_R   0.740057 0.453823 0.697021 -0.097141
C16   C     C_R   0.740109 0.545565 0.695903 -0.121673
H13   H     H_    0.225133 0.912565 0.666418 0.118865
H14   H     H_    0.225868 0.088028 0.668384 0.113543
H15   H     H_    0.726218 0.411864 0.668374 0.111647
H16   H     H_    0.725310 0.587342 0.666200 0.120455
N13   N     N_R   0.317450 0.971190 0.792000 -0.047205
N14   N     N_R   0.317450 0.028810 0.792000 -0.047585
N15   N     N_R   0.817450 0.471190 0.792000 -0.047758
N16   N     N_R   0.817450 0.528810 0.792000 -0.047275
C17   C     C_R   0.314452 0.138261 0.001510 0.020273
C18   C     C_R   0.314428 0.861743 0.001369 0.021251
C19   C     C_R   0.814269 0.638100 0.001396 0.019754
C20   C     C_R   0.814561 0.361634 0.001463 0.021749
C21   C     C_R   0.569838 0.999734 0.369369 0.032619
C22   C     C_R   0.069815 0.499691 0.369356 0.032872
C23   C     C_R   0.190892 0.000409 0.637313 0.070882
C24   C     C_R   0.691308 0.499471 0.636968 0.072584
C25   C     C_R   0.514340 0.045845 0.745874 -0.061731
C26   C     C_R   0.515762 0.953755 0.748025 -0.017257
C27   C     C_R   0.014470 0.545835 0.746000 -0.061468
C28   C     C_R   0.015758 0.453743 0.748038 -0.017922
H17   H     H_    0.518010 0.088165 0.728209 0.133781
H18   H     H_    0.520135 0.911223 0.732467 0.107940
H19   H     H_    0.018269 0.588149 0.728397 0.134134
H20   H     H_    0.020175 0.411203 0.732582 0.106745
N17   N     N_R   0.473900 0.028390 0.792280 -0.041413
N18   N     N_R   0.473900 0.971610 0.792280 -0.037348
N19   N     N_R   0.973900 0.528390 0.792280 -0.041022
N20   N     N_R   0.973900 0.471610 0.792280 -0.037249
C29   C     C_R   0.769062 0.953685 0.248140 -0.122057
C30   C     C_R   0.769305 0.045863 0.247461 -0.138157
C31   C     C_R   0.269371 0.454120 0.247784 -0.139849
C32   C     C_R   0.269095 0.546332 0.248516 -0.120626
H21   H     H_    0.791905 0.911447 0.264199 0.100851
H22   H     H_    0.792888 0.087980 0.263358 0.106992
H23   H     H_    0.292944 0.412001 0.263616 0.107508
H24   H     H_    0.291837 0.588584 0.264539 0.099682
N21   N     N_R   0.682310 0.971180 0.208170 -0.042184
N22   N     N_R   0.682310 0.028820 0.208170 -0.041388
N23   N     N_R   0.182310 0.471180 0.208170 -0.041511
N24   N     N_R   0.182310 0.528820 0.208170 -0.041855
C33   C     C_R   0.648144 0.152031 0.092087 -0.147893
C34   C     C_R   0.647726 0.847843 0.091989 -0.148665
C35   C     C_R   0.148062 0.652068 0.092022 -0.148631
C36   C     C_R   0.147815 0.347886 0.092070 -0.147593
H25   H     H_    0.688490 0.165141 0.177244 0.102209
H26   H     H_    0.687895 0.834745 0.177104 0.102197
H27   H     H_    0.188266 0.665247 0.177124 0.102109
H28   H     H_    0.188131 0.334863 0.177243 0.102191
N25   N     N_R   0.606470 0.103570 0.057210 -0.040140
N26   N     N_R   0.606470 0.896430 0.057210 -0.040807
N27   N     N_R   0.106470 0.603570 0.057210 -0.040669
N28   N     N_R   0.106470 0.396430 0.057210 -0.040314
C37   C     C_R   0.557655 0.847988 0.908599 -0.126919
C38   C     C_R   0.558192 0.151785 0.908572 -0.123737
C39   C     C_R   0.057656 0.347975 0.908654 -0.127241
C40   C     C_R   0.058174 0.651781 0.908531 -0.123423
H29   H     H_    0.516980 0.836204 0.822983 0.170701
H30   H     H_    0.517899 0.163422 0.822914 0.172492
H31   H     H_    0.016982 0.336166 0.823050 0.170560
H32   H     H_    0.017869 0.663404 0.822864 0.172613
N29   N     N_R   0.549740 0.896000 0.943240 -0.054496
N30   N     N_R   0.549740 0.104000 0.943240 -0.053352
N31   N     N_R   0.049740 0.396000 0.943240 -0.054529
N32   N     N_R   0.049740 0.604000 0.943240 -0.053386
Ni1   Ni    Ni4+2 0.433780 0.065390 0.868430 0.256537
Ni2   Ni    Ni4+2 0.433780 0.934610 0.868430 0.258630
Ni3   Ni    Ni4+2 0.933780 0.565390 0.868430 0.256491
Ni4   Ni    Ni4+2 0.933780 0.434610 0.868430 0.258487
Ni5   Ni    Ni4+2 0.565800 0.934190 0.131570 0.208530
Ni6   Ni    Ni4+2 0.565800 0.065810 0.131570 0.208657
Ni7   Ni    Ni4+2 0.065800 0.434190 0.131570 0.207894
Ni8   Ni    Ni4+2 0.065800 0.565810 0.131570 0.209355
C41   C     C_R   0.539943 0.999621 0.715351 -0.045031
C42   C     C_R   0.040003 0.499607 0.715416 -0.044698
C43   C     C_R   0.824139 0.999577 0.272073 0.032330
C44   C     C_R   0.324226 0.500430 0.272827 0.032726
C45   C     C_R   0.619576 0.183130 0.000437 0.012794
C46   C     C_R   0.618788 0.816571 0.000355 0.014465
C47   C     C_R   0.119510 0.683153 0.000356 0.013096
C48   C     C_R   0.118850 0.316595 0.000460 0.014177
C49   C     C_3   0.021240 0.963886 0.516645 -0.162628
C50   C     C_3   0.033391 0.050623 0.487382 -0.159021
C51   C     C_3   0.535124 0.448679 0.484210 -0.157234
C52   C     C_3   0.520950 0.534089 0.519103 -0.162045
C53   C     C_3   0.955214 0.013738 0.471818 -0.128410
C54   C     C_3   0.456205 0.483716 0.471406 -0.130753
H33   H     H_    0.906335 0.024986 0.493314 0.125131
H34   H     H_    0.407960 0.470431 0.492602 0.125544
H35   H     H_    0.030346 0.934421 0.578595 0.129499
H36   H     H_    0.051520 0.092181 0.524618 0.128697
H37   H     H_    0.554406 0.406570 0.518662 0.128577
H38   H     H_    0.529602 0.561940 0.583044 0.129257
C55   C     C_3   0.925362 0.999350 0.355794 0.159282
C56   C     C_3   0.425493 0.500689 0.356198 0.160572
C57   C     C_3   0.990967 0.949321 0.400049 -0.177662
C58   C     C_3   0.002619 0.036307 0.370150 -0.151216
C59   C     C_3   0.503437 0.465580 0.367733 -0.151346
C60   C     C_3   0.489878 0.551222 0.403402 -0.176238
C61   C     C_3   0.070810 0.986163 0.416853 -0.079645
C62   C     C_3   0.570385 0.516247 0.417392 -0.085223
C63   C     C_3   0.099023 0.000657 0.531934 0.163572
C64   C     C_3   0.599461 0.499170 0.531661 0.164328
H39   H     H_    0.971791 0.907948 0.361964 0.124751
H40   H     H_    0.992207 0.065649 0.307395 0.127031
H41   H     H_    0.493455 0.437857 0.302969 0.126556
H42   H     H_    0.469785 0.593168 0.368189 0.124375
H43   H     H_    0.121390 0.975018 0.397936 0.172670
H44   H     H_    0.620279 0.529415 0.398701 0.175915
C65   C     C_3   0.288839 0.805398 0.121091 -0.384884
C66   C     C_3   0.288259 0.194331 0.121171 -0.387057
C67   C     C_3   0.789038 0.305298 0.121231 -0.385438
C68   C     C_3   0.787941 0.694165 0.120980 -0.386740
H45   H     H_    0.365342 0.794360 0.176821 0.166746
H46   H     H_    0.364743 0.205367 0.177269 0.167576
H47   H     H_    0.865537 0.294243 0.176915 0.166701
H48   H     H_    0.864433 0.705164 0.177189 0.167592
H49   H     H_    0.277269 0.842111 0.155803 0.182065
H50   H     H_    0.276526 0.157539 0.155460 0.177466
H51   H     H_    0.777518 0.342012 0.155988 0.182164
H52   H     H_    0.776097 0.657368 0.155154 0.177288
C69   C     C_3   0.733479 0.256699 0.119793 -0.453860
C70   C     C_3   0.732209 0.742740 0.119501 -0.452351
C71   C     C_3   0.233305 0.756782 0.119658 -0.453732
C72   C     C_3   0.232493 0.242879 0.119695 -0.452520
H53   H     H_    0.192227 0.769649 0.151199 0.172320
H54   H     H_    0.191156 0.229921 0.150817 0.171999
H55   H     H_    0.692451 0.269571 0.151396 0.172374
H56   H     H_    0.690751 0.729786 0.150468 0.171936
H57   H     H_    0.785829 0.225195 0.177246 0.179972
H58   H     H_    0.784516 0.774135 0.177490 0.179797
H59   H     H_    0.285669 0.725296 0.177163 0.179381
H60   H     H_    0.284778 0.274315 0.177558 0.180422
H61   H     H_    0.854951 0.257094 0.007340 0.159750
H62   H     H_    0.854930 0.742633 0.008510 0.159678
H63   H     H_    0.354883 0.757212 0.007314 0.159695
H64   H     H_    0.354945 0.242813 0.008415 0.159761
H65   H     H_    0.781043 0.185424 0.020277 0.158118
H66   H     H_    0.780860 0.814214 0.021582 0.158326
H67   H     H_    0.281029 0.685520 0.020290 0.158454
H68   H     H_    0.280775 0.314363 0.021394 0.158112
C73   C     C_3   0.777376 0.265606 0.957793 -0.354433
C74   C     C_3   0.777315 0.734172 0.958494 -0.354241
C75   C     C_3   0.277298 0.765698 0.957735 -0.354174
C76   C     C_3   0.277351 0.234299 0.958482 -0.354653
C77   C     C_3   0.150931 0.830651 0.928372 -0.500363
C78   C     C_3   0.150796 0.169209 0.928107 -0.499268
C79   C     C_3   0.651097 0.330603 0.928569 -0.499640
C80   C     C_3   0.650571 0.669157 0.927794 -0.500075
C81   C     C_3   0.258267 0.817357 0.002392 0.310612
C82   C     C_3   0.258121 0.182545 0.002581 0.311866
C83   C     C_3   0.758416 0.317266 0.002519 0.310435
C84   C     C_3   0.757924 0.682414 0.002424 0.312183
H69   H     H_    0.127175 0.841499 0.843643 0.195593
H70   H     H_    0.127314 0.158423 0.843430 0.196355
H71   H     H_    0.627309 0.341468 0.843836 0.196434
H72   H     H_    0.627162 0.658400 0.843134 0.195584
H73   H     H_    0.137234 0.867210 0.961392 0.149008
H74   H     H_    0.136969 0.132597 0.960788 0.148577
H75   H     H_    0.637466 0.367162 0.961654 0.149130
H76   H     H_    0.636608 0.632547 0.960346 0.148401
C85   C     C_3   0.665754 0.233473 0.000533 0.204062
C86   C     C_3   0.665010 0.766186 0.000396 0.203025
C87   C     C_3   0.165649 0.733523 0.000421 0.203718
C88   C     C_3   0.165133 0.266250 0.000541 0.203358
C89   C     C_3   0.727115 0.216153 0.961939 -0.362795
C90   C     C_3   0.726961 0.783595 0.962701 -0.362934
C91   C     C_3   0.227074 0.716225 0.961902 -0.362791
C92   C     C_3   0.226927 0.283688 0.962647 -0.362919
C93   C     C_3   0.594771 0.280815 0.926496 0.256661
C94   C     C_3   0.594097 0.718934 0.925617 0.259416
C95   C     C_3   0.094636 0.780842 0.926311 0.256808
C96   C     C_3   0.094275 0.218947 0.925939 0.259231
H77   H     H_    0.058542 0.794015 0.964007 0.062505
H78   H     H_    0.057877 0.205683 0.963189 0.061879
H79   H     H_    0.558727 0.293993 0.964249 0.062474
H80   H     H_    0.557567 0.705680 0.962711 0.061886
H81   H     H_    0.751603 0.271824 0.870707 0.189802
H82   H     H_    0.751921 0.728096 0.871494 0.189845
H83   H     H_    0.251546 0.771909 0.870654 0.190156
H84   H     H_    0.251901 0.228197 0.871469 0.189445
H85   H     H_    0.684004 0.196122 0.879478 0.194692
H86   H     H_    0.684268 0.803800 0.880450 0.193526
H87   H     H_    0.184013 0.696170 0.879464 0.194918
H88   H     H_    0.184109 0.303832 0.880336 0.193366
C97   C     C_3   0.618461 0.046192 0.642177 -0.382673
C98   C     C_3   0.599300 0.945351 0.627151 -0.407386
C99   C     C_3   0.119654 0.545635 0.643100 -0.382167
C100  C     C_3   0.097942 0.444964 0.626105 -0.407648
H89   H     H_    0.596950 0.087082 0.651999 0.206087
H90   H     H_    0.560416 0.908079 0.621296 0.207129
H91   H     H_    0.099375 0.586643 0.654201 0.205726
H92   H     H_    0.057882 0.408041 0.619119 0.207509
H93   H     H_    0.690392 0.039201 0.720171 0.165228
H94   H     H_    0.671668 0.941975 0.706191 0.170104
H95   H     H_    0.191496 0.537900 0.720715 0.165223
H96   H     H_    0.170097 0.440842 0.705209 0.170030
C101  C     C_3   0.625578 0.047468 0.545027 -0.376901
C102  C     C_3   0.605912 0.944868 0.529963 -0.371193
C103  C     C_3   0.126370 0.547064 0.545625 -0.375023
C104  C     C_3   0.104901 0.444564 0.529209 -0.372413
H97   H     H_    0.701138 0.044191 0.576155 0.163171
H98   H     H_    0.680873 0.938589 0.560579 0.164386
H99   H     H_    0.201803 0.543478 0.576401 0.163175
H100  H     H_    0.179828 0.437915 0.559990 0.164300
H101  H     H_    0.598390 0.087648 0.502746 0.184204
H102  H     H_    0.563723 0.909494 0.476367 0.190592
H103  H     H_    0.099636 0.587396 0.503880 0.185323
H104  H     H_    0.062203 0.409438 0.475078 0.189539
H105  H     H_    0.435484 0.046505 0.372835 0.185901
H106  H     H_    0.417208 0.975797 0.351965 0.195716
H107  H     H_    0.935911 0.546912 0.372714 0.185664
H108  H     H_    0.917027 0.476235 0.352193 0.196047
C105  C     C_3   0.447807 0.004252 0.510255 0.568190
C106  C     C_3   0.947993 0.505200 0.510438 0.568542
C107  C     C_3   0.550273 0.999245 0.625214 0.129876
C108  C     C_3   0.050321 0.499253 0.625262 0.129055
C109  C     C_3   0.567284 0.999553 0.464892 0.288918
C110  C     C_3   0.067263 0.499487 0.464883 0.288399
C111  C     C_3   0.461512 0.006712 0.417571 -0.530713
C112  C     C_3   0.961612 0.507158 0.417650 -0.530846
N33   N     N_R   0.521184 0.264352 0.812070 0.226473
O1    O     O_R   0.542254 0.253354 0.744021 -0.417827
O2    O     O_R   0.432472 0.265117 0.775024 -0.412520
N34   N     N_R   0.521016 0.735538 0.811169 0.225897
O3    O     O_R   0.542750 0.746744 0.743821 -0.425625
O4    O     O_R   0.432101 0.734636 0.773313 -0.412682
N35   N     N_R   0.021101 0.764342 0.811892 0.226411
O5    O     O_R   0.042228 0.753340 0.743897 -0.416687
O6    O     O_R   0.932375 0.765082 0.774791 -0.412036
N36   N     N_R   0.021050 0.235482 0.811488 0.225948
O7    O     O_R   0.042617 0.246665 0.743977 -0.426671
O8    O     O_R   0.932179 0.234549 0.773810 -0.413326
N37   N     N_R   0.397875 0.055219 0.503548 0.213223
O9    O     O_R   0.310877 0.053790 0.472753 -0.362651
O10   O     O_R   0.433561 0.103040 0.509468 -0.440063
N38   N     N_R   0.389033 0.955548 0.493187 0.221312
O11   O     O_R   0.392607 0.910874 0.448216 -0.440194
O12   O     O_R   0.340486 0.954152 0.533563 -0.384062
N39   N     N_R   0.899789 0.556810 0.504472 0.213356
O13   O     O_R   0.812989 0.556422 0.474383 -0.372577
O14   O     O_R   0.936803 0.604167 0.510466 -0.439443
N40   N     N_R   0.887692 0.457228 0.492883 0.222173
O15   O     O_R   0.889880 0.412317 0.447482 -0.439455
O16   O     O_R   0.839436 0.456587 0.533659 -0.376758

loop_
_geom_bond_atom_site_label_1
_geom_bond_atom_site_label_2
_geom_bond_distance
_ccdc_geom_bond_type
C26   H18   1.076613 S    
C35   H27   1.080567 S    
C68   H52   1.113244 S    
C91   H87   1.111700 S    
C22   C110  1.460829 S    
C41   C107  1.467058 S    
C78   C96   1.552968 S    
N25   N30   1.380148 A    
C30   N22   1.331199 A    
C97   C101  1.535501 S    
C6    H6    1.077288 S    
C40   C47   1.374001 A    
C29   N21   1.328488 A    
N11   N12   1.386102 A    
N8    Ni8   1.875168 S    
C8    C19   1.381233 A    
C77   H73   1.113039 S    
N27   N32   1.380148 A    
C4    H4    1.079712 S    
C13   C23   1.372377 A    
C52   C64   1.528956 S    
C62   H44   1.109850 S    
C56   C59   1.529677 S    
C31   N23   1.331056 A    
C11   C22   1.375805 A    
C46   C86   1.470952 S    
N21   N22   1.407099 A    
N17   N18   1.386102 A    
C57   C61   1.550439 S    
N4    N7    1.394553 A    
C61   H43   1.110043 S    
N40   O15   1.302922 A    
C93   H79   1.114842 S    
C4    C20   1.392638 A    
C1    H1    1.079666 S    
C69   C85   1.556079 S    
C71   H53   1.113293 S    
C9    C21   1.375697 A    
C7    H7    1.077374 S    
C3    H3    1.079963 S    
C42   C108  1.467184 S    
C58   C61   1.556310 S    
N33   O1    1.302014 A    
C38   C45   1.374111 A    
C39   H31   1.076776 S    
N1    N6    1.394540 A    
N16   Ni3   1.867832 S    
C44   C56   1.442031 S    
C38   H30   1.076977 S    
N1    Ni1   1.886768 S    
N14   Ni1   1.867832 S    
C33   C45   1.381186 A    
N3    N8    1.394540 A    
C104  H100  1.112997 S    
C75   C91   1.516157 S    
C52   H38   1.110836 S    
C102  C109  1.553562 S    
C103  H103  1.111183 S    
C51   C59   1.546083 S    
C68   C70   1.525921 S    
C35   C47   1.381262 A    
C25   H17   1.078104 S    
C18   C81   1.468422 S    
C65   H45   1.112385 S    
C67   C83   1.555854 S    
C106  C108  1.595553 S    
N30   Ni1   1.888219 S    
C72   C88   1.556345 S    
N28   N31   1.380135 A    
C27   N19   1.322726 A    
C100  C108  1.560615 S    
C80   C94   1.553135 S    
C10   N10   1.321756 A    
C14   C23   1.369015 A    
C68   H48   1.112339 S    
C39   N31   1.321727 A    
N34   O3    1.302155 A    
N6    Ni6   1.875168 S    
C30   H22   1.080563 S    
C26   C41   1.385306 A    
C75   H83   1.113151 S    
N39   O13   1.301818 A    
C77   C95   1.553128 S    
C29   H21   1.080210 S    
N31   Ni4   1.888119 S    
C65   C71   1.525459 S    
C67   H47   1.112400 S    
C4    N4    1.329612 A    
C71   H59   1.113440 S    
C28   C42   1.385411 A    
C66   H46   1.112369 S    
C79   C83   1.547242 S    
C19   C84   1.468609 S    
C80   H76   1.113060 S    
C8    H8    1.077293 S    
C24   C64   1.440631 S    
C7    N7    1.316683 A    
C106  C112  1.546296 S    
C28   N20   1.319031 A    
C99   C103  1.535949 S    
C8    N8    1.317061 A    
C16   C24   1.372409 A    
C65   H49   1.113246 S    
C94   N34   1.467499 S    
C87   C95   1.574931 S    
H106  C111  1.112148 S    
C2    H2    1.079945 S    
C74   C84   1.553059 S    
C88   C96   1.575052 S    
C86   C94   1.575138 S    
C100  C104  1.529610 S    
C45   C85   1.470048 S    
C75   C81   1.553119 S    
C54   C56   1.534363 S    
C85   C93   1.574886 S    
N33   O2    1.301313 A    
C76   H84   1.113170 S    
C26   N18   1.319162 A    
N37   O9    1.301979 A    
C101  C109  1.550216 S    
C69   H57   1.113427 S    
N2    N5    1.394553 A    
C9    H9    1.080075 S    
C59   C62   1.556619 S    
H67   C91   1.114605 S    
C21   C109  1.460779 S    
C11   H11   1.080142 S    
N19   N20   1.386102 A    
C79   C93   1.552986 S    
C12   H12   1.079748 S    
C12   N12   1.321544 A    
C47   C87   1.470361 S    
C49   H35   1.110634 S    
N4    Ni4   1.887947 S    
C3    C19   1.392807 A    
C101  H101  1.111154 S    
C51   C54   1.534929 S    
C15   H15   1.081288 S    
C17   C82   1.468171 S    
C43   C55   1.442239 S    
C67   C69   1.525395 S    
N13   N14   1.406613 A    
C15   N15   1.327237 A    
C87   C91   1.548449 S    
N25   Ni6   1.881709 S    
C57   H39   1.110027 S    
C97   H89   1.106510 S    
N23   N24   1.407099 A    
C79   H75   1.113045 S    
C74   C90   1.516059 S    
C20   C83   1.468096 S    
C67   H51   1.113250 S    
N27   Ni8   1.881709 S    
C78   C82   1.547347 S    
C73   C89   1.516041 S    
N26   N29   1.380135 A    
C49   C53   1.532023 S    
C53   H33   1.111094 S    
C49   C63   1.529013 S    
H107  C112  1.113994 S    
C66   C82   1.555734 S    
C106  N39   1.488237 S    
C105  C111  1.546205 S    
C5    H5    1.077369 S    
C105  C107  1.595638 S    
N15   N16   1.406613 A    
C70   H58   1.113363 S    
C96   N36   1.467504 S    
C36   C48   1.380836 A    
C3    N3    1.329571 A    
C71   C87   1.556032 S    
C51   H37   1.110036 S    
N24   Ni8   1.874762 S    
N12   Ni7   1.891853 S    
C95   N35   1.467544 S    
N9    N10   1.386102 A    
N38   O12   1.302348 A    
C1    N1    1.329606 A    
C32   H24   1.080124 S    
N22   Ni6   1.874761 S    
C15   C24   1.368528 A    
C55   C57   1.531878 S    
C7    C20   1.380759 A    
C49   C57   1.540882 S    
N21   Ni5   1.874842 S    
C50   C58   1.545555 S    
C69   H55   1.113294 S    
N26   Ni5   1.880537 S    
C60   C62   1.549846 S    
C77   C81   1.547247 S    
C55   C58   1.529629 S    
C70   H56   1.113317 S    
C73   C83   1.553134 S    
N34   O4    1.301392 A    
C98   C107  1.560533 S    
C95   H77   1.114840 S    
C70   C86   1.556293 S    
C74   H82   1.113187 S    
C40   N32   1.321219 A    
C2    C18   1.392815 A    
N3    Ni3   1.886768 S    
C52   C60   1.540256 S    
C76   C82   1.553059 S    
C97   C107  1.562108 S    
C72   H60   1.113362 S    
C103  H99   1.112915 S    
C73   H81   1.113138 S    
C37   C46   1.373999 A    
C34   C46   1.380976 A    
C37   N29   1.321815 A    
C35   N27   1.324324 A    
C2    N2    1.329567 A    
C10   C21   1.373853 A    
C37   H29   1.076766 S    
C110  C112  1.548692 S    
C100  H92   1.107756 S    
N7    Ni7   1.875267 S    
N13   Ni2   1.867752 S    
H108  C112  1.112079 S    
C52   C54   1.532007 S    
C53   C55   1.534309 S    
N29   Ni2   1.888119 S    
H64   C76   1.114443 S    
C88   C92   1.548472 S    
C16   N16   1.330521 A    
C29   C43   1.379150 A    
C54   H34   1.111167 S    
C66   H50   1.113254 S    
C79   H71   1.111933 S    
C32   C44   1.378699 A    
N36   O7    1.302175 A    
H63   C75   1.114421 S    
C27   H19   1.078178 S    
C23   C63   1.441277 S    
C78   H70   1.111935 S    
C14   H14   1.081304 S    
C36   H28   1.080584 S    
C30   C43   1.382893 A    
C77   H69   1.111948 S    
C105  N38   1.491188 S    
C34   N26   1.324489 A    
C56   C60   1.532042 S    
C25   C41   1.387265 A    
C98   C102  1.530098 S    
N17   Ni1   1.886612 S    
N28   Ni7   1.880537 S    
C93   N33   1.467549 S    
C99   C108  1.561683 S    
C62   C64   1.531314 S    
H62   C74   1.114439 S    
N23   Ni7   1.874840 S    
C39   C48   1.374105 A    
C92   H88   1.111748 S    
C99   H95   1.113575 S    
C80   C84   1.547344 S    
C102  H98   1.112987 S    
N40   O16   1.302379 A    
C98   H94   1.113517 S    
C101  H97   1.112930 S    
C65   C81   1.555911 S    
C28   H20   1.076559 S    
N35   O5    1.302011 A    
C11   N11   1.325947 A    
C6    N6    1.316903 A    
C50   C53   1.534608 S    
C72   H54   1.113330 S    
C12   C22   1.373667 A    
C33   N25   1.324050 A    
C32   N24   1.328041 A    
C34   H26   1.080546 S    
C5    N5    1.316795 A    
C14   N14   1.327542 A    
C31   H23   1.080555 S    
H105  C111  1.113997 S    
C61   C63   1.531335 S    
C48   C88   1.470524 S    
N19   Ni3   1.886612 S    
C99   H91   1.106680 S    
N18   Ni2   1.887772 S    
C1    C17   1.392564 A    
C60   H42   1.110074 S    
C27   C42   1.387173 A    
C94   H80   1.114865 S    
C40   H32   1.076985 S    
C51   C64   1.530924 S    
C89   H85   1.111708 S    
C106  N40   1.491153 S    
N37   O10   1.301758 A    
H65   C89   1.114613 S    
C31   C44   1.382951 A    
N36   O8    1.301407 A    
N39   O14   1.301816 A    
C13   H13   1.081667 S    
C103  C110  1.550409 S    
N20   Ni4   1.887772 S    
C100  H96   1.113530 S    
N2    Ni2   1.887947 S    
C68   C84   1.555800 S    
C96   H78   1.114876 S    
C102  H102  1.111223 S    
H61   C73   1.114423 S    
C5    C18   1.381048 A    
C6    C17   1.380862 A    
C97   H93   1.113582 S    
N10   Ni5   1.891853 S    
C16   H16   1.081635 S    
C98   H90   1.107757 S    
N38   O11   1.302939 A    
C80   H72   1.111942 S    
C59   H41   1.110066 S    
C58   H40   1.109927 S    
N15   Ni4   1.867752 S    
C86   C90   1.548458 S    
H66   C90   1.114654 S    
C109  C111  1.548857 S    
C66   C72   1.525792 S    
C104  H104  1.111324 S    
C90   H86   1.111735 S    
C85   C89   1.548440 S    
C76   C92   1.515898 S    
C78   H74   1.113070 S    
C105  N37   1.488216 S    
N9    Ni6   1.893023 S    
C36   N28   1.324133 A    
C50   C63   1.530850 S    
C104  C110  1.553387 S    
H68   C92   1.114664 S    
C13   N13   1.330468 A    
C50   H36   1.110012 S    
N32   Ni3   1.888219 S    
C33   H25   1.080609 S    
N11   Ni8   1.893023 S    
N35   O6    1.301312 A    
C38   N30   1.321138 A    
C9    N9    1.325737 A    
N5    Ni5   1.875267 S    
C25   N17   1.322482 A    
C10   H10   1.079743 S    
