data_mof_unit_5573.cif
_audit_creation_date              2012-12-10T18:21:52-0500
_audit_creation_method            fapswitch 2.2
_symmetry_space_group_name_H-M    P1
_symmetry_Int_Tables_number       1
_space_group_crystal_system       triclinic
_cell_length_a                    19.319961
_cell_length_b                    10.65221
_cell_length_c                    9.535856
_cell_angle_alpha                 89.284335
_cell_angle_beta                  87.983451
_cell_angle_gamma                 92.936891
_cell_volume                      1958.48965627

loop_
_atom_site_label
_atom_site_type_symbol
_atom_type_description
_atom_site_fract_x
_atom_site_fract_y
_atom_site_fract_z
_atom_type_partial_charge
C1    C     C_R   0.501193 0.260278 0.500395 0.885607
C2    C     C_R   0.499762 0.739759 0.499427 0.880176
C3    C     C_3   0.537415 0.042038 0.605822 0.337453
C4    C     C_3   0.464705 0.957914 0.393424 0.362521
C5    C     C_3   0.567794 0.963455 0.485500 -0.316647
C6    C     C_3   0.434345 0.036301 0.513614 -0.357046
C7    C     C_3   0.500986 0.876084 0.498630 -0.144305
C8    C     C_3   0.501019 0.123895 0.500687 -0.158783
C9    C     C_3   0.472136 0.954835 0.618753 0.341706
C10   C     C_3   0.529941 0.045168 0.380458 0.356099
C11   C     C_3   0.495534 0.611535 0.047856 0.298707
C12   C     C_3   0.504409 0.388628 0.952104 0.276678
C13   C     C_3   0.444305 0.543725 0.953271 0.275285
C14   C     C_3   0.555828 0.456690 0.046521 0.308835
C15   C     C_3   0.552017 0.569042 0.945922 0.313587
C16   C     C_3   0.447955 0.431577 0.053602 0.262121
C17   C     C_R   0.367667 0.495110 0.502738 0.886401
C18   C     C_R   0.632422 0.502296 0.498064 0.860387
C19   C     C_R   0.248161 0.405762 0.576971 0.368235
C20   C     C_R   0.751535 0.590796 0.417785 0.319144
C21   C     C_R   0.175992 0.416345 0.581448 0.328813
C22   C     C_R   0.824072 0.588699 0.422745 0.304081
C23   C     C_R   0.146253 0.516076 0.510093 -0.320520
C24   C     C_R   0.854395 0.506721 0.517690 -0.292242
C25   C     C_R   0.189082 0.609608 0.438983 0.386421
C26   C     C_R   0.812377 0.421911 0.602499 0.395964
C27   C     C_R   0.261604 0.606114 0.445626 0.318444
C28   C     C_R   0.740244 0.414141 0.586085 0.313301
C29   C     C_R   0.291629 0.501543 0.509368 -0.350151
C30   C     C_R   0.709008 0.501312 0.497073 -0.345699
C31   C     C_R   0.930142 0.507266 0.522158 0.496057
C32   C     C_R   0.070247 0.516911 0.507382 0.487638
Cu1   Cu    Cu3+1 0.500020 0.499990 0.643150 1.152327
Cu2   Cu    Cu3+1 0.499980 0.500010 0.356850 1.173669
H1    H     H_    0.622234 0.935473 0.475754 0.242698
H2    H     H_    0.379843 0.063252 0.521854 0.252465
N1    N     N_R   0.035926 0.613714 0.562692 -0.135475
N2    N     N_R   0.964403 0.410605 0.466864 -0.159099
N3    N     N_R   0.966908 0.609519 0.568609 -0.136763
N4    N     N_R   0.033335 0.415062 0.460358 -0.151531
N5    N     N_3   0.500050 0.499970 0.858290 -0.262368
N6    N     N_3   0.499950 0.500030 0.141710 -0.262934
O1    O     O_R   0.500030 0.316850 0.620870 -0.504054
O2    O     O_R   0.499970 0.683150 0.379130 -0.498570
O3    O     O_R   0.500000 0.316860 0.379090 -0.525972
O4    O     O_R   0.500000 0.683140 0.620910 -0.521285
O5    O     O_R   0.400160 0.499980 0.620930 -0.502196
O6    O     O_R   0.599840 0.500020 0.379070 -0.492079
O7    O     O_R   0.400130 0.499990 0.379150 -0.522765
O8    O     O_R   0.599870 0.500010 0.620850 -0.535146
S1    S     S_3+6 0.278687 0.265255 0.651302 0.105202
O9    O     O_2   0.242416 0.240464 0.791773 -0.169383
O10   O     O_2   0.259464 0.158841 0.555847 -0.214618
O11   O     O_3   0.364200 0.268255 0.674173 -0.532801
H3    H     H_    0.371693 0.192869 0.732401 0.383792
S2    S     S_3+6 0.717453 0.696397 0.295732 0.119448
O12   O     O_2   0.645763 0.732976 0.337228 -0.272657
O13   O     O_2   0.762941 0.814726 0.277637 -0.179875
O14   O     O_3   0.715828 0.620055 0.143197 -0.412782
H4    H     H_    0.765148 0.612305 0.114256 0.381506
S3    S     S_3+6 0.623950 0.670598 0.882746 0.092733
O15   O     O_2   0.686512 0.594415 0.858631 -0.245886
O16   O     O_2   0.609112 0.737750 0.749131 -0.299841
O17   O     O_3   0.640301 0.780333 0.004021 -0.439005
H5    H     H_    0.680678 0.832004 0.964864 0.394840
S4    S     S_3+6 0.373530 0.336814 0.115436 0.097177
O18   O     O_2   0.348425 0.256189 0.997710 -0.234791
O19   O     O_2   0.390979 0.252121 0.234459 -0.252042
O20   O     O_3   0.309814 0.428994 0.168662 -0.487898
H6    H     H_    0.284684 0.448350 0.082917 0.380586
O21   O     O_3   0.135258 0.324585 0.653802 -0.591505
H7    H     H_    0.093094 0.361969 0.693428 0.346043
O22   O     O_3   0.863841 0.667360 0.331291 -0.621796
H8    H     H_    0.911020 0.636850 0.317450 0.358170
S5    S     S_3+6 0.152818 0.732564 0.341493 0.120528
O23   O     O_2   0.089379 0.683449 0.268728 -0.265253
O24   O     O_2   0.132908 0.833793 0.441297 -0.195332
O25   O     O_3   0.210074 0.794488 0.219309 -0.421552
H9    H     H_    0.187344 0.867318 0.179079 0.397124
S6    S     S_3+6 0.849787 0.320977 0.726152 0.113424
O26   O     O_2   0.798364 0.282857 0.842876 -0.172359
O27   O     O_2   0.871763 0.205384 0.651374 -0.216151
O28   O     O_3   0.919471 0.393648 0.796505 -0.521431
H10   H     H_    0.943643 0.325953 0.843615 0.391732
O29   O     O_3   0.301727 0.706746 0.388888 -0.588588
H11   H     H_    0.346948 0.713161 0.434441 0.329375
O30   O     O_3   0.701666 0.318920 0.657091 -0.602219
H12   H     H_    0.659807 0.296122 0.604108 0.339205
O31   O     O_3   0.574635 0.088333 0.718800 -0.638583
H13   H     H_    0.590393 0.013081 0.768147 0.370978
O32   O     O_3   0.427362 0.911552 0.280645 -0.624528
H14   H     H_    0.411606 0.986741 0.231213 0.377571
O33   O     O_3   0.443045 0.904956 0.745084 -0.664638
H15   H     H_    0.431203 0.978674 0.801857 0.353803
O34   O     O_3   0.558921 0.095065 0.254050 -0.663397
H16   H     H_    0.571704 0.021381 0.198112 0.371626
O35   O     O_3   0.384768 0.592529 0.899344 -0.635987
H17   H     H_    0.360900 0.631950 0.979899 0.356763
O36   O     O_3   0.615126 0.406706 0.099974 -0.599311
H18   H     H_    0.641925 0.377591 0.017126 0.376702
O37   O     O_3   0.489752 0.732077 0.101419 -0.592645
H19   H     H_    0.486091 0.788017 0.018453 0.362783
O38   O     O_3   0.509794 0.267926 0.898730 -0.614888
H20   H     H_    0.511604 0.211650 0.981940 0.361441

loop_
_geom_bond_atom_site_label_1
_geom_bond_atom_site_label_2
_ccdc_geom_bond_type
S4    O19   D    
O30   H12   S    
O33   H15   S    
C9    O33   S    
C27   C29   A    
C1    C8    S    
C17   C29   S    
O22   H8    S    
O34   H16   S    
Cu2   N6    S    
C20   S2    S    
C6    C9    S    
C13   N5    S    
O35   H17   S    
C14   O36   S    
C20   C30   A    
O29   H11   S    
C2    O4    A    
O37   H19   S    
C21   O21   S    
O28   H10   S    
C19   C21   A    
C24   C26   A    
S6    O28   S    
S4    O20   S    
S2    O12   D    
C11   N6    S    
C27   O29   S    
S3    O16   D    
C2    C7    S    
C11   C15   S    
C1    O1    A    
C12   C16   S    
C31   N3    A    
C18   C30   S    
C14   N6    S    
C4    O32   S    
C23   C25   A    
S4    O18   D    
O14   H4    S    
Cu1   O4    S    
O20   H6    S    
C4    C7    S    
S2    O13   D    
S1    O9    D    
Cu1   O1    S    
Cu2   O2    S    
C15   N5    S    
C12   O38   S    
S6    O27   D    
C3    C8    S    
C17   O7    A    
O32   H14   S    
C5    C7    S    
O25   H9    S    
C6    C8    S    
Cu1   O8    S    
C26   S6    S    
S1    O10   D    
S3    O17   S    
S5    O23   D    
C12   N5    S    
C3    C9    S    
O36   H18   S    
C28   O30   S    
Cu1   Cu2   S    
C15   S3    S    
C11   O37   S    
Cu2   O3    S    
C32   N1    A    
S5    O24   D    
C4    C6    S    
C12   C14   S    
C21   C23   A    
Cu1   O5    S    
C22   C24   A    
C16   S4    S    
C4    C10   S    
C19   C29   A    
C16   N6    S    
C2    O2    A    
C18   O8    A    
C7    C9    S    
O11   H3    S    
Cu2   O7    S    
C17   O5    A    
C20   C22   A    
S6    O26   D    
C3    C5    S    
C18   O6    A    
S2    O14   S    
C25   C27   A    
C26   C28   A    
C31   N2    A    
C3    O31   S    
S1    O11   S    
Cu1   N5    S    
C23   C32   S    
C28   C30   A    
C24   C31   S    
C5    C10   S    
N1    N3    A    
O17   H5    S    
N2    N4    A    
C11   C13   S    
C1    O3    A    
C10   O34   S    
C5    H1    S    
C6    H2    S    
C32   N4    A    
C13   O35   S    
S3    O15   D    
S5    O25   S    
C19   S1    S    
O21   H7    S    
Cu2   O6    S    
C8    C10   S    
C13   C16   S    
O38   H20   S    
C14   C15   S    
C22   O22   S    
C25   S5    S    
O31   H13   S    
