data_mof_unit_64856.cif
_audit_creation_date              2013-03-05T15:55:19-0500
_audit_creation_method            fapswitch 2.2
_symmetry_space_group_name_H-M    P1
_symmetry_Int_Tables_number       1
_space_group_crystal_system       triclinic
_cell_length_a                    35.959893
_cell_length_b                    34.471798
_cell_length_c                    24.922038
_cell_angle_alpha                 89.999668
_cell_angle_beta                  136.316695
_cell_angle_gamma                 90.000064
_cell_volume                      21337.2062771

loop_
_atom_site_label
_atom_site_type_symbol
_atom_site_description
_atom_site_fract_x
_atom_site_fract_y
_atom_site_fract_z
_atom_type_partial_charge
Zn1   Zn    Zn3+2 0.063530 0.717220 0.065500 0.978475
Zn2   Zn    Zn3+2 0.936470 0.282780 0.934500 0.978481
Zn3   Zn    Zn3+2 0.936470 0.717220 0.934500 0.978507
Zn4   Zn    Zn3+2 0.063530 0.282780 0.065500 0.978475
Zn5   Zn    Zn3+2 0.563530 0.217220 0.065500 0.978426
Zn6   Zn    Zn3+2 0.436470 0.782780 0.934500 0.978446
Zn7   Zn    Zn3+2 0.436470 0.217220 0.934500 0.978440
Zn8   Zn    Zn3+2 0.563530 0.782780 0.065500 0.978446
Zn9   Zn    Zn3+2 0.001960 0.782720 0.065530 1.040068
Zn10  Zn    Zn3+2 0.998040 0.217280 0.934470 1.040057
Zn11  Zn    Zn3+2 0.998040 0.782720 0.934470 1.040057
Zn12  Zn    Zn3+2 0.001960 0.217280 0.065530 1.040069
Zn13  Zn    Zn3+2 0.501960 0.282720 0.065530 1.040086
Zn14  Zn    Zn3+2 0.498040 0.717280 0.934470 1.040066
Zn15  Zn    Zn3+2 0.498040 0.282720 0.934470 1.040058
Zn16  Zn    Zn3+2 0.501960 0.717280 0.065530 1.040090
O1    O     O_3   1.000000 0.749970 0.000000 -0.506167
O2    O     O_3   1.000000 0.250030 0.000000 -0.506162
O3    O     O_3   0.500000 0.249970 0.000000 -0.506182
O4    O     O_3   0.500000 0.750030 0.000000 -0.506186
O5    O     O_R   0.894890 0.727050 0.954170 -0.641640
O6    O     O_R   0.105110 0.272950 0.045830 -0.641645
O7    O     O_R   0.105110 0.727050 0.045830 -0.641646
O8    O     O_R   0.894890 0.272950 0.954170 -0.641648
O9    O     O_R   0.394890 0.227050 0.954170 -0.641659
O10   O     O_R   0.605110 0.772950 0.045830 -0.641656
O11   O     O_R   0.605110 0.227050 0.045830 -0.641658
O12   O     O_R   0.394890 0.772950 0.954170 -0.641657
O13   O     O_R   0.065880 0.772890 0.174890 -0.623980
O14   O     O_R   0.934120 0.227110 0.825110 -0.623984
O15   O     O_R   0.934120 0.772890 0.825110 -0.623971
O16   O     O_R   0.065880 0.227110 0.174890 -0.623988
O17   O     O_R   0.565880 0.272890 0.174890 -0.623923
O18   O     O_R   0.434120 0.727110 0.825110 -0.623913
O19   O     O_R   0.434120 0.272890 0.825110 -0.623917
O20   O     O_R   0.565880 0.727110 0.174890 -0.623901
O21   O     O_R   0.001370 0.837410 0.045880 -0.603569
O22   O     O_R   0.998630 0.162590 0.954120 -0.603571
O23   O     O_R   0.998630 0.837410 0.954120 -0.603575
O24   O     O_R   0.001370 0.162590 0.045880 -0.603572
O25   O     O_R   0.501370 0.337410 0.045880 -0.603456
O26   O     O_R   0.498630 0.662590 0.954120 -0.603491
O27   O     O_R   0.498630 0.337410 0.954120 -0.603498
O28   O     O_R   0.501370 0.662590 0.045880 -0.603463
O29   O     O_R   0.955530 0.662540 0.954140 -0.643967
O30   O     O_R   0.044470 0.337460 0.045860 -0.643969
O31   O     O_R   0.044470 0.662540 0.045860 -0.643971
O32   O     O_R   0.955530 0.337460 0.954140 -0.643975
O33   O     O_R   0.455530 0.162540 0.954140 -0.643957
O34   O     O_R   0.544470 0.837460 0.045860 -0.643955
O35   O     O_R   0.544470 0.162540 0.045860 -0.643953
O36   O     O_R   0.455530 0.837460 0.954140 -0.643954
O37   O     O_R   0.108980 0.727040 0.174870 -0.633872
O38   O     O_R   0.891020 0.272960 0.825130 -0.633887
O39   O     O_R   0.891020 0.727040 0.825130 -0.633852
O40   O     O_R   0.108980 0.272960 0.174870 -0.633873
O41   O     O_R   0.608980 0.227040 0.174870 -0.633897
O42   O     O_R   0.391020 0.772960 0.825130 -0.633881
O43   O     O_R   0.391020 0.227040 0.825130 -0.633889
O44   O     O_R   0.608980 0.772960 0.174870 -0.633877
O45   O     O_R   0.940740 0.772900 0.045880 -0.632865
O46   O     O_R   0.059260 0.227100 0.954120 -0.632873
O47   O     O_R   0.059260 0.772900 0.954120 -0.632874
O48   O     O_R   0.940740 0.227100 0.045880 -0.632858
O49   O     O_R   0.440740 0.272900 0.045880 -0.632833
O50   O     O_R   0.559260 0.727100 0.954120 -0.632852
O51   O     O_R   0.559260 0.272900 0.954120 -0.632851
O52   O     O_R   0.440740 0.727100 0.045880 -0.632843
C1    C     C_R   0.900281 0.749945 0.999996 0.818678
C2    C     C_R   0.099719 0.250055 0.000004 0.818674
C3    C     C_R   0.099719 0.749945 0.000004 0.818669
C4    C     C_R   0.900281 0.250055 0.999996 0.818689
C5    C     C_R   0.400281 0.249945 0.999996 0.818625
C6    C     C_R   0.599719 0.750055 0.000004 0.818618
C7    C     C_R   0.599719 0.249945 0.000004 0.818624
C8    C     C_R   0.400281 0.750055 0.999996 0.818622
C9    C     C_R   0.105477 0.749546 0.211621 0.833679
C10   C     C_R   0.894524 0.250455 0.788379 0.833724
C11   C     C_R   0.894522 0.749548 0.788379 0.833693
C12   C     C_R   0.105477 0.250454 0.211621 0.833674
C13   C     C_R   0.605476 0.249544 0.211621 0.833641
C14   C     C_R   0.394522 0.750454 0.788379 0.833654
C15   C     C_R   0.394523 0.249545 0.788379 0.833665
C16   C     C_R   0.605478 0.750453 0.211621 0.833646
C17   C     C_R   0.999998 0.855743 0.999998 0.960509
C18   C     C_R   0.999998 0.144256 0.999998 0.960489
C19   C     C_R   0.500000 0.355744 1.000000 0.960116
C20   C     C_R   0.500001 0.644256 0.000001 0.960180
C21   C     C_R   1.000000 0.644007 0.999999 0.825774
C22   C     C_R   1.000000 0.355993 0.000000 0.825758
C23   C     C_R   0.500000 0.144007 1.000000 0.825749
C24   C     C_R   0.500000 0.855993 0.000001 0.825776
C25   C     C_R   0.047556 0.418796 0.038067 -0.278295
C26   C     C_R   0.952442 0.581203 0.961922 -0.278291
C27   C     C_R   0.952444 0.418797 0.961934 -0.278311
C28   C     C_R   0.047556 0.581203 0.038066 -0.278329
C29   C     C_R   0.547545 0.918796 0.038010 -0.278324
C30   C     C_R   0.452457 0.081204 0.962001 -0.278322
C31   C     C_R   0.452457 0.918796 0.962001 -0.278348
C32   C     C_R   0.547543 0.081204 0.037997 -0.278332
C33   C     C_R   1.000000 0.398466 0.000000 -0.039478
C34   C     C_R   0.999999 0.601534 0.999996 -0.039545
C35   C     C_R   0.500000 0.898466 0.000004 -0.039549
C36   C     C_R   0.500000 0.101534 0.999999 -0.039480
C37   C     C_R   0.952048 0.459282 0.961363 0.101364
C38   C     C_R   0.047951 0.540718 0.038632 0.101373
C39   C     C_R   0.047952 0.459282 0.038634 0.101371
C40   C     C_R   0.952046 0.540718 0.961356 0.101382
C41   C     C_R   0.452062 0.959282 0.961438 0.101387
C42   C     C_R   0.547939 0.040718 0.038564 0.101373
C43   C     C_R   0.547940 0.959281 0.038572 0.101399
C44   C     C_R   0.452062 0.040718 0.961438 0.101387
C45   C     C_R   0.999999 0.479629 0.999997 0.063028
C46   C     C_R   0.999999 0.520371 0.999995 0.063000
C47   C     C_R   0.500001 0.979629 0.000004 0.062973
C48   C     C_R   0.500000 0.020371 0.000002 0.063005
C49   C     C_R   0.904541 0.479758 0.922800 -0.222536
C50   C     C_R   0.095458 0.520242 0.077194 -0.222506
C51   C     C_R   0.095458 0.479757 0.077195 -0.222520
C52   C     C_R   0.904540 0.520243 0.922795 -0.222485
C53   C     C_R   0.404569 0.979758 0.922950 -0.222496
C54   C     C_R   0.595432 0.020242 0.077054 -0.222529
C55   C     C_R   0.595433 0.979757 0.077058 -0.222480
C56   C     C_R   0.404569 0.020243 0.922950 -0.222517
H1    H     H_    0.084324 0.403130 0.067440 0.168327
H2    H     H_    0.915673 0.596870 0.932545 0.168346
H3    H     H_    0.915677 0.403131 0.932563 0.168325
H4    H     H_    0.084324 0.596869 0.067442 0.168338
H5    H     H_    0.584303 0.903129 0.067332 0.168315
H6    H     H_    0.415700 0.096871 0.932683 0.168301
H7    H     H_    0.415699 0.903129 0.932679 0.168315
H8    H     H_    0.584299 0.096870 0.067314 0.168308
H9    H     H_    0.867422 0.464457 0.892685 0.146337
H10   H     H_    0.132578 0.535543 0.107311 0.146341
H11   H     H_    0.132578 0.464456 0.107311 0.146335
H12   H     H_    0.867420 0.535544 0.892678 0.146348
H13   H     H_    0.367459 0.964457 0.892892 0.146346
H14   H     H_    0.632541 0.035543 0.107110 0.146345
H15   H     H_    0.632542 0.964456 0.107117 0.146351
H16   H     H_    0.367459 0.035544 0.892893 0.146340
C57   C     C_3   0.756995 0.213656 0.989159 -0.156512
C58   C     C_3   0.243082 0.786332 0.010995 -0.156520
C59   C     C_3   0.244068 0.213829 0.012960 -0.156622
C60   C     C_3   0.757093 0.786359 0.989355 -0.156504
C61   C     C_3   0.256918 0.713667 0.989005 -0.156522
C62   C     C_3   0.743005 0.286344 0.010841 -0.156517
C63   C     C_3   0.742907 0.713641 0.010645 -0.156507
C64   C     C_3   0.255932 0.286171 0.987039 -0.156622
C65   C     C_3   0.203269 0.736555 0.931484 -0.161987
C66   C     C_3   0.796702 0.263517 0.068459 -0.161995
C67   C     C_3   0.796666 0.736391 0.068386 -0.162009
C68   C     C_3   0.202916 0.262514 0.930782 -0.161854
C69   C     C_3   0.703298 0.236483 0.931541 -0.161978
C70   C     C_3   0.296731 0.763445 0.068516 -0.161968
C71   C     C_3   0.297084 0.237485 0.069218 -0.161835
C72   C     C_3   0.703334 0.763609 0.931614 -0.161991
H17   H     H_    0.164348 0.725505 0.875187 0.138717
H18   H     H_    0.835600 0.274626 0.124709 0.138710
H19   H     H_    0.835533 0.725205 0.124576 0.138703
H20   H     H_    0.163704 0.272800 0.873907 0.138798
H21   H     H_    0.664400 0.225373 0.875291 0.138718
H22   H     H_    0.335652 0.774495 0.124813 0.138726
H23   H     H_    0.336296 0.227200 0.126093 0.138809
H24   H     H_    0.664467 0.774795 0.875424 0.138712
H25   H     H_    0.763265 0.183792 0.980247 0.142603
H26   H     H_    0.236875 0.816186 0.020033 0.142601
H27   H     H_    0.238671 0.184108 0.023614 0.142556
H28   H     H_    0.763444 0.816234 0.980603 0.142609
H29   H     H_    0.263125 0.683813 0.979967 0.142598
H30   H     H_    0.736734 0.316207 0.019753 0.142598
H31   H     H_    0.736556 0.683766 0.019397 0.142604
H32   H     H_    0.261329 0.315892 0.976386 0.142553
H33   H     H_    0.720346 0.291681 0.894942 0.140098
H34   H     H_    0.279566 0.708208 0.104882 0.140099
H35   H     H_    0.278414 0.293192 0.102581 0.140064
H36   H     H_    0.720233 0.708461 0.894717 0.140108
H37   H     H_    0.220434 0.791792 0.895118 0.140091
H38   H     H_    0.779654 0.208319 0.105058 0.140090
H39   H     H_    0.779767 0.791539 0.105283 0.140098
H40   H     H_    0.221586 0.206808 0.897419 0.140055
C73   C     C_1   0.139507 0.749902 0.000083 -0.130881
C74   C     C_1   0.860492 0.250098 0.999916 -0.130883
C75   C     C_1   0.860492 0.749902 0.999916 -0.130872
C76   C     C_1   0.139507 0.250098 0.000084 -0.130875
C77   C     C_1   0.639507 0.249902 0.000083 -0.130880
C78   C     C_1   0.360492 0.750098 0.999916 -0.130878
C79   C     C_1   0.360492 0.249902 0.999916 -0.130872
C80   C     C_1   0.639508 0.750098 0.000084 -0.130872
C81   C     C_3   0.266518 0.727059 0.057575 -0.158360
C82   C     C_3   0.733433 0.272880 0.942328 -0.158362
C83   C     C_3   0.733372 0.727198 0.942205 -0.158351
C84   C     C_3   0.265886 0.273709 0.056312 -0.158395
C85   C     C_3   0.766567 0.227120 0.057672 -0.158380
C86   C     C_3   0.233482 0.772940 0.942425 -0.158378
C87   C     C_3   0.234114 0.226291 0.943688 -0.158415
C88   C     C_3   0.766628 0.772802 0.057795 -0.158370
C89   C     C_3   0.213522 0.749947 0.000054 0.194472
C90   C     C_3   0.786477 0.250052 0.999946 0.194476
C91   C     C_3   0.786477 0.749948 0.999946 0.194471
C92   C     C_3   0.213522 0.250052 0.000054 0.194473
C93   C     C_3   0.713522 0.249947 0.000054 0.194475
C94   C     C_3   0.286477 0.750052 0.999946 0.194471
C95   C     C_3   0.286478 0.249947 0.999946 0.194473
C96   C     C_3   0.713523 0.750052 0.000054 0.194470
C97   C     C_1   0.172942 0.749905 0.000093 -0.076207
C98   C     C_1   0.827058 0.250094 0.999907 -0.076207
C99   C     C_1   0.827058 0.749906 0.999907 -0.076203
C100  C     C_1   0.172942 0.250094 0.000093 -0.076208
C101  C     C_1   0.672942 0.249905 0.000093 -0.076215
C102  C     C_1   0.327058 0.750095 0.999907 -0.076210
C103  C     C_1   0.327058 0.249905 0.999907 -0.076209
C104  C     C_1   0.672942 0.750094 0.000093 -0.076210
C105  C     C_R   0.667021 0.716257 0.336169 -0.243404
C106  C     C_R   0.333020 0.283741 0.663831 -0.243393
C107  C     C_R   0.333006 0.716259 0.663832 -0.243395
C108  C     C_R   0.666959 0.283739 0.336168 -0.243390
C109  C     C_R   0.166986 0.216258 0.336169 -0.243395
C110  C     C_R   0.832980 0.783743 0.663831 -0.243394
C111  C     C_R   0.833033 0.216259 0.663833 -0.243389
C112  C     C_R   0.166994 0.783742 0.336168 -0.243394
C113  C     C_R   0.647048 0.751544 0.296378 -0.090480
C114  C     C_R   0.352953 0.248453 0.703621 -0.090522
C115  C     C_R   0.352952 0.751546 0.703621 -0.090510
C116  C     C_R   0.647047 0.248452 0.296379 -0.090540
C117  C     C_R   0.147049 0.251545 0.296379 -0.090519
C118  C     C_R   0.852953 0.748456 0.703622 -0.090493
C119  C     C_R   0.852951 0.251547 0.703621 -0.090559
C120  C     C_R   0.147048 0.748455 0.296379 -0.090510
C121  C     C_R   0.667309 0.787124 0.337297 -0.071961
C122  C     C_R   0.332653 0.212874 0.662700 -0.071983
C123  C     C_R   0.332664 0.787126 0.662700 -0.071971
C124  C     C_R   0.667366 0.212872 0.337303 -0.071989
C125  C     C_R   0.167346 0.287125 0.337301 -0.071976
C126  C     C_R   0.832697 0.712876 0.662703 -0.071958
C127  C     C_R   0.832634 0.287126 0.662697 -0.071990
C128  C     C_R   0.167334 0.712875 0.337301 -0.071977
C129  C     C_R   0.708848 0.786630 0.419451 0.068781
C130  C     C_R   0.291116 0.213368 0.580547 0.068776
C131  C     C_R   0.291125 0.786631 0.580547 0.068778
C132  C     C_R   0.708904 0.213367 0.419455 0.068770
C133  C     C_R   0.208887 0.286630 0.419454 0.068781
C134  C     C_R   0.791158 0.713370 0.580549 0.068791
C135  C     C_R   0.791091 0.286631 0.580544 0.068780
C136  C     C_R   0.208873 0.713370 0.419454 0.068783
C137  C     C_R   0.729274 0.750543 0.459039 0.055866
C138  C     C_R   0.270731 0.249457 0.540960 0.055868
C139  C     C_R   0.270727 0.750543 0.540960 0.055868
C140  C     C_R   0.729268 0.249456 0.459040 0.055868
C141  C     C_R   0.229275 0.250542 0.459040 0.055865
C142  C     C_R   0.770731 0.749458 0.540960 0.055866
C143  C     C_R   0.770724 0.250542 0.540960 0.055865
C144  C     C_R   0.229271 0.749458 0.459040 0.055865
C145  C     C_R   0.708148 0.715465 0.416928 0.104763
C146  C     C_R   0.291897 0.284534 0.583073 0.104750
C147  C     C_R   0.291881 0.715466 0.583073 0.104753
C148  C     C_R   0.708082 0.284533 0.416926 0.104741
C149  C     C_R   0.208110 0.215465 0.416928 0.104753
C150  C     C_R   0.791856 0.784535 0.583072 0.104756
C151  C     C_R   0.791910 0.215465 0.583074 0.104739
C152  C     C_R   0.208118 0.784535 0.416927 0.104754
C153  C     C_R   0.730134 0.821170 0.463218 -0.216982
C154  C     C_R   0.269791 0.178828 0.536780 -0.216966
C155  C     C_R   0.269811 0.821171 0.536778 -0.216977
C156  C     C_R   0.730250 0.178827 0.463224 -0.216964
C157  C     C_R   0.230214 0.321171 0.463221 -0.216969
C158  C     C_R   0.769875 0.678831 0.536781 -0.216994
C159  C     C_R   0.769742 0.321171 0.536775 -0.216955
C160  C     C_R   0.230186 0.678830 0.463222 -0.216972
C161  C     C_R   0.771323 0.820061 0.543965 -0.191142
C162  C     C_R   0.228603 0.179938 0.456033 -0.191154
C163  C     C_R   0.228623 0.820062 0.456032 -0.191148
C164  C     C_R   0.771437 0.179938 0.543970 -0.191158
C165  C     C_R   0.271403 0.320061 0.543967 -0.191157
C166  C     C_R   0.728683 0.679940 0.456034 -0.191148
C167  C     C_R   0.728553 0.320061 0.456030 -0.191167
C168  C     C_R   0.271375 0.679939 0.543968 -0.191155
H41   H     H_    0.651072 0.689238 0.303789 0.197073
H42   H     H_    0.348998 0.310760 0.696211 0.197103
H43   H     H_    0.348974 0.689239 0.696213 0.197093
H44   H     H_    0.650967 0.310759 0.303787 0.197117
H45   H     H_    0.151009 0.189238 0.303789 0.197079
H46   H     H_    0.848927 0.810762 0.696211 0.197065
H47   H     H_    0.849025 0.189240 0.696214 0.197113
H48   H     H_    0.151026 0.810762 0.303787 0.197074
H49   H     H_    0.715280 0.849355 0.435712 0.164187
H50   H     H_    0.284612 0.150641 0.564286 0.164193
H51   H     H_    0.284643 0.849358 0.564283 0.164188
H52   H     H_    0.715446 0.150639 0.435720 0.164196
H53   H     H_    0.215391 0.349357 0.435716 0.164190
H54   H     H_    0.784732 0.650646 0.564285 0.164183
H55   H     H_    0.784546 0.349359 0.564280 0.164192
H56   H     H_    0.215354 0.650644 0.435717 0.164190
H57   H     H_    0.787063 0.847143 0.575965 0.168774
H58   H     H_    0.212833 0.152856 0.424033 0.168771
H59   H     H_    0.212861 0.847144 0.424031 0.168770
H60   H     H_    0.787224 0.152855 0.575972 0.168783
H61   H     H_    0.287174 0.347143 0.575968 0.168757
H62   H     H_    0.712945 0.652858 0.424034 0.168747
H63   H     H_    0.712764 0.347143 0.424028 0.168755
H64   H     H_    0.287136 0.652857 0.575969 0.168755
C169  C     C_R   0.963267 0.081723 0.928805 0.228684
C170  C     C_R   0.036698 0.918279 0.071170 0.228686
C171  C     C_R   0.036696 0.081720 0.071170 0.228689
C172  C     C_R   0.963267 0.918277 0.928805 0.228678
C173  C     C_R   0.463368 0.581720 0.928813 0.228721
C174  C     C_R   0.536624 0.418280 0.071184 0.228738
C175  C     C_R   0.536631 0.581719 0.071189 0.228726
C176  C     C_R   0.463365 0.418280 0.928809 0.228735
C177  C     C_R   0.999988 0.101875 0.999990 -0.282288
C178  C     C_R   0.999988 0.898125 0.999989 -0.282282
C179  C     C_R   0.500001 0.601874 0.000001 -0.282316
C180  C     C_R   0.499996 0.398126 0.999997 -0.282317
C181  C     C_R   0.037048 0.040944 0.071238 -0.001004
C182  C     C_R   0.962903 0.959055 0.928733 -0.001011
C183  C     C_R   0.962903 0.040945 0.928733 -0.001012
C184  C     C_R   0.037048 0.959055 0.071238 -0.001009
C185  C     C_R   0.536984 0.540943 0.071260 -0.001058
C186  C     C_R   0.463010 0.459057 0.928738 -0.001052
C187  C     C_R   0.463012 0.540945 0.928741 -0.001048
C188  C     C_R   0.536980 0.459056 0.071256 -0.001048
C189  C     C_R   0.999975 0.020515 0.999985 0.025039
C190  C     C_R   0.999975 0.979485 0.999985 0.025040
C191  C     C_R   0.499999 0.520514 1.000000 0.025059
C192  C     C_R   0.499998 0.479485 0.999998 0.025057
C193  C     C_R   0.074567 0.020125 0.141140 -0.147374
C194  C     C_R   0.925369 0.979874 0.858834 -0.147366
C195  C     C_R   0.925369 0.020126 0.858834 -0.147362
C196  C     C_R   0.074568 0.979874 0.141140 -0.147375
C197  C     C_R   0.574422 0.520124 0.141176 -0.147379
C198  C     C_R   0.425567 0.479876 0.858824 -0.147383
C199  C     C_R   0.425568 0.520127 0.858826 -0.147382
C200  C     C_R   0.574418 0.479873 0.141174 -0.147381
H65   H     H_    0.104626 0.034693 0.196606 0.195617
H66   H     H_    0.895298 0.965307 0.803369 0.195631
H67   H     H_    0.895298 0.034693 0.803369 0.195633
H68   H     H_    0.104627 0.965306 0.196606 0.195620
H69   H     H_    0.604415 0.534691 0.196656 0.195599
H70   H     H_    0.395568 0.465309 0.803346 0.195619
H71   H     H_    0.395570 0.534694 0.803348 0.195616
H72   H     H_    0.604408 0.465304 0.196652 0.195579
N1    N     N_R   0.925453 0.102806 0.856861 0.207976
O53   O     O_R   0.890160 0.125534 0.842403 -0.422575
O54   O     O_R   0.928624 0.101258 0.808104 -0.390297
N2    N     N_R   0.074516 0.897200 0.143116 0.207950
O55   O     O_R   0.071298 0.898704 0.191824 -0.390239
O56   O     O_R   0.109865 0.874520 0.157626 -0.422572
N3    N     N_R   0.074511 0.102798 0.143116 0.207948
O57   O     O_R   0.071284 0.101297 0.191815 -0.390228
O58   O     O_R   0.109872 0.125469 0.157642 -0.422573
N4    N     N_R   0.925452 0.897195 0.856861 0.207971
O59   O     O_R   0.890156 0.874470 0.842403 -0.422605
O60   O     O_R   0.928624 0.898741 0.808105 -0.390268
N5    N     N_R   0.425625 0.602799 0.856858 0.208028
O61   O     O_R   0.390223 0.625479 0.842212 -0.422566
O62   O     O_R   0.428963 0.601293 0.808283 -0.390170
N6    N     N_R   0.574351 0.397203 0.143140 0.208010
O63   O     O_R   0.570957 0.398681 0.191653 -0.390110
O64   O     O_R   0.609797 0.374550 0.157845 -0.422550
N7    N     N_R   0.574366 0.602796 0.143145 0.208023
O65   O     O_R   0.571007 0.601296 0.191697 -0.390129
O66   O     O_R   0.609772 0.625476 0.157804 -0.422589
N8    N     N_R   0.425623 0.397203 0.856853 0.208035
O67   O     O_R   0.390224 0.374521 0.842207 -0.422558
O68   O     O_R   0.428957 0.398714 0.808273 -0.390183
C201  C     C_R   0.642971 0.824315 0.294031 0.128945
C202  C     C_R   0.671167 0.849116 0.288677 -0.119137
C203  C     C_R   0.648115 0.884217 0.248324 -0.133238
C204  C     C_R   0.596882 0.894658 0.213063 -0.096206
C205  C     C_R   0.568306 0.869820 0.217188 -0.143805
C206  C     C_R   0.591221 0.834737 0.257556 -0.162945
H73   H     H_    0.710930 0.841298 0.315982 0.130404
H74   H     H_    0.669991 0.903377 0.244534 0.125552
H75   H     H_    0.579276 0.921976 0.182469 0.139501
H76   H     H_    0.528483 0.877830 0.189355 0.129843
H77   H     H_    0.568849 0.815767 0.260729 0.123241
C207  C     C_R   0.356949 0.175678 0.705956 0.128972
C208  C     C_R   0.408662 0.165197 0.742354 -0.163008
C209  C     C_R   0.431528 0.130101 0.782685 -0.143748
C210  C     C_R   0.402939 0.105309 0.786852 -0.096235
C211  C     C_R   0.351745 0.115812 0.751672 -0.133291
C212  C     C_R   0.328742 0.150925 0.711354 -0.119000
H78   H     H_    0.431041 0.184129 0.739141 0.123261
H79   H     H_    0.471321 0.122044 0.810454 0.129866
H80   H     H_    0.420505 0.077980 0.817412 0.139509
H81   H     H_    0.329860 0.096688 0.755496 0.125524
H82   H     H_    0.289007 0.158789 0.684106 0.130392
C213  C     C_R   0.356977 0.824319 0.705960 0.128976
C214  C     C_R   0.328770 0.849094 0.711331 -0.119080
C215  C     C_R   0.351794 0.884201 0.751665 -0.133273
C216  C     C_R   0.403007 0.894676 0.786889 -0.096218
C217  C     C_R   0.431594 0.869864 0.782749 -0.143763
C218  C     C_R   0.408707 0.834774 0.742400 -0.162962
H83   H     H_    0.289021 0.841250 0.684052 0.130395
H84   H     H_    0.329909 0.903341 0.755468 0.125538
H85   H     H_    0.420589 0.922000 0.817465 0.139506
H86   H     H_    0.471402 0.877900 0.810553 0.129849
H87   H     H_    0.431087 0.815825 0.739211 0.123240
C219  C     C_R   0.643087 0.175675 0.294051 0.129000
C220  C     C_R   0.591388 0.165172 0.257677 -0.163013
C221  C     C_R   0.568542 0.130070 0.217362 -0.143713
C222  C     C_R   0.597139 0.105295 0.213188 -0.096247
C223  C     C_R   0.648319 0.115820 0.248341 -0.133313
C224  C     C_R   0.671303 0.150938 0.288644 -0.118971
H88   H     H_    0.569003 0.184090 0.260898 0.123257
H89   H     H_    0.528759 0.121995 0.189614 0.129879
H90   H     H_    0.579591 0.077961 0.182643 0.139514
H91   H     H_    0.670211 0.096709 0.244512 0.125520
H92   H     H_    0.711028 0.158819 0.315875 0.130382
C225  C     C_R   0.143040 0.324320 0.294045 0.128978
C226  C     C_R   0.171241 0.349085 0.288653 -0.119011
C227  C     C_R   0.148229 0.384200 0.248341 -0.133335
C228  C     C_R   0.097032 0.394690 0.213163 -0.096268
C229  C     C_R   0.068448 0.369886 0.217320 -0.143747
C230  C     C_R   0.091323 0.334789 0.257645 -0.163004
H93   H     H_    0.210979 0.341231 0.315902 0.130401
H94   H     H_    0.170111 0.403333 0.244525 0.125518
H95   H     H_    0.079460 0.422021 0.182609 0.139511
H96   H     H_    0.028652 0.377934 0.189550 0.129864
H97   H     H_    0.068948 0.315848 0.260852 0.123249
C231  C     C_R   0.857043 0.675686 0.705969 0.128966
C232  C     C_R   0.908803 0.665279 0.742472 -0.162922
C233  C     C_R   0.931724 0.630194 0.782833 -0.143786
C234  C     C_R   0.903141 0.605339 0.786921 -0.096231
C235  C     C_R   0.851898 0.615766 0.751634 -0.133304
C236  C     C_R   0.828841 0.650868 0.711290 -0.119184
H98   H     H_    0.931181 0.684261 0.739325 0.123207
H99   H     H_    0.971556 0.622197 0.810687 0.129830
H100  H     H_    0.920750 0.578020 0.817506 0.139502
H101  H     H_    0.830015 0.596592 0.755395 0.125555
H102  H     H_    0.789069 0.658674 0.683964 0.130420
C237  C     C_R   0.856925 0.324323 0.705947 0.128972
C238  C     C_R   0.828728 0.349065 0.711381 -0.118926
C239  C     C_R   0.851723 0.384184 0.751676 -0.133338
C240  C     C_R   0.902896 0.394704 0.786795 -0.096290
C241  C     C_R   0.931475 0.369923 0.782595 -0.143731
C242  C     C_R   0.908618 0.334821 0.742287 -0.163058
H103  H     H_    0.789008 0.341188 0.684176 0.130385
H104  H     H_    0.829846 0.403299 0.755526 0.125501
H105  H     H_    0.920453 0.422038 0.817334 0.139517
H106  H     H_    0.971251 0.377994 0.810316 0.129894
H107  H     H_    0.930987 0.315898 0.739044 0.123277
C243  C     C_R   0.143020 0.675682 0.294043 0.128966
C244  C     C_R   0.091295 0.665225 0.257624 -0.162996
C245  C     C_R   0.068410 0.630131 0.217291 -0.143757
C246  C     C_R   0.096993 0.605317 0.213145 -0.096259
C247  C     C_R   0.148200 0.615795 0.248346 -0.133322
C248  C     C_R   0.171221 0.650906 0.288665 -0.119037
H108  H     H_    0.068920 0.684174 0.260821 0.123247
H109  H     H_    0.028607 0.622093 0.189505 0.129858
H110  H     H_    0.079413 0.577990 0.182583 0.139510
H111  H     H_    0.170081 0.596653 0.244539 0.125526
H112  H     H_    0.210966 0.658751 0.315929 0.130402

loop_
_geom_bond_atom_site_label_1
_geom_bond_atom_site_label_2
_geom_bond_distance
_ccdc_geom_bond_type
C31   C35   1.403272 A    
C137  C142  1.410675 A    
C173  C187  1.405666 A    
C28   C34   1.403274 A    
C90   C98   1.459963 S    
Zn8   O10   1.910741 S    
Zn6   O42   1.942197 S    
C105  C145  1.390564 A    
C49   H9    1.083642 S    
C200  H72   1.081805 S    
C139  C144  1.410664 A    
C172  C178  1.409025 A    
C159  C167  1.390644 A    
C231  C232  1.404176 A    
C135  C159  1.409166 A    
C44   C56   1.402017 A    
C62   C93   1.535634 S    
C16   C113  1.459773 S    
O42   C14   1.274183 A    
C87   C95   1.535584 S    
C175  N7    1.437218 S    
C32   C36   1.403269 A    
C85   C93   1.535583 S    
O46   C2    1.282288 A    
O24   C18   1.275843 A    
C40   C52   1.402000 A    
C39   C45   1.411055 A    
C106  C114  1.395978 A    
C62   C66   1.548998 S    
Zn11  O1    1.944260 S    
C194  C195  1.387555 A    
C12   C117  1.459782 S    
C160  H56   1.081494 S    
Zn16  O28   1.944083 S    
C161  H57   1.084002 S    
Zn5   O11   1.910740 S    
Zn4   O2    1.940253 S    
C184  C190  1.415126 A    
C215  H84   1.082359 S    
C92   C100  1.459962 S    
Zn4   O40   1.942192 S    
C157  H53   1.081494 S    
C217  H86   1.082300 S    
O33   C23   1.276015 A    
O11   C7    1.282408 A    
C195  H67   1.081806 S    
C204  C205  1.397294 A    
N5    O62   1.301065 A    
C167  H63   1.084002 S    
C240  C241  1.397292 A    
C69   C93   1.535607 S    
C235  H101  1.082359 S    
O25   C19   1.275849 A    
H38   C85   1.110105 S    
C187  C191  1.415110 A    
C155  H51   1.081495 S    
C198  C199  1.387524 A    
C191  C192  1.414347 A    
C133  C141  1.418557 A    
C25   C33   1.403276 A    
C185  C197  1.403844 A    
C137  C145  1.409806 A    
C69   H21   1.110110 S    
C67   C88   1.549014 S    
Zn12  O24   1.944083 S    
C108  C116  1.395978 A    
Zn13  O17   1.940511 S    
C221  H89   1.082299 S    
O16   C12   1.275858 A    
Zn10  O14   1.940511 S    
Zn16  O4    1.944260 S    
C96   C104  1.459967 S    
C188  C200  1.403837 A    
C129  C137  1.418567 A    
C112  H48   1.085478 S    
C127  C135  1.414250 A    
C216  C217  1.397297 A    
O30   C22   1.276014 A    
C238  C239  1.398868 A    
C70   C81   1.549011 S    
C79   C103  1.202146 T    
Zn7   O3    1.940257 S    
C215  C216  1.397968 A    
C133  C157  1.409164 A    
C116  C124  1.414394 A    
O23   C17   1.275846 A    
C121  C129  1.414277 A    
C213  C214  1.404451 A    
Zn8   O34   1.943456 S    
C144  C152  1.409808 A    
Zn9   O21   1.944078 S    
C59   H27   1.110116 S    
C81   C89   1.535584 S    
C232  H98   1.083128 S    
Zn7   O9    1.910741 S    
C32   H8    1.084334 S    
C17   C178  1.460963 S    
C147  C168  1.397835 A    
Zn10  O22   1.944078 S    
C152  C163  1.397836 A    
C208  H78   1.083125 S    
C201  C202  1.404454 A    
C80   C104  1.202141 T    
C41   C53   1.402019 A    
C210  H80   1.082026 S    
Zn10  O2    1.944271 S    
Zn3   O1    1.940257 S    
C84   C92   1.535584 S    
C246  C247  1.397972 A    
H34   C81   1.110108 S    
C205  H76   1.082301 S    
C26   C34   1.403276 A    
C9    C120  1.459781 S    
C189  C190  1.414361 A    
N7    O65   1.301096 A    
Zn5   O35   1.943460 S    
C181  C193  1.403833 A    
C225  C226  1.404447 A    
C202  H73   1.083004 S    
C110  C118  1.395975 A    
C42   C54   1.402017 A    
C211  C212  1.398869 A    
C86   C94   1.535584 S    
C232  C233  1.398117 A    
C194  H66   1.081804 S    
C75   C99   1.202141 T    
C3    C73   1.429357 S    
C63   C67   1.548997 S    
C175  C185  1.405662 A    
C199  H71   1.081798 S    
C222  C223  1.397970 A    
C109  C149  1.390561 A    
C28   H4    1.084334 S    
C94   C102  1.459962 S    
C172  N4    1.437248 S    
O22   C18   1.275850 A    
Zn9   O45   1.908288 S    
C37   C45   1.411051 A    
C228  C229  1.397292 A    
Zn11  O47   1.908293 S    
C145  C166  1.397833 A    
Zn12  O48   1.908288 S    
C162  H58   1.084003 S    
N8    O67   1.301159 A    
C40   C46   1.411057 A    
C239  H104  1.082361 S    
O50   C6    1.282285 A    
C55   H15   1.083652 S    
C209  H79   1.082299 S    
C53   H13   1.083655 S    
C150  C161  1.397836 A    
Zn1   O37   1.942197 S    
C202  C203  1.398871 A    
Zn3   O39   1.942193 S    
C212  H82   1.083005 S    
C182  C190  1.415129 A    
Zn6   O12   1.910740 S    
C63   C83   1.549000 S    
C214  C215  1.398871 A    
C236  H102  1.083006 S    
C153  C161  1.390655 A    
C50   H10   1.083642 S    
C171  C177  1.408991 A    
O35   C23   1.276017 A    
C155  C163  1.390652 A    
C176  N8    1.437230 S    
C233  H99   1.082306 S    
O32   C22   1.276017 A    
C143  C151  1.409808 A    
C131  C155  1.409163 A    
C231  C236  1.404456 A    
N4    O59   1.301156 A    
C132  C156  1.409164 A    
C71   C95   1.535611 S    
C93   C101  1.459963 S    
N1    O54   1.301072 A    
C30   C44   1.395648 A    
C129  C153  1.409155 A    
C156  H52   1.081498 S    
H35   C84   1.110109 S    
H36   C83   1.110110 S    
C71   H23   1.110111 S    
O5    C1    1.282413 A    
C245  C246  1.397290 A    
C74   C98   1.202144 T    
C67   H19   1.110111 S    
C60   C72   1.548999 S    
C169  N1    1.437250 S    
C218  H87   1.083127 S    
C58   H26   1.110119 S    
Zn4   O6    1.910741 S    
C59   C71   1.548997 S    
C237  C238  1.404443 A    
Zn15  O51   1.908293 S    
C160  C168  1.390647 A    
C107  C147  1.390560 A    
C158  H54   1.081488 S    
C57   C85   1.549000 S    
C58   C70   1.548996 S    
C163  H59   1.084003 S    
C226  C227  1.398871 A    
C203  H74   1.082362 S    
C127  C237  1.485666 S    
C1    C75   1.429362 S    
C247  H111  1.082358 S    
C157  C165  1.390646 A    
C235  C236  1.398870 A    
C154  H50   1.081498 S    
C126  C134  1.414286 A    
C233  C234  1.397289 A    
C58   C89   1.535633 S    
O51   C7    1.282282 A    
C201  C206  1.404173 A    
C44   C48   1.411069 A    
O8    C4    1.282408 A    
C223  C224  1.398869 A    
C2    C76   1.429357 S    
C10   C119  1.459783 S    
C170  N2    1.437230 S    
C170  C184  1.405686 A    
C227  H94   1.082356 S    
C70   H22   1.110110 S    
C105  H41   1.085479 S    
C64   C68   1.548995 S    
C221  C222  1.397296 A    
Zn14  O18   1.940511 S    
C125  C225  1.485679 S    
C60   C88   1.549001 S    
O52   C8    1.282284 A    
Zn1   O1    1.940245 S    
O40   C12   1.274180 A    
C186  C192  1.415109 A    
Zn6   O36   1.943461 S    
C106  H42   1.085477 S    
C224  H92   1.083005 S    
C209  C210  1.397295 A    
Zn15  O27   1.944083 S    
Zn16  O20   1.940516 S    
C57   C69   1.548998 S    
O9    C5    1.282416 A    
C134  C158  1.409157 A    
C165  H61   1.084005 S    
Zn3   O5    1.910741 S    
C242  H107  1.083125 S    
C173  N5    1.437229 S    
C72   C83   1.549014 S    
C122  C207  1.485673 S    
N2    O55   1.301067 A    
C114  C122  1.414391 A    
C108  C148  1.390554 A    
O18   C14   1.275851 A    
C243  C244  1.404164 A    
O6    C2    1.282414 A    
C38   C50   1.402001 A    
C176  C180  1.409030 A    
C109  C117  1.395980 A    
C138  C141  1.410660 A    
C64   C84   1.548995 S    
C18   C177  1.460963 S    
C32   C42   1.395648 A    
C229  C230  1.398115 A    
C106  C146  1.390559 A    
C89   C97   1.459963 S    
Zn13  O25   1.944078 S    
N5    O61   1.301162 A    
C210  C211  1.397974 A    
Zn15  O3    1.944260 S    
C59   C92   1.535636 S    
C188  C192  1.415102 A    
C112  C152  1.390565 A    
O43   C15   1.274177 A    
C42   C48   1.411067 A    
C61   C94   1.535636 S    
C29   C43   1.395644 A    
C184  C196  1.403832 A    
O15   C11   1.275839 A    
C31   C41   1.395647 A    
H33   C82   1.110105 S    
C174  C188  1.405652 A    
C112  C120  1.395978 A    
C131  C139  1.418560 A    
Zn7   O43   1.942193 S    
C225  C230  1.404162 A    
C13   C116  1.459785 S    
C248  H112  1.083007 S    
C168  H64   1.084003 S    
C105  C113  1.395972 A    
C246  H110  1.082026 S    
O29   C21   1.276013 A    
C11   C118  1.459778 S    
C153  H49   1.081495 S    
C222  H90   1.082022 S    
C156  C164  1.390645 A    
C37   C49   1.402004 A    
Zn10  O46   1.908293 S    
C123  C213  1.485691 S    
C39   C51   1.402003 A    
C70   C94   1.535612 S    
C146  C165  1.397833 A    
C115  C123  1.414391 A    
C228  H95   1.082025 S    
C6    C80   1.429362 S    
H39   C88   1.110110 S    
C220  H88   1.083127 S    
C61   H29   1.110117 S    
H37   C86   1.110110 S    
Zn13  O3    1.944271 S    
C121  C201  1.485702 S    
C110  C150  1.390566 A    
Zn14  O4    1.944271 S    
C54   H14   1.083653 S    
Zn2   O38   1.942197 S    
C49   C52   1.395598 A    
C181  C189  1.415125 A    
N3    O57   1.301091 A    
O19   C15   1.275856 A    
C207  C212  1.404450 A    
C182  C194  1.403851 A    
Zn4   O30   1.943456 S    
C14   C115  1.459778 S    
C138  C146  1.409808 A    
Zn2   O32   1.943461 S    
C214  H83   1.083007 S    
C173  C179  1.409023 A    
C43   C55   1.402019 A    
Zn3   O29   1.943457 S    
C51   H11   1.083646 S    
C52   H12   1.083645 S    
C134  C142  1.418569 A    
O37   C9    1.274187 A    
C197  H69   1.081815 S    
C66   C85   1.549014 S    
O7    C3    1.282410 A    
C154  C162  1.390649 A    
O39   C11   1.274188 A    
C183  C189  1.415130 A    
C59   C87   1.548998 S    
C130  C138  1.418553 A    
Zn9   O1    1.944271 S    
N4    O60   1.301076 A    
C244  H108  1.083127 S    
H40   C87   1.110110 S    
C164  H60   1.084001 S    
C60   H28   1.110116 S    
O31   C21   1.276019 A    
C78   C102  1.202144 T    
C130  C154  1.409163 A    
C110  H46   1.085476 S    
C57   C90   1.535634 S    
O12   C8    1.282410 A    
C216  H85   1.082024 S    
C82   C90   1.535583 S    
C241  H106  1.082298 S    
C19   C180  1.460984 S    
C169  C183  1.405731 A    
C20   C179  1.460973 S    
C66   H18   1.110110 S    
C61   C81   1.548996 S    
C220  C221  1.398119 A    
C57   H25   1.110117 S    
C219  C224  1.404447 A    
C56   H16   1.083654 S    
Zn1   O31   1.943460 S    
C141  C149  1.409808 A    
C118  C126  1.414383 A    
C206  H77   1.083125 S    
C237  C242  1.404155 A    
Zn5   O3    1.940245 S    
Zn6   O4    1.940249 S    
C174  N6    1.437200 S    
C76   C100  1.202148 T    
Zn5   O41   1.942197 S    
C117  C125  1.414389 A    
C135  C143  1.418548 A    
C159  H55   1.081497 S    
C226  H93   1.083005 S    
C196  H68   1.081808 S    
Zn8   O44   1.942192 S    
C60   C91   1.535638 S    
N8    O68   1.301068 A    
C158  C166  1.390650 A    
C128  C243  1.485683 S    
C175  C179  1.409036 A    
C25   H1    1.084337 S    
C4    C74   1.429359 S    
C223  H91   1.082360 S    
C27   H3    1.084335 S    
C113  C121  1.414382 A    
C227  C228  1.397969 A    
C132  C140  1.418548 A    
C111  C119  1.395983 A    
C65   H17   1.110110 S    
C229  H96   1.082298 S    
C66   C90   1.535607 S    
C61   C65   1.548996 S    
C47   C48   1.404450 A    
O38   C10   1.274180 A    
C139  C147  1.409809 A    
C68   H20   1.110111 S    
C111  H47   1.085475 S    
C247  C248  1.398869 A    
C126  C231  1.485705 S    
C21   C34   1.464110 S    
Zn2   O2    1.940249 S    
C193  H65   1.081806 S    
C203  C204  1.397971 A    
C23   C36   1.464107 S    
C217  C218  1.398117 A    
Zn13  O49   1.908288 S    
N1    O53   1.301155 A    
C26   C40   1.395637 A    
C95   C103  1.459960 S    
Zn8   O4    1.940253 S    
C38   C46   1.411053 A    
O21   C17   1.275843 A    
C63   C96   1.535638 S    
C83   C91   1.535585 S    
C166  H62   1.084002 S    
C204  H75   1.082030 S    
C171  C181  1.405683 A    
O49   C5    1.282290 A    
C123  C131  1.414267 A    
C243  C248  1.404446 A    
C50   C51   1.395598 A    
C53   C56   1.395605 A    
C27   C37   1.395634 A    
C24   C35   1.464107 S    
O10   C6    1.282412 A    
C45   C46   1.404447 A    
C15   C114  1.459779 S    
C148  C167  1.397832 A    
Zn16  O52   1.908288 S    
C240  H105  1.082024 S    
C140  C143  1.410654 A    
Zn9   O13   1.940511 S    
Zn14  O26   1.944078 S    
C169  C177  1.409029 A    
C107  H43   1.085478 S    
Zn12  O16   1.940516 S    
C108  H44   1.085479 S    
C68   C92   1.535607 S    
C30   H6    1.084338 S    
C7    C77   1.429357 S    
C198  H70   1.081803 S    
Zn15  O19   1.940516 S    
C63   H31   1.110119 S    
C69   C82   1.549014 S    
C26   H2    1.084337 S    
C58   C86   1.549000 S    
C238  H103  1.083004 S    
C124  C219  1.485669 S    
C67   C91   1.535607 S    
Zn7   O33   1.943457 S    
C213  C218  1.404167 A    
C71   C84   1.549014 S    
C234  C235  1.397969 A    
C41   C47   1.411068 A    
C174  C180  1.409014 A    
C136  C160  1.409163 A    
N6    O64   1.301205 A    
C193  C196  1.387528 A    
C73   C97   1.202142 T    
C22   C33   1.464110 S    
C65   C86   1.549013 S    
N3    O58   1.301126 A    
C88   C96   1.535583 S    
C185  C191  1.415115 A    
C109  H45   1.085477 S    
C170  C178  1.408990 A    
C91   C99   1.459967 S    
Zn14  O50   1.908293 S    
O13   C9    1.275851 A    
N7    O66   1.301122 A    
C29   C35   1.403274 A    
Zn11  O23   1.944083 S    
C187  C199  1.403838 A    
C208  C209  1.398120 A    
C230  H97   1.083124 S    
C125  C133  1.414259 A    
N2    O56   1.301151 A    
C245  H109  1.082299 S    
Zn1   O7    1.910740 S    
O26   C20   1.275852 A    
C62   H30   1.110117 S    
Zn2   O8    1.910740 S    
C197  C200  1.387538 A    
O41   C13   1.274180 A    
C122  C130  1.414256 A    
C111  C151  1.390557 A    
Zn12  O2    1.944260 S    
C72   C96   1.535606 S    
C8    C78   1.429355 S    
C207  C208  1.404159 A    
C205  C206  1.398119 A    
O45   C1    1.282287 A    
C28   C38   1.395637 A    
O34   C24   1.276012 A    
C136  C144  1.418558 A    
C68   C87   1.549012 S    
C171  N3    1.437223 S    
C186  C198  1.403830 A    
O47   C3    1.282282 A    
C107  C115  1.395975 A    
C140  C148  1.409808 A    
C172  C182  1.405731 A    
C234  H100  1.082031 S    
C119  C127  1.414386 A    
C31   H7    1.084340 S    
O27   C19   1.275851 A    
C128  C136  1.414264 A    
C29   H5    1.084339 S    
C244  C245  1.398119 A    
C176  C186  1.405687 A    
C25   C39   1.395638 A    
O44   C16   1.274184 A    
O20   C16   1.275848 A    
C30   C36   1.403274 A    
N6    O63   1.301054 A    
C64   H32   1.110117 S    
C211  H81   1.082357 S    
C77   C101  1.202146 T    
O48   C4    1.282284 A    
C120  C128  1.414385 A    
O36   C24   1.276019 A    
C5    C79   1.429357 S    
Zn11  O15   1.940516 S    
C241  C242  1.398114 A    
O14   C10   1.275860 A    
C27   C33   1.403273 A    
C72   H24   1.110110 S    
C239  C240  1.397971 A    
C183  C195  1.403851 A    
C124  C132  1.414254 A    
C219  C220  1.404156 A    
C62   C82   1.549000 S    
C43   C47   1.411067 A    
C149  C162  1.397839 A    
C54   C55   1.395608 A    
O28   C20   1.275851 A    
O17   C13   1.275862 A    
C142  C150  1.409804 A    
C151  C164  1.397835 A    
C64   C95   1.535635 S    
C65   C89   1.535610 S    
