data_mof_unit_28337.cif
_audit_creation_date              2012-12-10T20:46:24-0500
_audit_creation_method            fapswitch 2.2
_symmetry_space_group_name_H-M    P1
_symmetry_Int_Tables_number       1
_space_group_crystal_system       triclinic
_cell_length_a                    10.776067
_cell_length_b                    8.926039
_cell_length_c                    8.104121
_cell_angle_alpha                 90.052926
_cell_angle_beta                  90.680761
_cell_angle_gamma                 89.898071
_cell_volume                      779.459330303

loop_
_atom_site_label
_atom_site_type_symbol
_atom_type_description
_atom_site_fract_x
_atom_site_fract_y
_atom_site_fract_z
_atom_type_partial_charge
C1    C     C_R   0.501633 0.218006 0.500013 0.917454
C2    C     C_1   0.502216 0.934770 0.500196 -0.188995
C3    C     C_3   0.928979 0.583333 0.115034 0.134191
C4    C     C_3   0.874601 0.734930 0.166796 -0.401460
C5    C     C_3   0.914064 0.859609 0.049911 -0.924637
C6    C     C_3   0.091039 0.189981 0.280601 0.113261
C7    C     C_3   0.183547 0.105347 0.390670 -0.369466
C8    C     C_3   0.148133 0.941047 0.410125 -0.911902
C9    C     C_R   0.500776 0.781990 0.500044 0.927422
C10   C     C_R   0.262035 0.502267 0.498402 0.836087
C11   C     C_R   0.737502 0.485372 0.500657 0.834234
C12   C     C_2   0.933862 0.453125 0.363747 0.362644
C13   C     C_2   0.067435 0.430999 0.379259 0.364731
C14   C     C_2   0.866800 0.441922 0.502389 0.192260
C15   C     C_2   0.129938 0.514575 0.491118 0.199079
C16   C     C_1   0.502692 0.065177 0.500200 -0.199732
H1    H     H_    0.903355 0.562825 0.983764 0.201016
H2    H     H_    0.276704 0.111847 0.334333 0.238714
H3    H     H_    0.187836 0.158721 0.514574 0.223614
H4    H     H_    0.054578 0.931285 0.465095 0.281024
H5    H     H_    0.216502 0.884907 0.492943 0.256409
H6    H     H_    0.148965 0.883347 0.288803 0.262514
H7    H     H_    0.859086 0.374256 0.732591 0.353727
H8    H     H_    0.131463 0.669373 0.661333 0.339485
H9    H     H_    0.032177 0.586333 0.119864 0.154401
H10   H     H_    0.771606 0.728325 0.166038 0.256400
H11   H     H_    0.906493 0.762599 0.294058 0.220592
H12   H     H_    0.016780 0.865919 0.043829 0.258203
H13   H     H_    0.878001 0.968701 0.094836 0.266965
H14   H     H_    0.875954 0.838835 0.923998 0.281446
H15   H     H_    0.092090 0.139215 0.155427 0.177743
H16   H     H_    0.994886 0.175223 0.327327 0.137310
N1    N     N_1   0.500000 0.500000 0.073640 -0.018895
N2    N     N_1   0.500000 0.500000 0.926360 -0.025620
O1    O     O_R   0.500000 0.285350 0.636850 -0.612462
O2    O     O_3   0.128806 0.341244 0.265757 -0.653331
O3    O     O_3   0.922095 0.386240 0.645709 -0.773911
O4    O     O_3   0.069404 0.617384 0.590513 -0.790280
O5    O     O_R   0.500000 0.714650 0.636850 -0.614751
O6    O     O_R   0.500000 0.285360 0.363100 -0.612093
O7    O     O_R   0.500000 0.714640 0.363100 -0.623658
O8    O     O_R   0.319080 0.500000 0.636840 -0.621983
O9    O     O_R   0.680920 0.500000 0.636840 -0.632319
O10   O     O_R   0.319090 0.500000 0.363090 -0.586609
O11   O     O_R   0.680910 0.500000 0.363090 -0.585195
O12   O     O_3   0.877355 0.465431 0.208667 -0.650634
Zn1   Zn    Zn3+2 0.500000 0.500000 0.682780 0.993355
Zn2   Zn    Zn3+2 0.500000 0.500000 0.317220 1.013654

loop_
_geom_bond_atom_site_label_1
_geom_bond_atom_site_label_2
_ccdc_geom_bond_type
H8    O4    S    
C15   O4    S    
C11   O9    A    
C6    C7    S    
C9    O7    A    
C10   O8    A    
C5    H12   S    
C2    C16   T    
C3    O12   S    
C4    H10   S    
C3    H9    S    
C10   C15   S    
C7    H2    S    
O1    Zn1   S    
C8    H5    S    
C7    C8    S    
C1    C16   S    
C14   O3    S    
C8    H4    S    
O5    Zn1   S    
O7    Zn2   S    
C6    O2    S    
C3    H1    S    
C5    H13   S    
O8    Zn1   S    
C13   C15   D    
C11   C14   S    
C11   O11   A    
C10   O10   A    
C3    C4    S    
C9    O5    A    
C4    H11   S    
N1    N2    T    
C12   C13   S    
C1    O1    A    
C13   O2    S    
C12   O12   S    
C5    H14   S    
O11   Zn2   S    
O6    Zn2   S    
N1    Zn2   S    
C7    H3    S    
C6    H15   S    
N2    Zn1   S    
C1    O6    A    
H7    O3    S    
C2    C9    S    
O9    Zn1   S    
C8    H6    S    
O10   Zn2   S    
C12   C14   D    
C4    C5    S    
C6    H16   S    
