data_mof_unit_12549.cif
_audit_creation_date              2012-12-10T17:22:42-0500
_audit_creation_method            fapswitch 2.2
_symmetry_space_group_name_H-M    P1
_symmetry_Int_Tables_number       1
_space_group_crystal_system       triclinic
_cell_length_a                    10.725456
_cell_length_b                    10.852061
_cell_length_c                    9.64208
_cell_angle_alpha                 92.924104
_cell_angle_beta                  90.88366
_cell_angle_gamma                 96.439929
_cell_volume                      1113.48717473

loop_
_atom_site_label
_atom_site_type_symbol
_atom_type_description
_atom_site_fract_x
_atom_site_fract_y
_atom_site_fract_z
_atom_type_partial_charge
Br1   Br    Br    0.647128 0.972878 0.043061 -0.533290
Br2   Br    Br    0.739534 0.744940 0.323036 -0.547266
Br3   Br    Br    0.310821 0.288471 0.828908 -0.500095
Br4   Br    Br    0.302916 0.125193 0.278831 -0.540433
C1    C     C_R   0.499850 0.262561 0.496240 0.862025
C2    C     C_R   0.572470 0.076369 0.590704 0.075890
C3    C     C_R   0.502563 0.128325 0.488744 -0.166625
C4    C     C_R   0.259336 0.498022 0.499254 0.802323
C5    C     C_R   0.417204 0.051969 0.399889 0.256484
C6    C     C_R   0.408791 0.921965 0.406681 0.113898
C7    C     C_R   0.477090 0.870816 0.513171 -0.165299
C8    C     C_R   0.699042 0.661317 0.144149 0.321587
C9    C     C_R   0.792406 0.720297 0.062984 -0.136958
C10   C     C_R   0.775164 0.725908 0.923667 -0.264867
C11   C     C_R   0.674468 0.658266 0.858306 -0.135459
C12   C     C_3   0.953098 0.475990 0.371377 -0.135872
C13   C     C_R   0.587957 0.578915 0.928849 0.112050
C14   C     C_R   0.592848 0.579446 0.079331 0.104128
C15   C     C_R   0.417484 0.423297 0.069074 -0.055564
C16   C     C_R   0.491427 0.736953 0.504124 0.848982
C17   C     C_R   0.419639 0.419998 0.922237 0.332961
C18   C     C_R   0.740571 0.499861 0.501031 0.806596
C19   C     C_3   0.046351 0.522811 0.629745 0.159699
C20   C     C_3   0.949266 0.411883 0.583534 -0.207618
C21   C     C_3   0.877894 0.501686 0.502645 -0.048746
C22   C     C_3   0.974866 0.612142 0.548562 0.194989
C23   C     C_3   0.026607 0.387031 0.452622 -0.157775
C24   C     C_3   0.051240 0.586742 0.417414 -0.193590
C25   C     C_3   0.314015 0.839900 0.313107 -0.395242
C26   C     C_3   0.358881 0.823823 0.164318 -0.640656
C27   C     C_3   0.102286 0.542296 0.777790 -0.374282
C28   C     C_3   0.004975 0.553683 0.890064 -0.857237
C29   C     C_3   0.950666 0.741372 0.606950 -0.406512
C30   C     C_3   0.024121 0.846714 0.533446 -0.769204
C31   C     C_3   0.122354 0.497854 0.499348 -0.070737
C32   C     C_R   0.663701 0.149933 0.675460 -0.169536
C33   C     C_R   0.695752 0.112059 0.805056 -0.139233
C34   C     C_R   0.639207 0.000034 0.849434 0.319863
C35   C     C_R   0.567962 0.916464 0.755049 -0.214105
C36   C     C_R   0.541582 0.951254 0.618642 0.034448
Cu1   Cu    Cu3+1 0.499990 0.499990 0.640660 0.960703
Cu2   Cu    Cu3+1 0.500010 0.500010 0.359340 1.001965
H1    H     H_    0.908045 0.340581 0.653056 0.149959
H2    H     H_    0.702325 0.241235 0.647102 0.138983
H3    H     H_    0.755620 0.174711 0.875110 0.165605
H4    H     H_    0.367450 0.913423 0.113073 0.293020
H5    H     H_    0.450998 0.786795 0.162694 0.283142
H6    H     H_    0.290015 0.757332 0.103536 0.204278
H7    H     H_    0.292206 0.747136 0.354772 0.181447
H8    H     H_    0.222524 0.878426 0.311786 0.220390
H9    H     H_    0.004523 0.652773 0.923192 0.243902
H10   H     H_    0.909682 0.513004 0.853811 0.272863
H11   H     H_    0.031192 0.505017 0.983054 0.252378
H12   H     H_    0.522786 0.832379 0.794964 0.182967
H13   H     H_    0.150161 0.460496 0.798812 0.261966
H14   H     H_    0.173030 0.625570 0.784535 0.206285
H15   H     H_    0.126462 0.841173 0.545689 0.231536
H16   H     H_    0.998022 0.842419 0.421397 0.276192
H17   H     H_    0.002769 0.937302 0.580524 0.261755
H18   H     H_    0.848972 0.751127 0.601304 0.221323
H19   H     H_    0.981784 0.751634 0.716855 0.207342
H20   H     H_    0.350358 0.360035 0.120272 0.201932
H21   H     H_    0.874865 0.776658 0.107529 0.192206
H22   H     H_    0.838506 0.787987 0.866934 0.169669
H23   H     H_    0.668769 0.671493 0.750754 0.213322
H24   H     H_    0.091427 0.654822 0.343948 0.142047
H25   H     H_    0.913032 0.456902 0.264548 0.163605
H26   H     H_    0.050167 0.294898 0.412656 0.184053
N1    N     N_R   0.501210 0.501210 0.147910 -0.216640
N2    N     N_R   0.501250 0.501290 0.852040 -0.222527
O1    O     O_R   0.499990 0.319640 0.618810 -0.537971
O2    O     O_R   0.500000 0.319660 0.381240 -0.539393
O3    O     O_R   0.316850 0.499960 0.618770 -0.572471
O4    O     O_R   0.316860 0.499980 0.381190 -0.581946
O5    O     O_R   0.500000 0.680340 0.618760 -0.633247
O6    O     O_R   0.500010 0.680360 0.381190 -0.530261
O7    O     O_R   0.683140 0.500020 0.618810 -0.620884
O8    O     O_R   0.683150 0.500040 0.381230 -0.549220

loop_
_geom_bond_atom_site_label_1
_geom_bond_atom_site_label_2
_ccdc_geom_bond_type
C12   C24   S    
Cu1   Cu2   S    
C20   C23   S    
Br2   C8    S    
C25   H7    S    
C25   C26   S    
C26   H6    S    
C32   C33   A    
C15   C17   A    
C1    O2    A    
Cu1   O7    S    
C34   C35   A    
C35   H12   S    
C15   H20   S    
C11   H23   S    
C16   O6    A    
C11   C13   A    
C19   C22   S    
C28   H10   S    
C23   H26   S    
C24   C31   S    
C18   C21   S    
C30   H15   S    
C19   C20   S    
C27   H14   S    
C5    C6    A    
Cu1   O1    S    
C12   C23   S    
C13   N2    A    
C9    C10   A    
Cu2   O2    S    
C13   C14   A    
C25   H8    S    
C7    C16   S    
Cu2   O4    S    
C26   H5    S    
C20   C21   S    
C18   O8    A    
C35   C36   A    
C1    C3    S    
C23   C31   S    
C21   C22   S    
Cu2   N1    S    
C16   O5    A    
C4    C31   S    
C19   C27   S    
C24   H24   S    
C28   H9    S    
C33   C34   A    
Cu1   O5    S    
C22   C29   S    
C27   C28   S    
C9    H21   S    
C10   H22   S    
C4    O4    A    
C29   C30   S    
C12   H25   S    
Br1   C34   S    
Cu2   O8    S    
C29   H18   S    
C19   C31   S    
C30   H17   S    
C2    C36   A    
Br3   C17   S    
C33   H3    S    
C28   H11   S    
C12   C21   S    
C3    C5    A    
C15   N1    A    
Cu2   O6    S    
C26   H4    S    
C18   O7    A    
C2    C3    A    
C22   C24   S    
C17   N2    A    
C1    O1    A    
C6    C25   S    
C14   N1    A    
C4    O3    A    
C2    C32   A    
C7    C36   A    
C32   H2    S    
C6    C7    A    
Cu1   O3    S    
C8    C9    A    
C29   H19   S    
C8    C14   A    
C30   H16   S    
C20   H1    S    
C10   C11   A    
C27   H13   S    
Br4   C5    S    
Cu1   N2    S    
