data_mof_unit_44384.cif
_audit_creation_date              2013-03-05T15:49:09-0500
_audit_creation_method            fapswitch 2.2
_symmetry_space_group_name_H-M    P1
_symmetry_Int_Tables_number       1
_space_group_crystal_system       triclinic
_cell_length_a                    22.43659
_cell_length_b                    12.995818
_cell_length_c                    26.979619
_cell_angle_alpha                 90.105209
_cell_angle_beta                  90.432885
_cell_angle_gamma                 90.118672
_cell_volume                      7866.51206728

loop_
_atom_site_label
_atom_site_type_symbol
_atom_site_description
_atom_site_fract_x
_atom_site_fract_y
_atom_site_fract_z
_atom_type_partial_charge
O1    O     O_R   0.769900 0.064540 0.196060 -0.508166
O2    O     O_R   0.230100 0.064540 0.803940 -0.509618
O3    O     O_R   0.269900 0.564540 0.196060 -0.521506
O4    O     O_R   0.730100 0.564540 0.803940 -0.510070
O5    O     O_R   0.750800 0.274080 0.199250 -0.499623
O6    O     O_R   0.249200 0.274080 0.800750 -0.457323
O7    O     O_R   0.250800 0.774080 0.199250 -0.510162
O8    O     O_R   0.749200 0.774080 0.800750 -0.500457
C1    C     C_R   0.721303 0.346184 0.178975 0.600214
C2    C     C_R   0.293485 0.309404 0.827027 0.575698
C3    C     C_R   0.220335 0.843892 0.177826 0.585544
C4    C     C_R   0.778735 0.846275 0.821030 0.600828
O9    O     O_R   0.669990 0.371670 0.194150 -0.477071
O10   O     O_R   0.330010 0.371670 0.805850 -0.470107
O11   O     O_R   0.169990 0.871670 0.194150 -0.462540
O12   O     O_R   0.830010 0.871670 0.805850 -0.478180
O13   O     O_R   0.574600 0.238480 0.197800 -0.502750
O14   O     O_R   0.425400 0.238480 0.802200 -0.521167
O15   O     O_R   0.074600 0.738480 0.197800 -0.502229
O16   O     O_R   0.925400 0.738480 0.802200 -0.504625
C5    C     C_R   0.554470 0.156790 0.177106 0.545521
C6    C     C_R   0.446452 0.157640 0.822301 0.541824
C7    C     C_R   0.053721 0.657221 0.177547 0.553576
C8    C     C_R   0.946067 0.657180 0.822622 0.550408
O17   O     O_R   0.566130 0.068680 0.194240 -0.518334
O18   O     O_R   0.433870 0.068680 0.805760 -0.515632
O19   O     O_R   0.066130 0.568680 0.194240 -0.512755
O20   O     O_R   0.933870 0.568680 0.805760 -0.512740
O21   O     O_R   0.680610 0.992490 0.199570 -0.502384
O22   O     O_R   0.319390 0.992490 0.800430 -0.506123
O23   O     O_R   0.180610 0.492490 0.199570 -0.497382
O24   O     O_R   0.819390 0.492490 0.800430 -0.501700
C9    C     C_R   0.730891 0.003562 0.178634 0.553750
C10   C     C_R   0.268550 0.001146 0.820343 0.541093
C11   C     C_R   0.231466 0.501473 0.179432 0.550890
C12   C     C_R   0.769173 0.503945 0.821453 0.553125
O25   O     O_R   0.770060 0.065440 0.307230 -0.519671
O26   O     O_R   0.229940 0.065440 0.692770 -0.523213
O27   O     O_R   0.270060 0.565440 0.307230 -0.522405
O28   O     O_R   0.729940 0.565440 0.692770 -0.520557
O29   O     O_R   0.750960 0.274920 0.302300 -0.504785
O30   O     O_R   0.249040 0.274920 0.697700 -0.497963
O31   O     O_R   0.250960 0.774920 0.302300 -0.506489
O32   O     O_R   0.749040 0.774920 0.697700 -0.505109
C13   C     C_R   0.721224 0.347325 0.321674 0.558903
C14   C     C_R   0.278803 0.347186 0.678287 0.570003
C15   C     C_R   0.221215 0.847302 0.321684 0.552229
C16   C     C_R   0.778802 0.847188 0.678287 0.559028
O33   O     O_R   0.670160 0.372580 0.305320 -0.514279
O34   O     O_R   0.329840 0.372580 0.694680 -0.512103
O35   O     O_R   0.170160 0.872580 0.305320 -0.512494
O36   O     O_R   0.829840 0.872580 0.694680 -0.513973
O37   O     O_R   0.574760 0.239320 0.300850 -0.506086
O38   O     O_R   0.425240 0.239320 0.699150 -0.503962
O39   O     O_R   0.074760 0.739320 0.300850 -0.504439
O40   O     O_R   0.925240 0.739320 0.699150 -0.505733
C17   C     C_R   0.554336 0.158911 0.321628 0.543210
C18   C     C_R   0.445662 0.158891 0.678371 0.549882
C19   C     C_R   0.054330 0.658912 0.321624 0.546588
C20   C     C_R   0.945658 0.658890 0.678368 0.546765
O41   O     O_R   0.566290 0.069580 0.305400 -0.519182
O42   O     O_R   0.433710 0.069580 0.694600 -0.515949
O43   O     O_R   0.066290 0.569580 0.305400 -0.517511
O44   O     O_R   0.933710 0.569580 0.694600 -0.516211
O45   O     O_R   0.680760 0.993330 0.302620 -0.502464
O46   O     O_R   0.319240 0.993330 0.697380 -0.502592
O47   O     O_R   0.180760 0.493330 0.302620 -0.502728
O48   O     O_R   0.819240 0.493330 0.697380 -0.502468
C21   C     C_R   0.731641 0.001982 0.322957 0.551947
C22   C     C_R   0.268330 0.001930 0.677055 0.546774
C23   C     C_R   0.231642 0.501978 0.322955 0.548155
C24   C     C_R   0.768334 0.501940 0.677050 0.551128
Cr1   Cr    Cr6+3 0.756570 0.170940 0.251190 1.045961
Cr2   Cr    Cr6+3 0.243430 0.170940 0.748810 1.058632
Cr3   Cr    Cr6+3 0.256570 0.670940 0.251190 1.026255
Cr4   Cr    Cr6+3 0.743430 0.670940 0.748810 1.041109
Cr5   Cr    Cr6+3 0.623740 0.299110 0.249580 1.045772
Cr6   Cr    Cr6+3 0.376260 0.299110 0.750420 1.041792
Cr7   Cr    Cr6+3 0.123740 0.799110 0.249580 1.065045
Cr8   Cr    Cr6+3 0.876260 0.799110 0.750420 1.048982
Cr9   Cr    Cr6+3 0.625990 0.036240 0.250480 1.032401
Cr10  Cr    Cr6+3 0.374010 0.036240 0.749520 1.027799
Cr11  Cr    Cr6+3 0.125990 0.536240 0.250480 1.045389
Cr12  Cr    Cr6+3 0.874010 0.536240 0.749520 1.040559
O49   O     O_3   0.668770 0.168760 0.250420 -0.259401
O50   O     O_3   0.331230 0.168760 0.749580 -0.278965
O51   O     O_3   0.168770 0.668760 0.250420 -0.258261
O52   O     O_3   0.831230 0.668760 0.749580 -0.260804
C25   C     C_R   0.529216 0.068569 0.098941 -0.110623
C26   C     C_R   0.494917 0.075099 0.894349 -0.088171
C27   C     C_R   0.012079 0.571260 0.103380 -0.087515
C28   C     C_R   0.980097 0.569203 0.898480 -0.086901
C29   C     C_R   0.520796 0.070281 0.047997 0.023872
C30   C     C_R   0.506222 0.074270 0.945079 0.035487
C31   C     C_R   0.002417 0.570914 0.052461 0.032278
C32   C     C_R   0.989030 0.569636 0.949412 0.029991
C33   C     C_R   0.519798 0.981741 0.969060 -0.013775
C34   C     C_R   0.526267 0.979507 0.020344 -0.032601
C35   C     C_R   0.989251 0.476851 0.975758 -0.037447
C36   C     C_R   0.995268 0.477569 0.027085 -0.032610
H1    H     H_    0.524108 0.910749 0.948274 0.169665
H2    H     H_    0.535892 0.906937 0.038386 0.168910
H3    H     H_    0.983968 0.403844 0.956726 0.172442
H4    H     H_    0.995163 0.405076 0.046863 0.179446
C37   C     C_R   0.475611 0.165480 0.870992 0.004531
C38   C     C_R   0.529466 0.160348 0.126669 -0.000933
C39   C     C_R   0.973224 0.661941 0.872317 0.007954
C40   C     C_R   0.025569 0.663363 0.128335 0.010200
C41   C     C_R   0.516054 0.254053 0.103268 -0.126675
C42   C     C_R   0.473813 0.258418 0.897802 -0.130487
C43   C     C_R   0.022972 0.757464 0.102695 -0.115027
C44   C     C_R   0.981781 0.756264 0.896976 -0.123368
C45   C     C_R   0.504846 0.256359 0.052041 0.017770
C46   C     C_R   0.486213 0.259253 0.948701 0.014581
C47   C     C_R   0.011362 0.758692 0.051609 0.017765
C48   C     C_R   0.993477 0.757830 0.948126 0.016952
C49   C     C_R   0.508785 0.164388 0.024243 0.079934
C50   C     C_R   0.500791 0.166197 0.972613 0.079020
C51   C     C_R   0.002741 0.664732 0.026258 0.089091
C52   C     C_R   0.995261 0.664165 0.974560 0.088582
C53   C     C_R   0.491412 0.348984 0.027804 -0.123451
C54   C     C_R   0.481592 0.350248 0.976534 -0.124905
C55   C     C_R   0.010739 0.851473 0.025027 -0.107146
C56   C     C_R   0.001234 0.851112 0.973698 -0.116319
H5    H     H_    0.458961 0.328564 0.879916 0.136443
H6    H     H_    0.516386 0.325015 0.124453 0.131341
H7    H     H_    0.976630 0.828010 0.876978 0.134790
H8    H     H_    0.033313 0.828871 0.121772 0.147975
C57   C     C_R   0.738219 0.964568 0.127774 -0.011712
C58   C     C_R   0.259807 0.952387 0.868777 -0.011480
C59   C     C_R   0.241821 0.451587 0.131300 -0.016430
C60   C     C_R   0.762117 0.465387 0.872425 -0.012278
C61   C     C_R   0.778770 0.013798 0.096338 -0.127283
C62   C     C_R   0.203115 0.945382 0.889844 -0.094227
C63   C     C_R   0.294494 0.471495 0.105497 -0.138305
C64   C     C_R   0.720847 0.512991 0.903782 -0.127834
C65   C     C_R   0.777043 0.995702 0.045653 -0.121038
C66   C     C_R   0.197352 0.919674 0.939712 -0.066529
C67   C     C_R   0.299259 0.443662 0.056038 -0.158373
C68   C     C_R   0.722795 0.495625 0.954548 -0.122647
C69   C     C_R   0.735437 0.927022 0.025253 0.059273
C70   C     C_R   0.248240 0.904922 0.969525 0.054992
C71   C     C_R   0.251587 0.395685 0.031348 0.045961
C72   C     C_R   0.765484 0.429548 0.975099 0.057486
C73   C     C_R   0.696037 0.872418 0.056577 0.257522
C74   C     C_R   0.305332 0.906439 0.947833 0.234762
C75   C     C_R   0.199262 0.368299 0.057668 0.272606
C76   C     C_R   0.805922 0.377164 0.943905 0.257554
C77   C     C_R   0.697840 0.892623 0.107781 -0.076602
C78   C     C_R   0.310286 0.927377 0.897374 -0.098901
C79   C     C_R   0.195521 0.396921 0.107776 -0.083483
C80   C     C_R   0.803651 0.396066 0.892645 -0.075693
C81   C     C_R   0.763777 0.814479 0.956747 -0.116925
C82   C     C_R   0.265826 0.806625 0.046521 -0.092814
C83   C     C_R   0.297316 0.296315 0.964406 -0.101230
C84   C     C_R   0.737600 0.315612 0.043149 -0.119695
C85   C     C_R   0.776142 0.797036 0.907402 -0.169253
C86   C     C_R   0.263306 0.796315 0.097541 -0.161916
C87   C     C_R   0.307680 0.276272 0.914806 -0.180634
C88   C     C_R   0.725033 0.297469 0.092398 -0.167842
C89   C     C_R   0.736086 0.965347 0.885447 0.200664
C90   C     C_R   0.211861 0.960787 0.104111 0.196837
C91   C     C_R   0.242051 0.417792 0.891225 0.224050
C92   C     C_R   0.764006 0.466579 0.115080 0.202814
C93   C     C_R   0.724026 0.983983 0.936177 0.236023
C94   C     C_R   0.214056 0.970526 0.052149 0.205870
C95   C     C_R   0.232717 0.439933 0.941847 0.243986
C96   C     C_R   0.776491 0.485683 0.064463 0.242011
C97   C     C_R   0.738742 0.907550 0.971701 0.015918
C98   C     C_R   0.241504 0.893160 0.023460 0.008950
C99   C     C_R   0.259006 0.375821 0.978270 0.017688
C100  C     C_R   0.762146 0.409424 0.028598 0.015699
C101  C     C_R   0.763450 0.872086 0.871829 -0.014507
C102  C     C_R   0.235552 0.871661 0.126720 -0.018186
C103  C     C_R   0.280085 0.335548 0.878200 -0.019034
C104  C     C_R   0.736986 0.372594 0.128296 -0.014073
H9    H     H_    0.809934 0.070660 0.110482 0.164635
H10   H     H_    0.163591 0.963517 0.868310 0.147349
H11   H     H_    0.331020 0.513140 0.122763 0.145709
H12   H     H_    0.688825 0.567908 0.889493 0.162813
H13   H     H_    0.775615 0.756343 0.983659 0.213638
H14   H     H_    0.286539 0.746466 0.024795 0.175319
H15   H     H_    0.319562 0.249930 0.992269 0.176560
H16   H     H_    0.726233 0.257431 0.015987 0.214121
H17   H     H_    0.796621 0.724734 0.896875 0.138549
H18   H     H_    0.280455 0.726153 0.113868 0.154303
H19   H     H_    0.337311 0.213846 0.904882 0.117121
H20   H     H_    0.704870 0.224611 0.102574 0.140152
H21   H     H_    0.666000 0.855337 0.131844 0.165285
H22   H     H_    0.354496 0.933545 0.881729 0.161902
H23   H     H_    0.154983 0.381098 0.127919 0.175379
H24   H     H_    0.836186 0.360206 0.868746 0.167126
C105  C     C_R   0.527653 0.169065 0.370919 0.023905
C106  C     C_R   0.472400 0.168937 0.629099 0.025243
C107  C     C_R   0.027630 0.669070 0.370908 0.025708
C108  C     C_R   0.972381 0.668932 0.629089 0.024823
C109  C     C_R   0.537176 0.259821 0.398269 -0.125993
C110  C     C_R   0.463369 0.259846 0.601964 -0.125344
C111  C     C_R   0.037156 0.759820 0.398262 -0.124712
C112  C     C_R   0.963353 0.759846 0.601958 -0.125627
C113  C     C_R   0.525879 0.262218 0.448861 -0.120955
C114  C     C_R   0.474704 0.262291 0.551383 -0.120976
C115  C     C_R   0.025845 0.762217 0.448852 -0.120731
C116  C     C_R   0.974671 0.762291 0.551374 -0.120820
C117  C     C_R   0.503870 0.174511 0.472884 0.036407
C118  C     C_R   0.496261 0.174469 0.527153 0.036196
C119  C     C_R   0.003817 0.674515 0.472868 0.036103
C120  C     C_R   0.996209 0.674463 0.527137 0.036199
C121  C     C_R   0.490220 0.086197 0.444828 -0.118858
C122  C     C_R   0.509439 0.085967 0.554998 -0.118599
C123  C     C_R   0.990159 0.586212 0.444806 -0.118554
C124  C     C_R   0.009380 0.585951 0.554976 -0.118783
C125  C     C_R   0.502379 0.083258 0.394278 -0.125550
C126  C     C_R   0.497248 0.082991 0.605539 -0.123491
C127  C     C_R   0.002333 0.583273 0.394259 -0.122921
C128  C     C_R   0.997206 0.582976 0.605520 -0.123405
H25   H     H_    0.557260 0.326931 0.381410 0.133732
H26   H     H_    0.443644 0.327093 0.618976 0.133766
H27   H     H_    0.057256 0.826923 0.381410 0.134742
H28   H     H_    0.943644 0.827100 0.618977 0.134148
H29   H     H_    0.527822 0.018166 0.537485 0.102240
H30   H     H_    0.471487 0.018504 0.462180 0.101827
H31   H     H_    0.027748 0.518144 0.537458 0.102493
H32   H     H_    0.971412 0.518525 0.462153 0.102472
H33   H     H_    0.504784 0.012102 0.625663 0.129226
H34   H     H_    0.494470 0.012490 0.373980 0.127091
H35   H     H_    0.004738 0.512080 0.625640 0.130627
H36   H     H_    0.994420 0.512511 0.373956 0.130188
H37   H     H_    0.537161 0.331165 0.469511 0.100137
H38   H     H_    0.463796 0.331390 0.530899 0.099994
H39   H     H_    0.037133 0.831155 0.469506 0.100442
H40   H     H_    0.963769 0.831399 0.530894 0.100483
C129  C     C_R   0.739943 0.955946 0.371742 0.028960
C130  C     C_R   0.260044 0.955804 0.628226 0.028089
C131  C     C_R   0.239951 0.455923 0.371735 0.027798
C132  C     C_R   0.760068 0.455875 0.628204 0.028984
C133  C     C_R   0.689473 0.921877 0.397471 -0.122967
C134  C     C_R   0.310570 0.922352 0.602443 -0.123463
C135  C     C_R   0.189486 0.421832 0.397463 -0.123077
C136  C     C_R   0.810609 0.422476 0.602422 -0.123009
C137  C     C_R   0.692498 0.906318 0.448109 -0.122401
C138  C     C_R   0.307621 0.907134 0.551772 -0.122837
C139  C     C_R   0.192517 0.406249 0.448099 -0.122497
C140  C     C_R   0.807682 0.407329 0.551745 -0.122574
C141  C     C_R   0.746441 0.921403 0.473569 0.037446
C142  C     C_R   0.253684 0.921806 0.526340 0.037527
C143  C     C_R   0.246462 0.421334 0.473557 0.037477
C144  C     C_R   0.753753 0.422010 0.526303 0.037539
C145  C     C_R   0.798235 0.946011 0.447140 -0.119779
C146  C     C_R   0.201819 0.945639 0.552798 -0.119765
C147  C     C_R   0.298253 0.445958 0.447126 -0.120069
C148  C     C_R   0.701876 0.445802 0.552755 -0.119856
C149  C     C_R   0.794914 0.964042 0.396437 -0.124967
C150  C     C_R   0.205074 0.963428 0.603548 -0.126130
C151  C     C_R   0.294925 0.464012 0.396425 -0.127013
C152  C     C_R   0.705109 0.463526 0.603510 -0.125229
C153  C     C_R   0.784147 0.979955 0.555965 -0.120417
C154  C     C_R   0.215951 0.980267 0.444119 -0.120711
C155  C     C_R   0.284167 0.479897 0.555950 -0.120308
C156  C     C_R   0.716012 0.480432 0.444075 -0.120552
C157  C     C_R   0.790484 0.964611 0.606690 -0.122486
C158  C     C_R   0.209576 0.964865 0.393381 -0.124944
C159  C     C_R   0.290498 0.464571 0.606676 -0.123839
C160  C     C_R   0.709616 0.464976 0.393342 -0.122587
C161  C     C_R   0.719900 0.823038 0.601907 -0.125439
C162  C     C_R   0.280439 0.824185 0.397847 -0.126166
C163  C     C_R   0.219920 0.322989 0.601899 -0.125393
C164  C     C_R   0.780508 0.324344 0.397815 -0.125066
C165  C     C_R   0.714695 0.836757 0.551248 -0.122848
C166  C     C_R   0.285654 0.837906 0.448510 -0.122994
C167  C     C_R   0.214722 0.336690 0.551238 -0.122746
C168  C     C_R   0.785746 0.338118 0.448474 -0.122926
C169  C     C_R   0.748211 0.913126 0.527664 0.036957
C170  C     C_R   0.251991 0.913787 0.472251 0.037195
C171  C     C_R   0.248236 0.413056 0.527652 0.036919
C172  C     C_R   0.752072 0.413993 0.472212 0.037049
C173  C     C_R   0.760140 0.883396 0.629521 0.029853
C174  C     C_R   0.239996 0.883964 0.370403 0.026846
C175  C     C_R   0.260151 0.383366 0.629513 0.028091
C176  C     C_R   0.740033 0.384060 0.370374 0.030070
H41   H     H_    0.646350 0.915274 0.379394 0.136005
H42   H     H_    0.353695 0.916107 0.620510 0.136143
H43   H     H_    0.146361 0.415232 0.379389 0.136615
H44   H     H_    0.853727 0.416217 0.620498 0.136527
H45   H     H_    0.808813 0.041776 0.538673 0.102643
H46   H     H_    0.191193 0.041758 0.461555 0.102450
H47   H     H_    0.308832 0.541716 0.538656 0.102444
H48   H     H_    0.691247 0.541921 0.461505 0.102228
H49   H     H_    0.821401 0.012471 0.627470 0.132711
H50   H     H_    0.178535 0.012328 0.372720 0.132606
H51   H     H_    0.321412 0.512442 0.627455 0.131142
H52   H     H_    0.678556 0.512402 0.372680 0.132201
H53   H     H_    0.651828 0.887886 0.467568 0.100199
H54   H     H_    0.348343 0.889314 0.532286 0.099887
H55   H     H_    0.151850 0.387804 0.467560 0.100499
H56   H     H_    0.848413 0.389541 0.532265 0.100404
H57   H     H_    0.686916 0.783791 0.530322 0.100335
H58   H     H_    0.313526 0.785225 0.469306 0.100219
H59   H     H_    0.186947 0.283714 0.530314 0.100472
H60   H     H_    0.813636 0.285470 0.469272 0.100560
H61   H     H_    0.696097 0.759391 0.618536 0.135661
H62   H     H_    0.304357 0.760853 0.381093 0.135758
H63   H     H_    0.196116 0.259347 0.618530 0.135748
H64   H     H_    0.804431 0.261011 0.381068 0.136142
H65   H     H_    0.840820 0.954496 0.465883 0.101551
H66   H     H_    0.159240 0.953745 0.534052 0.101417
H67   H     H_    0.340839 0.454443 0.465867 0.100987
H68   H     H_    0.659303 0.453914 0.534000 0.101191
H69   H     H_    0.834459 0.989485 0.377162 0.128743
H70   H     H_    0.165492 0.988373 0.622880 0.127291
H71   H     H_    0.334466 0.489470 0.377150 0.126032
H72   H     H_    0.665518 0.488437 0.622839 0.127820
H73   H     H_    0.496867 0.003394 0.873798 0.147506
H74   H     H_    0.539802 0.995638 0.116347 0.144267
H75   H     H_    0.973921 0.495796 0.879943 0.151544
H76   H     H_    0.013610 0.498369 0.122855 0.151677
N1    N     N_R   0.718158 0.037950 0.848098 0.101464
O53   O     O_R   0.664147 0.074327 0.847663 -0.283391
O54   O     O_R   0.754650 0.064376 0.813068 -0.313186
N2    N     N_R   0.188185 0.042680 0.133943 0.100467
O55   O     O_R   0.217645 0.075356 0.172630 -0.328210
O56   O     O_R   0.136167 0.081853 0.124021 -0.253976
N3    N     N_R   0.211485 0.476425 0.853726 0.113525
O57   O     O_R   0.154779 0.495144 0.857863 -0.273428
O58   O     O_R   0.240425 0.515329 0.816585 -0.291908
N4    N     N_R   0.781210 0.539431 0.152731 0.101583
O59   O     O_R   0.835102 0.576695 0.153750 -0.279052
O60   O     O_R   0.744171 0.565166 0.187485 -0.313983
N5    N     N_R   0.653575 0.798690 0.037373 0.069465
O61   O     O_R   0.633235 0.805346 0.992204 -0.357638
O62   O     O_R   0.631729 0.728155 0.066258 -0.329005
N6    N     N_R   0.358825 0.894634 0.976856 0.059807
O63   O     O_R   0.366505 0.947523 0.017420 -0.336963
O64   O     O_R   0.403318 0.842448 0.959191 -0.364203
N7    N     N_R   0.149139 0.315815 0.034677 0.137744
O65   O     O_R   0.147899 0.294488 0.987564 -0.250640
O66   O     O_R   0.103189 0.289857 0.061079 -0.299398
N8    N     N_R   0.850121 0.307421 0.963397 0.073452
O67   O     O_R   0.871508 0.318887 0.008036 -0.339118
O68   O     O_R   0.872887 0.236774 0.935053 -0.323763
H77   H     H_    0.470177 0.422252 0.958681 0.131040
H78   H     H_    0.488111 0.420222 0.048521 0.129279
H79   H     H_    0.000120 0.923674 0.954003 0.146352
H80   H     H_    0.017559 0.924241 0.043928 0.165776
H81   H     H_    0.808208 0.035974 0.022033 0.164777
H82   H     H_    0.153247 0.916044 0.955687 0.156097
H83   H     H_    0.339685 0.462902 0.036301 0.125677
H84   H     H_    0.690913 0.534308 0.978092 0.166737
N9    N     N_R   0.698883 0.080586 0.951575 0.087612
O69   O     O_R   0.658672 0.083633 0.986052 -0.366577
O70   O     O_R   0.716395 0.166237 0.931383 -0.297644
N10   N     N_R   0.190965 0.060868 0.028749 0.106915
O71   O     O_R   0.226713 0.120526 0.004285 -0.322315
O72   O     O_R   0.133680 0.071104 0.022941 -0.262485
N11   N     N_R   0.200633 0.531172 0.955827 0.096616
O73   O     O_R   0.157365 0.526807 0.987558 -0.324324
O74   O     O_R   0.213782 0.619189 0.935702 -0.308401
N12   N     N_R   0.802077 0.582276 0.049499 0.089665
O75   O     O_R   0.843395 0.585074 0.015921 -0.358512
O76   O     O_R   0.784338 0.667985 0.069518 -0.297292

loop_
_geom_bond_atom_site_label_1
_geom_bond_atom_site_label_2
_geom_bond_distance
_ccdc_geom_bond_type
C35   H3    1.083850 S    
C37   C42   1.407486 A    
O4    C12   1.268805 A    
C61   C65   1.387373 A    
O25   C21   1.267700 A    
C39   C44   1.405769 A    
C70   C74   1.412454 A    
C163  H63   1.083424 S    
C54   H77   1.083526 S    
C156  C160  1.389356 A    
Cr7   O51   1.974284 S    
O27   Cr3   2.063925 S    
C162  C174  1.403576 A    
C63   C67   1.386849 A    
C153  C157  1.389620 A    
C82   C86   1.384798 A    
O39   C19   1.272897 A    
C9    C57   1.472406 S    
C32   C35   1.400835 A    
C67   H83   1.084246 S    
C36   H4    1.083576 S    
C82   C98   1.396273 A    
C1    C104  1.455880 S    
C127  H36   1.083161 S    
C160  H52   1.083256 S    
C166  C170  1.400463 A    
O44   Cr12  2.051179 S    
C65   C69   1.399276 A    
C125  H34   1.083159 S    
C74   C78   1.393990 A    
C3    O11   1.268399 A    
C86   C102  1.404793 A    
C4    O12   1.267369 A    
C25   C38   1.406747 A    
N4    O59   1.301679 A    
C76   N8    1.441893 S    
C64   C68   1.388886 A    
C70   C98   1.472323 S    
O2    C10   1.271738 A    
O17   Cr9   2.063426 S    
C121  H30   1.082898 S    
C110  H26   1.083268 S    
C93   C97   1.419275 A    
C47   C55   1.404101 A    
O16   Cr8   1.942272 S    
N3    O57   1.301427 A    
C92   C96   1.418375 A    
N7    O66   1.301785 A    
C140  H56   1.082813 S    
C95   C99   1.415652 A    
C30   C33   1.399566 A    
C19   C107  1.468336 S    
C34   H2    1.083494 S    
C121  C125  1.393322 A    
C24   C132  1.456866 S    
O12   Cr8   2.055434 S    
C116  H40   1.082776 S    
O15   C7    1.274822 A    
O6    C2    1.298801 A    
C134  H42   1.083392 S    
C26   H73   1.084605 S    
C78   H22   1.083796 S    
N11   O73   1.300412 A    
O48   C24   1.268546 A    
N10   O71   1.298975 A    
C69   C97   1.468793 S    
C14   C175  1.456924 S    
C8    C39   1.469656 S    
C105  C125  1.402724 A    
C57   C61   1.402731 A    
C110  C114  1.390455 A    
C92   N4    1.437445 S    
C71   C75   1.421613 A    
C112  H28   1.083269 S    
C137  C141  1.400380 A    
C77   H21   1.083209 S    
C150  H70   1.083229 S    
C143  C171  1.463863 S    
C42   C46   1.399094 A    
O31   Cr3   1.933856 S    
O45   C21   1.267550 A    
C164  C176  1.403564 A    
C159  H51   1.083253 S    
Cr12  O52   1.973359 S    
C26   C37   1.401806 A    
C17   O41   1.269877 A    
C19   O43   1.269881 A    
C40   C43   1.407212 A    
C91   N3    1.438400 S    
C20   O44   1.270093 A    
C60   C80   1.405424 A    
C93   N9    1.439276 S    
Cr8   O52   1.970619 S    
C80   H24   1.083166 S    
O46   C22   1.268546 A    
C115  C119  1.402976 A    
C71   C99   1.465427 S    
N7    O65   1.300531 A    
C132  C136  1.403906 A    
C16   O36   1.267289 A    
C147  H67   1.082969 S    
C155  C159  1.389615 A    
O27   C23   1.267697 A    
N12   O76   1.301424 A    
C135  C139  1.382619 A    
C167  C171  1.400630 A    
O31   C15   1.268782 A    
C68   H84   1.084020 S    
C89   C93   1.417667 A    
O32   C16   1.267589 A    
O47   Cr11  1.944096 S    
N9    O69   1.301317 A    
O21   C9    1.273461 A    
C154  C170  1.404422 A    
C136  C140  1.382032 A    
C91   C103  1.414580 A    
C33   C34   1.390483 A    
C55   C56   1.399557 A    
C57   C77   1.404678 A    
O24   C12   1.274117 A    
O40   C20   1.272986 A    
C85   H17   1.085096 S    
C12   C60   1.474048 S    
C130  C134  1.403890 A    
C83   H15   1.083921 S    
C7    C40   1.468373 S    
C28   C32   1.387176 A    
C89   N1    1.437499 S    
C87   H19   1.084424 S    
O32   Cr4   1.937026 S    
C21   C129  1.457624 S    
C44   H7    1.084045 S    
C1    O9    1.269265 A    
C67   C71   1.400538 A    
O11   Cr7   2.055977 S    
C164  C168  1.382189 A    
C58   C78   1.404586 A    
C23   C131  1.457612 S    
O3    Cr3   2.052964 S    
C130  C150  1.400927 A    
C5    C38   1.468799 S    
O8    C4    1.268392 A    
C113  H37   1.082779 S    
Cr5   O49   1.974284 S    
C119  C123  1.405650 A    
N5    O62   1.301665 A    
C154  C158  1.389344 A    
C29   C49   1.407371 A    
C120  C124  1.405653 A    
C107  C111  1.405190 A    
O22   C10   1.269649 A    
C83   C87   1.384297 A    
C116  C120  1.402924 A    
C84   C88   1.380996 A    
C111  H27   1.083283 S    
N6    O63   1.301421 A    
C2    O10   1.287946 A    
C145  H65   1.082973 S    
C84   C100  1.394993 A    
C48   C52   1.412399 A    
N10   O72   1.300740 A    
N3    O58   1.300610 A    
N2    O56   1.300469 A    
C75   C79   1.404642 A    
O5    C1    1.270530 A    
C151  H71   1.083220 S    
C118  C122  1.405658 A    
C152  H72   1.083225 S    
O3    C11   1.267467 A    
C60   C64   1.402914 A    
C73   N5    1.442592 S    
Cr1   O49   1.970027 S    
C156  H48   1.082987 S    
C45   C49   1.413156 A    
Cr3   O51   1.970027 S    
N11   O74   1.301367 A    
C94   C98   1.412860 A    
N8    O68   1.301486 A    
C161  H61   1.083423 S    
C44   C48   1.402892 A    
O26   Cr2   2.059398 S    
C2    C103  1.454971 S    
C141  C145  1.404634 A    
C3    C102  1.468457 S    
O29   C13   1.268790 A    
O28   C24   1.268899 A    
O14   C6    1.273267 A    
C76   C80   1.405639 A    
C27   H76   1.084559 S    
C69   C73   1.417784 A    
C6    C37   1.466410 S    
C95   N11   1.439573 S    
O40   Cr8   1.935809 S    
C166  H58   1.082806 S    
C90   N2    1.438155 S    
C131  C151  1.401058 A    
O41   Cr9   2.051202 S    
C49   C50   1.403357 A    
C75   N7    1.448920 S    
C30   C50   1.411595 A    
C106  C110  1.405246 A    
O33   Cr5   2.055448 S    
C25   C29   1.386176 A    
O35   Cr7   2.055448 S    
O29   Cr1   1.933856 S    
C156  C172  1.404423 A    
C144  C148  1.404595 A    
C41   H6    1.084052 S    
C45   C53   1.403156 A    
C142  C146  1.404582 A    
C136  H44   1.083393 S    
C43   H8    1.084178 S    
C113  C117  1.402976 A    
N4    O60   1.301326 A    
Cr9   O49   1.969891 S    
C38   C41   1.404835 A    
C146  C150  1.389502 A    
Cr11  O51   1.969891 S    
O26   C22   1.268880 A    
O20   Cr12  2.061151 S    
C53   H78   1.083506 S    
C84   H16   1.080804 S    
C58   C62   1.399964 A    
C55   H80   1.083606 S    
C138  C142  1.400186 A    
C137  H53   1.082805 S    
C108  C128  1.402756 A    
C86   H18   1.083447 S    
C66   H82   1.083295 S    
O30   C14   1.267573 A    
C94   N10   1.430290 S    
N1    O54   1.301245 A    
C126  H33   1.083152 S    
C161  C165  1.382766 A    
C5    O17   1.262807 A    
C90   C94   1.409069 A    
C163  C167  1.382771 A    
C157  H49   1.083256 S    
C155  C171  1.404531 A    
C168  H60   1.082803 S    
C107  C127  1.402721 A    
C108  C112  1.405250 A    
O42   Cr10  2.051179 S    
C28   H75   1.084460 S    
O18   Cr10  2.061151 S    
C111  C115  1.390489 A    
C109  H25   1.083283 S    
O34   Cr6   2.060015 S    
C26   C30   1.390168 A    
O24   Cr12  1.933154 S    
O30   Cr2   1.937026 S    
O1    C9    1.266716 A    
C119  C120  1.475366 S    
O48   Cr12  1.941150 S    
C8    O20   1.264736 A    
C66   C70   1.405316 A    
O37   C17   1.272901 A    
C31   C36   1.400183 A    
C15   O35   1.268642 A    
Cr10  O50   1.973359 S    
C18   C106  1.468489 S    
C140  C144  1.400188 A    
C47   C51   1.410743 A    
O43   Cr11  2.051202 S    
O37   Cr5   1.936023 S    
O21   Cr9   1.933167 S    
O39   Cr7   1.936023 S    
C147  C151  1.389760 A    
C16   C173  1.456898 S    
C168  C172  1.400478 A    
C153  H45   1.082978 S    
C132  C152  1.400928 A    
C155  H47   1.082978 S    
C53   C54   1.399191 A    
C81   H13   1.080966 S    
C143  C147  1.404631 A    
O23   C11   1.272722 A    
C11   C59   1.470622 S    
C65   H81   1.084139 S    
C146  H66   1.082979 S    
C134  C138  1.382020 A    
C48   C56   1.403614 A    
C131  C135  1.403946 A    
C27   C40   1.403590 A    
C68   C72   1.399766 A    
C153  C169  1.404535 A    
C106  C126  1.402751 A    
C51   C52   1.403618 A    
C133  C137  1.382619 A    
C72   C100  1.469795 S    
C165  C169  1.400632 A    
O1    Cr1   2.052964 S    
O19   Cr11  2.063426 S    
C167  H59   1.082810 S    
C115  H39   1.082778 S    
C161  C173  1.403654 A    
C61   H9    1.083222 S    
C159  C175  1.400947 A    
C123  H32   1.082900 S    
C142  C170  1.463025 S    
C163  C175  1.403663 A    
C92   C104  1.410071 A    
O47   C23   1.267551 A    
C81   C85   1.380396 A    
O13   C5    1.278587 A    
C31   C51   1.410520 A    
O28   Cr4   2.059398 S    
C96   C100  1.418628 A    
C6    O18   1.268975 A    
C81   C97   1.394892 A    
C164  H64   1.083421 S    
C74   N6    1.436712 S    
O36   Cr8   2.060015 S    
C96   N12   1.438995 S    
C73   C77   1.406002 A    
C85   C101  1.397829 A    
C4    C101  1.454089 S    
O38   Cr6   1.935809 S    
C123  C127  1.393330 A    
C18   O42   1.270095 A    
O22   Cr10  1.933154 S    
N5    O61   1.301160 A    
O8    Cr4   1.940810 S    
C72   C76   1.416648 A    
C165  H57   1.082812 S    
O23   Cr11  1.933167 S    
C117  C118  1.475360 S    
O7    C3    1.273954 A    
N6    O64   1.300950 A    
C144  C172  1.463069 S    
C59   C63   1.400022 A    
O46   Cr10  1.941150 S    
C139  H55   1.082804 S    
C158  C174  1.400900 A    
C145  C149  1.389766 A    
C89   C101  1.409164 A    
C141  C169  1.463870 S    
C22   C130  1.456825 S    
O45   Cr9   1.944096 S    
O16   C8    1.278757 A    
C109  C113  1.390495 A    
O6    Cr2   1.940810 S    
C13   O33   1.268656 A    
C133  H41   1.083380 S    
C25   H74   1.084499 S    
Cr4   O52   1.970148 S    
O2    Cr2   2.055808 S    
C15   C174  1.456282 S    
C129  C149  1.401060 A    
C114  H38   1.082777 S    
Cr6   O50   1.970619 S    
C79   H23   1.082586 S    
N9    O70   1.301454 A    
C122  H29   1.082892 S    
C87   C103  1.395594 A    
O5    Cr1   1.944731 S    
C88   C104  1.398084 A    
N12   O75   1.301583 A    
O13   Cr5   1.938332 S    
C14   O34   1.267280 A    
C138  H54   1.082813 S    
O9    Cr5   2.055977 S    
C148  H68   1.082977 S    
C128  H35   1.083151 S    
C149  H69   1.083221 S    
C124  C128  1.393351 A    
C162  C166  1.382176 A    
O7    Cr3   1.944731 S    
C122  C126  1.393354 A    
C135  H43   1.083382 S    
C62   H10   1.083072 S    
C158  H50   1.083257 S    
C17   C105  1.468346 S    
C91   C95   1.412474 A    
C162  H62   1.083421 S    
C112  C116  1.390462 A    
C28   C39   1.405979 A    
C35   C36   1.390363 A    
C117  C121  1.405644 A    
C13   C176  1.456291 S    
C157  C173  1.400945 A    
Cr2   O50   1.970148 S    
C46   C50   1.409620 A    
O14   Cr6   1.942272 S    
C7    O19   1.267161 A    
C88   H20   1.085174 S    
C20   C108  1.468505 S    
O38   C18   1.272975 A    
O25   Cr1   2.063925 S    
C32   C52   1.408482 A    
C56   H79   1.083503 S    
C62   C66   1.393766 A    
C90   C102  1.412955 A    
C41   C45   1.403292 A    
C64   H12   1.083110 S    
C139  C143  1.400382 A    
C129  C133  1.403951 A    
C148  C152  1.389520 A    
C154  H46   1.082988 S    
N2    O55   1.301328 A    
C63   H11   1.083065 S    
C105  C109  1.405192 A    
C82   H14   1.083859 S    
C160  C176  1.400902 A    
C59   C79   1.404278 A    
O10   Cr6   2.055434 S    
N1    O53   1.301648 A    
O4    Cr4   2.055808 S    
C42   H5    1.084140 S    
C46   C54   1.404092 A    
C83   C99   1.397644 A    
C10   C58   1.467638 S    
C27   C31   1.389170 A    
N8    O67   1.301247 A    
C114  C118  1.402923 A    
C43   C47   1.400877 A    
C29   C34   1.400750 A    
C33   H1    1.083660 S    
O15   Cr7   1.938332 S    
C124  H31   1.082895 S    
