data_mof_unit_56539.cif
_audit_creation_date              2013-03-05T16:01:10-0500
_audit_creation_method            fapswitch 2.2
_symmetry_space_group_name_H-M    P1
_symmetry_Int_Tables_number       1
_space_group_crystal_system       triclinic
_cell_length_a                    7.199408
_cell_length_b                    36.620072
_cell_length_c                    41.788527
_cell_angle_alpha                 89.934482
_cell_angle_beta                  89.950794
_cell_angle_gamma                 89.940314
_cell_volume                      11017.2286766

loop_
_atom_site_label
_atom_site_type_symbol
_atom_site_description
_atom_site_fract_x
_atom_site_fract_y
_atom_site_fract_z
_atom_type_partial_charge
O1    O     O_R   0.564240 0.782760 0.216890 -0.580549
O2    O     O_R   0.435760 0.217240 0.783110 -0.561040
O3    O     O_R   0.435760 0.217240 0.716890 -0.547701
O4    O     O_R   0.564240 0.782760 0.283110 -0.582674
O5    O     O_R   0.064240 0.717240 0.283110 -0.582098
O6    O     O_R   0.935760 0.282760 0.716890 -0.560079
O7    O     O_R   0.935760 0.282760 0.783110 -0.544556
O8    O     O_R   0.064240 0.717240 0.216890 -0.580167
O9    O     O_R   0.234510 0.787070 0.282870 -0.547153
O10   O     O_R   0.765490 0.212930 0.717130 -0.565318
O11   O     O_R   0.765490 0.212930 0.782870 -0.573650
O12   O     O_R   0.234510 0.787070 0.217130 -0.550119
O13   O     O_R   0.734510 0.712930 0.217130 -0.551621
O14   O     O_R   0.265490 0.287070 0.782870 -0.567204
O15   O     O_R   0.265490 0.287070 0.717130 -0.574834
O16   O     O_R   0.734510 0.712930 0.282870 -0.540820
C1    C     C_R   0.402697 0.794886 0.294276 1.076807
C2    C     C_R   0.596619 0.204373 0.706051 1.063582
C3    C     C_R   0.597824 0.205366 0.794300 1.088740
C4    C     C_R   0.402464 0.795439 0.205961 1.085844
C5    C     C_R   0.902721 0.704666 0.205887 1.082337
C6    C     C_R   0.096353 0.295610 0.793884 1.064682
C7    C     C_R   0.097701 0.294863 0.705793 1.088975
C8    C     C_R   0.902621 0.705006 0.294208 1.072822
O17   O     O_3   0.397750 0.727090 0.250000 -0.262496
O18   O     O_3   0.602250 0.272910 0.750000 -0.253332
O19   O     O_3   0.897750 0.772910 0.250000 -0.265235
O20   O     O_3   0.102250 0.227090 0.750000 -0.253141
V1    V     V_3+5 0.122890 0.754250 0.250000 1.385143
V2    V     V_3+5 0.877110 0.245750 0.750000 1.393783
V3    V     V_3+5 0.622890 0.745750 0.250000 1.386929
V4    V     V_3+5 0.377110 0.254250 0.750000 1.391466
C9    C     C_R   0.822986 0.606197 0.425255 0.603274
C10   C     C_R   0.216502 0.406462 0.583226 0.592111
C11   C     C_R   0.043088 0.384648 0.930866 0.609142
C12   C     C_R   0.948324 0.614059 0.069584 0.600756
C13   C     C_R   0.323006 0.897085 0.076504 0.644464
C14   C     C_R   0.715576 0.096052 0.918080 0.590321
C15   C     C_R   0.579648 0.112371 0.569326 0.610880
C16   C     C_R   0.428280 0.881891 0.433554 0.598870
O21   O     O_2   0.665091 0.625061 0.419919 -0.458502
O22   O     O_2   0.379970 0.390276 0.590090 -0.457483
O23   O     O_2   0.029741 0.348423 0.936099 -0.437457
O24   O     O_2   0.906742 0.649353 0.063786 -0.444259
O25   O     O_2   0.182193 0.872947 0.078474 -0.449382
O26   O     O_2   0.879949 0.111646 0.910873 -0.457781
O27   O     O_2   0.590943 0.148389 0.563001 -0.442677
O28   O     O_2   0.348067 0.849147 0.438615 -0.446990
N1    N     N_R   0.965294 0.608938 0.403599 -0.170154
N2    N     N_R   0.068309 0.401381 0.603450 -0.166969
N3    N     N_R   0.073121 0.396844 0.900287 -0.170464
N4    N     N_R   0.955108 0.602131 0.100661 -0.166376
N5    N     N_R   0.450044 0.898376 0.100879 -0.170208
N6    N     N_R   0.567977 0.100820 0.897729 -0.166970
N7    N     N_R   0.576568 0.101038 0.600638 -0.166454
N8    N     N_R   0.473442 0.891824 0.402859 -0.168009
C17   C     C_R   0.124301 0.588924 0.407210 0.604568
C18   C     C_R   0.905704 0.420088 0.598477 0.598517
C19   C     C_R   0.097563 0.433181 0.894023 0.587498
C20   C     C_R   0.984735 0.566066 0.107601 0.603877
C21   C     C_R   0.597601 0.921760 0.099711 0.561015
C22   C     C_R   0.404721 0.082514 0.902942 0.598323
C23   C     C_R   0.571676 0.064601 0.608051 0.587180
C24   C     C_R   0.544854 0.925737 0.396516 0.590776
C25   C     C_R   0.837422 0.622563 0.349677 0.314173
C26   C     C_R   0.040933 0.385237 0.661563 0.319066
C27   C     C_R   0.931912 0.371324 0.851215 0.323538
C28   C     C_R   0.783105 0.626502 0.147788 0.308090
C29   C     C_R   0.297719 0.877923 0.151570 0.300470
C30   C     C_R   0.540114 0.115910 0.839512 0.321148
C31   C     C_R   0.427219 0.129459 0.648172 0.328985
C32   C     C_R   0.323699 0.875459 0.351158 0.314651
C33   C     C_R   0.819725 0.646639 0.323304 0.180592
C34   C     C_R   0.037179 0.358131 0.685723 0.169128
C35   C     C_R   0.938641 0.347337 0.824760 0.218015
C36   C     C_R   0.772570 0.651199 0.173809 0.221619
C37   C     C_R   0.278010 0.850895 0.175644 0.222044
C38   C     C_R   0.535635 0.142657 0.815117 0.168092
C39   C     C_R   0.436364 0.153229 0.674846 0.218564
C40   C     C_R   0.314537 0.852397 0.324066 0.181130
C41   C     C_R   0.014770 0.691555 0.350704 0.367731
C42   C     C_R   0.143422 0.312413 0.647355 0.335827
C43   C     C_R   0.222624 0.320158 0.846373 0.359448
C44   C     C_R   0.055362 0.681327 0.154845 0.376334
C45   C     C_R   0.549592 0.818719 0.154494 0.373213
C46   C     C_R   0.646543 0.188696 0.852746 0.338541
C47   C     C_R   0.725960 0.178613 0.653967 0.358969
C48   C     C_R   0.517912 0.808285 0.350647 0.365888
C49   C     C_R   0.032740 0.666880 0.376393 -0.133871
C50   C     C_R   0.131108 0.338968 0.623083 -0.141894
C51   C     C_R   0.218691 0.345810 0.871313 -0.119260
C52   C     C_R   0.067696 0.655432 0.130258 -0.120808
C53   C     C_R   0.556717 0.844028 0.129360 -0.122552
C54   C     C_R   0.633589 0.162605 0.877317 -0.141287
C55   C     C_R   0.723679 0.152131 0.629640 -0.126227
C56   C     C_R   0.537635 0.833101 0.376157 -0.142607
C57   C     C_R   0.946345 0.632759 0.376142 -0.026887
C58   C     C_R   0.082257 0.375279 0.629654 -0.028912
C59   C     C_R   0.074838 0.371145 0.874029 -0.029301
C60   C     C_R   0.934238 0.628212 0.126434 -0.030772
C61   C     C_R   0.433402 0.873344 0.127492 -0.034041
C62   C     C_R   0.582946 0.126340 0.871205 -0.030398
C63   C     C_R   0.575771 0.127758 0.626312 -0.027693
C64   C     C_R   0.443058 0.866485 0.376682 -0.028621
C65   C     C_R   0.995893 0.559837 0.454823 -0.037731
C66   C     C_R   0.042751 0.452052 0.553067 -0.044686
C67   C     C_R   0.050724 0.447413 0.950353 -0.066706
C68   C     C_R   0.997856 0.551864 0.050720 -0.063895
C69   C     C_R   0.484602 0.946775 0.049315 -0.039825
C70   C     C_R   0.539517 0.051698 0.949062 -0.045376
C71   C     C_R   0.561583 0.049004 0.551438 -0.066014
C72   C     C_R   0.517640 0.942236 0.452761 -0.066216
C73   C     C_R   0.838883 0.582961 0.452377 -0.250108
C74   C     C_R   0.201268 0.429539 0.556023 -0.249940
C75   C     C_R   0.027658 0.409695 0.956685 -0.245403
C76   C     C_R   0.979289 0.589530 0.043840 -0.244946
C77   C     C_R   0.335843 0.921507 0.050168 -0.254595
C78   C     C_R   0.698585 0.073930 0.945794 -0.250476
C79   C     C_R   0.571795 0.086642 0.543867 -0.245603
C80   C     C_R   0.459120 0.906176 0.459547 -0.244918
C81   C     C_R   0.702941 0.581659 0.476819 0.399828
C82   C     C_R   0.339122 0.431076 0.531922 0.397949
C83   C     C_R   0.990726 0.398510 0.988509 0.413089
C84   C     C_R   0.986556 0.601085 0.011532 0.412218
C85   C     C_R   0.204225 0.922062 0.025046 0.413723
C86   C     C_R   0.835565 0.072944 0.970004 0.397828
C87   C     C_R   0.574334 0.097052 0.511197 0.411956
C88   C     C_R   0.426869 0.896236 0.491838 0.411351
C89   C     C_R   0.141000 0.563570 0.432370 -0.036904
C90   C     C_R   0.893856 0.447056 0.574521 -0.026117
C91   C     C_R   0.084914 0.459044 0.918727 -0.073477
C92   C     C_R   0.000138 0.540213 0.082890 -0.068982
C93   C     C_R   0.619030 0.945904 0.073818 -0.042882
C94   C     C_R   0.391738 0.056150 0.927314 -0.025456
C95   C     C_R   0.559547 0.038139 0.583786 -0.070185
C96   C     C_R   0.560878 0.951897 0.420965 -0.064450
C97   C     C_R   0.911011 0.680998 0.323172 -0.437804
C98   C     C_R   0.091515 0.321853 0.679100 -0.442979
C99   C     C_R   0.085645 0.321342 0.821851 -0.433491
C100  C     C_R   0.910871 0.678679 0.178039 -0.451815
C101  C     C_R   0.409956 0.821914 0.178469 -0.452854
C102  C     C_R   0.592131 0.178866 0.821241 -0.442276
C103  C     C_R   0.586403 0.178401 0.678119 -0.436314
C104  C     C_R   0.411632 0.818707 0.323336 -0.441274
H1    H     H_    0.111413 0.674452 0.397433 0.206919
H2    H     H_    0.162611 0.331509 0.598605 0.213409
H3    H     H_    0.325013 0.345246 0.889631 0.212741
H4    H     H_    0.180364 0.656980 0.113110 0.204081
H5    H     H_    0.659806 0.840854 0.110658 0.201903
H6    H     H_    0.666095 0.170368 0.901670 0.213531
H7    H     H_    0.834316 0.151473 0.612081 0.220247
H8    H     H_    0.625035 0.826250 0.396365 0.209809
C105  C     C_R   0.870882 0.501680 0.526110 0.093374
C106  C     C_R   0.169036 0.510431 0.481950 0.092260
C107  C     C_R   0.019598 0.487853 0.032866 0.072845
C108  C     C_R   0.050087 0.511543 0.968418 0.073564
C109  C     C_R   0.367121 0.002651 0.976457 0.093631
C110  C     C_R   0.656129 0.996663 0.022593 0.092651
C111  C     C_R   0.576641 0.005573 0.469949 0.072663
C112  C     C_R   0.527144 0.984704 0.534741 0.073071
C113  C     C_R   0.179066 0.482981 0.506240 -0.009649
C114  C     C_R   0.862050 0.529455 0.502123 -0.010800
C115  C     C_R   0.023478 0.537636 0.993330 -0.004382
C116  C     C_R   0.018342 0.461769 0.007578 -0.004776
C117  C     C_R   0.671037 0.022618 0.997146 -0.006722
C118  C     C_R   0.358419 0.975109 0.000539 -0.013350
C119  C     C_R   0.501914 0.958473 0.509867 -0.003360
C120  C     C_R   0.571804 0.032733 0.494353 -0.004917
C121  C     C_R   0.031202 0.479070 0.528434 0.114832
C122  C     C_R   0.008925 0.533143 0.479719 0.115012
C123  C     C_R   0.013921 0.525740 0.025552 0.095437
C124  C     C_R   0.039645 0.473629 0.975533 0.095399
C125  C     C_R   0.526241 0.025500 0.974271 0.114041
C126  C     C_R   0.499816 0.972907 0.024036 0.111727
C127  C     C_R   0.532419 0.968786 0.477623 0.095752
C128  C     C_R   0.553435 0.022095 0.526765 0.095227
C129  C     C_R   0.722473 0.495097 0.547615 -0.188089
C130  C     C_R   0.315330 0.516413 0.459880 -0.181330
C131  C     C_R   0.027830 0.477347 0.065393 -0.182090
C132  C     C_R   0.088171 0.522008 0.936502 -0.180471
C133  C     C_R   0.219717 0.008675 0.954676 -0.188386
C134  C     C_R   0.792726 0.993419 0.046804 -0.183744
C135  C     C_R   0.625540 0.013889 0.438008 -0.186142
C136  C     C_R   0.528208 0.974874 0.567462 -0.180154
C137  C     C_R   0.734323 0.468499 0.571288 -0.010358
C138  C     C_R   0.300434 0.542090 0.435499 -0.010721
C139  C     C_R   0.019177 0.503033 0.089822 -0.034460
C140  C     C_R   0.105956 0.496274 0.912287 -0.035532
C141  C     C_R   0.232161 0.034823 0.930675 -0.009897
C142  C     C_R   0.772589 0.969067 0.072051 -0.017751
C143  C     C_R   0.619149 0.987498 0.414124 -0.022690
C144  C     C_R   0.545800 0.001021 0.591378 -0.037946
O29   O     O_2   0.755466 0.412721 0.616685 -0.471947
O30   O     O_2   0.264400 0.592954 0.386052 -0.457134
O31   O     O_2   0.998596 0.555199 0.138377 -0.476312
O32   O     O_2   0.134711 0.444274 0.863877 -0.468188
O33   O     O_2   0.255035 0.089708 0.884569 -0.471423
O34   O     O_2   0.722714 0.921822 0.123733 -0.449235
O35   O     O_2   0.598628 0.934302 0.366484 -0.472667
O36   O     O_2   0.579249 0.053914 0.638945 -0.475704
C145  C     C_R   0.714012 0.554799 0.500593 -0.292578
C146  C     C_R   0.328364 0.457922 0.508104 -0.294356
C147  C     C_R   0.990614 0.424174 0.013256 -0.275587
C148  C     C_R   0.005749 0.575370 0.987061 -0.273640
C149  C     C_R   0.214872 0.948862 0.001320 -0.284257
C150  C     C_R   0.822509 0.047043 0.994549 -0.294027
C151  C     C_R   0.578927 0.070383 0.487268 -0.272953
C152  C     C_R   0.446542 0.922187 0.516162 -0.272245
H9    H     H_    0.616271 0.464707 0.587046 0.175847
H10   H     H_    0.416146 0.545166 0.419112 0.180827
H11   H     H_    0.025446 0.493455 0.114337 0.191274
H12   H     H_    0.135224 0.505854 0.888269 0.192430
H13   H     H_    0.114879 0.038283 0.914716 0.176698
H14   H     H_    0.879873 0.968340 0.090199 0.200202
H15   H     H_    0.657257 0.995404 0.390008 0.194142
H16   H     H_    0.546458 0.991906 0.616052 0.192383
N9    N     N_R   0.097318 0.727361 0.353831 0.262788
O37   O     O_R   0.218182 0.733531 0.376326 -0.300498
O38   O     O_R   0.032912 0.755209 0.337983 -0.362845
N10   N     N_R   0.204718 0.276186 0.638852 0.272917
O39   O     O_R   0.189548 0.264887 0.609445 -0.265757
O40   O     O_R   0.297055 0.256103 0.658991 -0.347959
N11   N     N_R   0.360489 0.291838 0.847628 0.264760
O41   O     O_R   0.522046 0.298659 0.860186 -0.284870
O42   O     O_R   0.312505 0.258006 0.843000 -0.369709
N12   N     N_R   0.185413 0.711108 0.154537 0.259000
O43   O     O_R   0.351246 0.706136 0.142940 -0.306469
O44   O     O_R   0.126931 0.744388 0.158564 -0.333628
N13   N     N_R   0.680301 0.789024 0.154022 0.255153
O45   O     O_R   0.846820 0.794321 0.142841 -0.298595
O46   O     O_R   0.623774 0.755683 0.158328 -0.334967
N14   N     N_R   0.710814 0.224847 0.860742 0.272882
O47   O     O_R   0.699399 0.236479 0.890107 -0.266441
O48   O     O_R   0.803315 0.244364 0.840215 -0.348575
N15   N     N_R   0.864089 0.206858 0.652301 0.268698
O49   O     O_R   0.023927 0.200071 0.639006 -0.285031
O50   O     O_R   0.816627 0.240715 0.657074 -0.367296
N16   N     N_R   0.601299 0.772512 0.353724 0.264120
O51   O     O_R   0.720698 0.766212 0.376445 -0.306059
O52   O     O_R   0.535806 0.744667 0.338096 -0.356134
N17   N     N_R   0.561495 0.609202 0.479788 0.266588
O53   O     O_R   0.395028 0.600197 0.489008 -0.385356
O54   O     O_R   0.609116 0.643462 0.480651 -0.261576
N18   N     N_R   0.479931 0.403336 0.529001 0.267297
O55   O     O_R   0.643902 0.411739 0.518147 -0.382320
O56   O     O_R   0.432546 0.369062 0.529992 -0.273897
N19   N     N_R   0.944082 0.361510 0.996356 0.273264
O57   O     O_R   0.030589 0.345037 0.019583 -0.302553
O58   O     O_R   0.790355 0.347560 0.985517 -0.270455
N20   N     N_R   0.984624 0.638973 0.002801 0.273761
O59   O     O_R   0.871766 0.650380 0.980629 -0.304865
O60   O     O_R   0.120635 0.659988 0.011744 -0.269670
N21   N     N_R   0.061478 0.894962 0.022218 0.267824
O61   O     O_R   0.890082 0.905054 0.017781 -0.383025
O62   O     O_R   0.107482 0.861207 0.016558 -0.260133
N22   N     N_R   0.977828 0.100425 0.972243 0.266824
O63   O     O_R   0.141087 0.092003 0.983391 -0.384888
O64   O     O_R   0.932218 0.134764 0.970374 -0.275464
N23   N     N_R   0.565620 0.134536 0.501395 0.273422
O65   O     O_R   0.688390 0.147190 0.481402 -0.302213
O66   O     O_R   0.414258 0.153130 0.506406 -0.258540
N24   N     N_R   0.383262 0.859454 0.500955 0.272931
O67   O     O_R   0.245315 0.853224 0.520336 -0.314957
O68   O     O_R   0.503156 0.833555 0.495575 -0.265271
N25   N     N_R   0.975372 0.367303 0.717168 0.248112
O69   O     O_R   0.073209 0.388921 0.735169 -0.283782
O70   O     O_R   0.812353 0.356454 0.726565 -0.297565
N26   N     N_R   0.717449 0.634939 0.295862 0.263910
O71   O     O_R   0.770460 0.605721 0.280681 -0.255435
O72   O     O_R   0.550612 0.647557 0.291228 -0.276304
N27   N     N_R   0.621251 0.647922 0.195926 0.276715
O73   O     O_R   0.450461 0.648364 0.185814 -0.315575
O74   O     O_R   0.654489 0.640069 0.225662 -0.289332
N28   N     N_R   0.795101 0.349921 0.801143 0.259732
O75   O     O_R   0.660058 0.326398 0.801436 -0.310322
O76   O     O_R   0.771143 0.380641 0.786080 -0.224777
N29   N     N_R   0.470311 0.133234 0.783990 0.249357
O77   O     O_R   0.568266 0.112069 0.765537 -0.284744
O78   O     O_R   0.303343 0.142825 0.775638 -0.290655
N30   N     N_R   0.118635 0.852700 0.196239 0.278060
O79   O     O_R   0.953566 0.856523 0.184022 -0.300934
O80   O     O_R   0.139357 0.855713 0.226947 -0.288194
N31   N     N_R   0.212224 0.864146 0.296721 0.266477
O81   O     O_R   0.034449 0.858060 0.295278 -0.285485
O82   O     O_R   0.287514 0.887754 0.277397 -0.253944
N32   N     N_R   0.293701 0.150986 0.698634 0.260099
O83   O     O_R   0.155247 0.173760 0.697848 -0.312883
O84   O     O_R   0.277921 0.121272 0.715438 -0.223816
N33   N     N_R   0.004283 0.422778 0.669466 0.270381
O85   O     O_R   0.863820 0.431480 0.687541 -0.231026
O86   O     O_R   0.109251 0.448571 0.657980 -0.341037
N34   N     N_R   0.744408 0.587778 0.349539 0.266255
O87   O     O_R   0.573500 0.585197 0.339720 -0.236397
O88   O     O_R   0.829479 0.558498 0.359405 -0.354677
N35   N     N_R   0.641772 0.599275 0.143336 0.262558
O89   O     O_R   0.591217 0.578433 0.167025 -0.249650
O90   O     O_R   0.568767 0.594142 0.115224 -0.389582
N36   N     N_R   0.774411 0.394741 0.855909 0.252856
O91   O     O_R   0.753551 0.423751 0.838290 -0.253671
O92   O     O_R   0.670581 0.390574 0.881140 -0.380964
N37   N     N_R   0.502997 0.078268 0.832083 0.269949
O93   O     O_R   0.362646 0.069378 0.814117 -0.231347
O94   O     O_R   0.607639 0.052577 0.843872 -0.341867
N38   N     N_R   0.190445 0.911178 0.153673 0.274717
O95   O     O_R   0.133202 0.928193 0.128217 -0.364370
O96   O     O_R   0.159609 0.926043 0.181452 -0.246114
N39   N     N_R   0.208809 0.907568 0.353220 0.260653
O97   O     O_R   0.198744 0.930512 0.329504 -0.237099
O98   O     O_R   0.118556 0.914696 0.379481 -0.380960
N40   N     N_R   0.262335 0.108470 0.642110 0.251427
O99   O     O_R   0.205800 0.084075 0.662534 -0.256146
O100  O     O_R   0.181503 0.110562 0.614330 -0.391639
H17   H     H_    0.591927 0.509387 0.546402 0.134758
H18   H     H_    0.445730 0.502070 0.460885 0.135135
H19   H     H_    0.046218 0.449360 0.072779 0.154547
H20   H     H_    0.110277 0.549971 0.929468 0.152464
H21   H     H_    0.089273 0.994390 0.956050 0.134904
H22   H     H_    0.917650 0.009461 0.047380 0.138555
H23   H     H_    0.674426 0.040508 0.430872 0.155097
H24   H     H_    0.521275 0.946926 0.575450 0.153201
H25   H     H_    0.608197 0.555840 0.518768 0.179733
H26   H     H_    0.435601 0.457099 0.490194 0.180988
H27   H     H_    0.956804 0.413986 0.036764 0.172677
H28   H     H_    0.004999 0.586032 0.963035 0.173925
H29   H     H_    0.112310 0.947089 0.982647 0.174310
H30   H     H_    0.931485 0.047862 0.012069 0.178069
H31   H     H_    0.576545 0.080152 0.462914 0.173912
H32   H     H_    0.415109 0.913010 0.540059 0.173457

loop_
_geom_bond_atom_site_label_1
_geom_bond_atom_site_label_2
_geom_bond_distance
_ccdc_geom_bond_type
C26   C58   1.414097 A    
C29   N38   1.444082 S    
C112  C128  1.421681 A    
C106  C113  1.429541 A    
N11   O41   1.300980 A    
C10   O22   1.348110 S    
C20   C92   1.405954 A    
C21   C93   1.405014 A    
O15   V4    1.993268 S    
N37   O93   1.301238 A    
O16   V3    1.993265 S    
C19   C91   1.404602 A    
N20   O60   1.301367 A    
N27   O73   1.300601 A    
C47   N15   1.437182 S    
N18   O55   1.301351 A    
C106  C122  1.423806 A    
C66   C90   1.408819 A    
N28   O75   1.299658 A    
C87   C151  1.398890 A    
N40   O99   1.300208 A    
C110  C126  1.424308 A    
C11   C75   1.421147 A    
C43   N11   1.435718 S    
C39   N32   1.431103 S    
C70   C78   1.412210 A    
O13   V3    1.994211 S    
C138  H10   1.083809 S    
N16   O52   1.300638 A    
C118  C126  1.417135 A    
C75   C83   1.416121 A    
C69   C93   1.409858 A    
C45   N13   1.437462 S    
C53   C61   1.394542 A    
C72   C80   1.414862 A    
C132  H20   1.076999 S    
C133  H21   1.076914 S    
C6    C99   1.503952 S    
C135  H23   1.078381 S    
N13   O45   1.300954 A    
O10   V2    1.996170 S    
O12   C4    1.331659 A    
N14   O48   1.299484 A    
O13   C5    1.333217 A    
O6    V2    1.981273 S    
N26   O72   1.301058 A    
C56   C64   1.398913 A    
C27   N36   1.434423 S    
C11   N3    1.370218 A    
C30   N37   1.438657 S    
C137  H9    1.083659 S    
C12   O24   1.348092 S    
N36   O91   1.300487 A    
C13   O25   1.348126 S    
C37   N30   1.435220 S    
C15   O27   1.347446 S    
C16   O28   1.347842 S    
O1    C4    1.334147 A    
O2    C3    1.329863 A    
C28   C60   1.408002 A    
N23   O66   1.301287 A    
C65   C89   1.410219 A    
C29   C61   1.411784 A    
C54   H6    1.082799 S    
O7    C6    1.327935 A    
C43   C51   1.404104 A    
C18   O29   1.349211 S    
C83   C147  1.398162 A    
N34   O88   1.301092 A    
C81   C145  1.399486 A    
C42   C98   1.420869 A    
N32   O84   1.299373 A    
C108  C132  1.413950 A    
C82   C146  1.400322 A    
C33   C97   1.420152 A    
O10   C2    1.338928 A    
C85   C149  1.396355 A    
C108  C124  1.421606 A    
C37   C101  1.428424 A    
C95   C144  1.399046 A    
N1    C57   1.446992 S    
C130  C138  1.389780 A    
C13   C77   1.420321 A    
C54   C62   1.401325 A    
C40   N31   1.425887 S    
C86   N22   1.439802 S    
C88   C152  1.399683 A    
N39   O98   1.301427 A    
C110  C117  1.429506 A    
O17   V3    1.759682 S    
C24   C96   1.406266 A    
O18   V4    1.759683 S    
O12   V1    1.993327 S    
O19   V1    1.758370 S    
C140  H12   1.083469 S    
C29   C37   1.417620 A    
C51   H3    1.083175 S    
N35   O90   1.301313 A    
C49   H1    1.082813 S    
C1    C104  1.497456 S    
O8    V1    1.983942 S    
C65   C73   1.415371 A    
C2    C103  1.508379 S    
C86   C150  1.399400 A    
N21   O61   1.301113 A    
C26   C34   1.415298 A    
C36   N27   1.433100 S    
O1    V3    1.981178 S    
N1    C17   1.367008 A    
O2    V4    1.981175 S    
N17   O53   1.301251 A    
N22   O64   1.301609 A    
C84   N20   1.434273 S    
N4    C20   1.368386 A    
N5    C21   1.365983 A    
C39   C103  1.427545 A    
C48   C104  1.426021 A    
C40   C104  1.417695 A    
N7    C23   1.369918 A    
N8    C24   1.370118 A    
C118  C149  1.412397 A    
C11   O23   1.347715 S    
C12   N4    1.370584 A    
C13   N5    1.370431 A    
N38   O96   1.301529 A    
C41   N9    1.446259 S    
N29   O77   1.300777 A    
C72   C96   1.409237 A    
N10   O39   1.301848 A    
C55   C63   1.397278 A    
C105  C129  1.416232 A    
N2    C58   1.456161 S    
C71   C128  1.428331 A    
C113  C146  1.414715 A    
C129  H17   1.076438 S    
N30   O79   1.301181 A    
O11   V2    1.993324 S    
C45   C101  1.423502 A    
N9    O37   1.301604 A    
C149  H29   1.076833 S    
N4    C60   1.447941 S    
C47   C55   1.405877 A    
C136  H24   1.077368 S    
C33   N26   1.429675 S    
C145  H25   1.075945 S    
C110  C134  1.416343 A    
C48   N16   1.446085 S    
N33   O85   1.301254 A    
N25   O70   1.299735 A    
C141  H13   1.083663 S    
C25   N34   1.439737 S    
C87   N23   1.433368 S    
C116  C124  1.415597 A    
C27   C35   1.413552 A    
C12   C76   1.419593 A    
C119  C127  1.415974 A    
C120  C128  1.415051 A    
C31   C63   1.407313 A    
C134  H22   1.075063 S    
C4    C101  1.503426 S    
C22   O33   1.349309 S    
N11   O42   1.301252 A    
N24   O67   1.301146 A    
C8    C97   1.496399 S    
C28   C36   1.417024 A    
C134  C142  1.388244 A    
C9    C73   1.421073 A    
C17   O30   1.348824 S    
C46   N14   1.442534 S    
C119  C152  1.412064 A    
O14   C6    1.338284 A    
C32   C40   1.414839 A    
C35   C99   1.427949 A    
C15   C79   1.423126 A    
N18   O56   1.301596 A    
N28   O76   1.299881 A    
C68   C92   1.410056 A    
C70   C94   1.409047 A    
C73   C81   1.414820 A    
N12   O43   1.300828 A    
N31   O81   1.300822 A    
C44   C52   1.401699 A    
C51   C59   1.394370 A    
C77   C85   1.414926 A    
C20   O31   1.349571 S    
C79   C87   1.417120 A    
C48   C56   1.408975 A    
C52   H4    1.083357 S    
C7    C98   1.490134 S    
C53   H5    1.083600 S    
C43   C99   1.423397 A    
C90   C137  1.397209 A    
C69   C77   1.416490 A    
C41   C97   1.426277 A    
C34   C98   1.412143 A    
O11   C3    1.327168 A    
C109  C133  1.415625 A    
C26   N33   1.438345 S    
C94   C141  1.396749 A    
C38   C102  1.411103 A    
C80   C88   1.416255 A    
C34   N25   1.427293 S    
C131  C139  1.390244 A    
C9    N1    1.370098 A    
C28   N35   1.437690 S    
C129  C137  1.390103 A    
C23   O36   1.349715 S    
C132  C140  1.389286 A    
C143  H15   1.083379 S    
C133  C141  1.388783 A    
C15   N7    1.372447 A    
C108  C115  1.426586 A    
N5    C61   1.445372 S    
C16   N8    1.371793 A    
N15   O49   1.301253 A    
C136  C144  1.390798 A    
C88   N24   1.434387 S    
C115  C123  1.416376 A    
C27   C59   1.403340 A    
C41   C49   1.408350 A    
N19   O58   1.301359 A    
O7    V2    1.983939 S    
C89   C138  1.396951 A    
N36   O92   1.300887 A    
C92   C139  1.398323 A    
C31   C39   1.416650 A    
C107  C131  1.413539 A    
C93   C142  1.396014 A    
N40   O100  1.301165 A    
C67   C124  1.427297 A    
N37   O94   1.301337 A    
C115  C148  1.411788 A    
C151  H31   1.078538 S    
C65   C122  1.429820 A    
C96   C143  1.399113 A    
N39   O97   1.300559 A    
N2    C18   1.371637 A    
N8    C64   1.452115 S    
N35   O89   1.301225 A    
C69   C126  1.428774 A    
C82   N18   1.439605 S    
C32   C64   1.408634 A    
N20   O59   1.301112 A    
C81   N17   1.437930 S    
C116  C147  1.411123 A    
C114  C122  1.418154 A    
C120  C151  1.410819 A    
C31   N40   1.437689 S    
O4    C1    1.328914 A    
C16   C80   1.422324 A    
C84   C148  1.397594 A    
C3    C102  1.486043 S    
C106  C130  1.416420 A    
C55   H7    1.082786 S    
C130  H18   1.076102 S    
C46   C102  1.420749 A    
C17   C89   1.407018 A    
N16   O51   1.301586 A    
C76   C84   1.415369 A    
N6    C62   1.453002 S    
C38   N29   1.426404 S    
O14   V4    1.994208 S    
C21   O34   1.349307 S    
C30   C62   1.413185 A    
C19   O32   1.349810 S    
N6    C22   1.370825 A    
C42   C50   1.407141 A    
C105  C114  1.428626 A    
C9    O21   1.348178 S    
C68   C76   1.414872 A    
C144  H16   1.083407 S    
N13   O46   1.299636 A    
C71   C95   1.408729 A    
C18   C90   1.407972 A    
N14   O47   1.301927 A    
O3    V4    1.982835 S    
O4    V3    1.982832 S    
C25   C57   1.407296 A    
C14   C78   1.417897 A    
C42   N10   1.442435 S    
N26   O71   1.301248 A    
C24   O35   1.349729 S    
C105  C121  1.423098 A    
C5    C100  1.505191 S    
C109  C125  1.422121 A    
C56   H8    1.082628 S    
C30   C38   1.413302 A    
C44   N12   1.438134 S    
N10   O40   1.299825 A    
C66   C74   1.412594 A    
C71   C79   1.415770 A    
N34   O87   1.300957 A    
N30   O80   1.296838 A    
N32   O83   1.299414 A    
C117  C125  1.418745 A    
C152  H32   1.077241 S    
N7    C63   1.452897 S    
C25   C33   1.416325 A    
C111  C120  1.425712 A    
O3    C2    1.329218 A    
C112  C119  1.427974 A    
C148  H28   1.076873 S    
C32   N39   1.439551 S    
C14   N6    1.372482 A    
C46   C54   1.404885 A    
N25   O69   1.300819 A    
O9    V1    1.996167 S    
C91   C140  1.397729 A    
O15   C7    1.328559 A    
O16   C8    1.331702 A    
C111  C127  1.420795 A    
N15   O50   1.301285 A    
C45   C53   1.400895 A    
O5    V1    1.981270 S    
C36   C100  1.427651 A    
N3    C59   1.446445 S    
C10   N2    1.373193 A    
C14   O26   1.348178 S    
C114  C145  1.413965 A    
C67   C91   1.409597 A    
N21   O62   1.301261 A    
N24   O68   1.301364 A    
C150  H30   1.074043 S    
C49   C57   1.396403 A    
N17   O54   1.301493 A    
C23   C95   1.406237 A    
C146  H26   1.075228 S    
N22   O63   1.301349 A    
O8    C5    1.333479 A    
C85   N21   1.434432 S    
C142  H14   1.083206 S    
C67   C75   1.415973 A    
O9    C1    1.333158 A    
N38   O95   1.299376 A    
N12   O44   1.300051 A    
N29   O78   1.299885 A    
C35   N28   1.432546 S    
C66   C121  1.429371 A    
N3    C19   1.367404 A    
N23   O65   1.301029 A    
C52   C60   1.394599 A    
C117  C150  1.415145 A    
C70   C125  1.427235 A    
N27   O74   1.297518 A    
C139  H11   1.083401 S    
C135  C143  1.390890 A    
C109  C118  1.425363 A    
N19   O57   1.301073 A    
C107  C116  1.425310 A    
C10   C74   1.419952 A    
C111  C135  1.413103 A    
C22   C94   1.405634 A    
O20   V2    1.758371 S    
C113  C121  1.418524 A    
C50   H2    1.082803 S    
C83   N19   1.433861 S    
O5    C8    1.330162 A    
O6    C7    1.330585 A    
N33   O86   1.301325 A    
C50   C58   1.402457 A    
N9    O38   1.300612 A    
C131  H19   1.078047 S    
C74   C82   1.414476 A    
C107  C123  1.420889 A    
C72   C127  1.427828 A    
C44   C100  1.424490 A    
C68   C123  1.427105 A    
C78   C86   1.413817 A    
C47   C103  1.423557 A    
C112  C136  1.413578 A    
N31   O82   1.300739 A    
C147  H27   1.078175 S    
