data_mof_unit_64407.cif
_audit_creation_date              2012-12-11T16:11:18-0500
_audit_creation_method            fapswitch 2.2
_symmetry_space_group_name_H-M    P1
_symmetry_Int_Tables_number       1
_space_group_crystal_system       triclinic
_cell_length_a                    19.898429
_cell_length_b                    19.876383
_cell_length_c                    20.650792
_cell_angle_alpha                 108.05741
_cell_angle_beta                  107.306222
_cell_angle_gamma                 110.861235
_cell_volume                      6446.3875273

loop_
_atom_site_label
_atom_site_type_symbol
_atom_type_description
_atom_site_fract_x
_atom_site_fract_y
_atom_site_fract_z
_atom_type_partial_charge
C1    C     C_R   0.720935 0.721372 0.644657 -0.167750
C2    C     C_R   0.530341 0.697489 0.461230 -0.090861
C3    C     C_R   0.504901 0.443810 0.287364 -0.090130
C4    C     C_R   0.424316 0.267378 0.492373 0.618543
C5    C     C_R   0.340306 0.565639 0.566931 -0.126474
C6    C     C_R   0.545669 0.512280 0.281552 0.108674
C7    C     C_R   0.270006 0.497696 0.544434 0.023186
C8    C     C_R   0.475284 0.718727 0.475351 0.066903
C9    C     C_R   0.262536 0.284929 0.271089 -0.147391
C10   C     C_3   0.047500 0.474905 0.639459 -0.205641
C11   C     C_3   0.032480 0.548031 0.648178 0.279459
C12   C     C_R   0.453599 0.225011 0.453115 -0.120454
C13   C     C_1   0.814466 0.493542 0.541023 0.039852
C14   C     C_1   0.211198 0.496343 0.569427 0.008579
C15   C     C_3   0.963867 0.417686 0.566627 -0.211244
C16   C     C_R   0.522738 0.555231 0.719594 0.517909
C17   C     C_3   0.950939 0.491065 0.576025 0.061212
C18   C     C_3   0.004219 0.436089 0.516394 0.263862
C19   C     C_3   0.086169 0.492889 0.588296 0.063891
C20   C     C_3   0.990265 0.508881 0.525349 -0.209097
C21   C     C_3   0.072764 0.566043 0.597664 -0.214643
C22   C     C_1   0.875957 0.491605 0.560188 0.051387
C23   C     C_R   0.502103 0.486192 0.729580 -0.329829
C24   C     C_1   0.157356 0.494799 0.583875 0.041983
C25   C     C_3   0.470689 0.957411 0.475739 0.081063
C26   C     C_3   0.481536 0.983270 0.414911 0.118035
C27   C     C_1   0.429114 0.141273 0.426585 0.002368
C28   C     C_R   0.666276 0.430733 0.470277 -0.155140
C29   C     C_1   0.445585 0.763360 0.445994 -0.001698
C30   C     C_3   0.397023 0.969279 0.462622 0.507789
C31   C     C_3   0.407818 0.996036 0.403056 -0.054564
C32   C     C_3   0.338932 0.880563 0.400110 -0.279624
C33   C     C_3   0.413405 0.868809 0.412080 -0.080443
C34   C     C_R   0.742316 0.496988 0.515810 0.017411
C35   C     C_3   0.350093 0.907630 0.338858 -0.236012
C36   C     C_3   0.424490 0.894202 0.351214 0.233630
C37   C     C_1   0.414372 0.072956 0.410516 0.129802
C38   C     C_1   0.426124 0.806610 0.426106 0.105898
C39   C     C_R   0.574254 0.509722 0.223570 0.007642
C40   C     C_R   0.456957 0.420517 0.656208 0.498385
C41   C     C_R   0.520827 0.453491 0.145780 0.225233
C42   C     C_R   0.550983 0.442873 0.092988 -0.213881
C43   C     C_R   0.633333 0.489452 0.115611 0.058807
C44   C     C_R   0.686863 0.546846 0.192897 0.244707
C45   C     C_R   0.573944 0.578725 0.351089 -0.118066
C46   C     C_R   0.657107 0.556158 0.246574 -0.243574
C47   C     C_R   0.636551 0.486208 0.899219 -0.158465
C48   C     C_R   0.592191 0.466540 0.823373 -0.183561
C49   C     C_R   0.509571 0.521280 0.859763 0.475280
C50   C     C_R   0.555616 0.542635 0.936232 0.166513
C51   C     C_R   0.620384 0.526628 0.956209 -0.023330
C52   C     C_R   0.736370 0.566788 0.530009 0.208472
C53   C     C_2   0.656107 0.485781 0.053838 -0.140322
C54   C     C_2   0.666350 0.546700 0.036111 -0.095175
C55   C     C_R   0.530494 0.485988 0.803567 -0.085434
C56   C     C_R   0.273100 0.430574 0.503906 -0.015920
C57   C     C_R   0.781209 0.853630 0.760238 0.115313
C58   C     C_R   0.757358 0.912595 0.779089 -0.398960
C59   C     C_R   0.816009 0.995064 0.829165 0.653590
C60   C     C_R   0.898515 0.017348 0.858520 0.131753
C61   C     C_R   0.921616 0.959203 0.834087 -0.284957
C62   C     C_R   0.863486 0.877993 0.785611 -0.100438
C63   C     C_R   0.109181 0.152728 0.063244 -0.157131
C64   C     C_R   0.500802 0.275086 0.432836 -0.185491
C65   C     C_R   0.180326 0.191438 0.131207 -0.076258
C66   C     C_R   0.127814 0.267262 0.196324 -0.152749
C67   C     C_R   0.457365 0.692641 0.525856 -0.086869
C68   C     C_R   0.056500 0.228475 0.128289 -0.127896
C69   C     C_R   0.046081 0.169925 0.061525 -0.022564
C70   C     C_2   0.962610 0.097501 0.922679 -0.189423
C71   C     C_2   0.965954 0.118773 0.992546 0.503630
C72   C     C_R   0.189063 0.247054 0.198663 0.131843
C73   C     C_R   0.649259 0.719419 0.707816 0.606511
C74   C     C_R   0.722332 0.766531 0.710888 -0.143085
C75   C     C_R   0.341229 0.313493 0.280170 -0.172190
C76   C     C_R   0.268715 0.306649 0.344542 0.544710
H1    H     H_    0.756292 0.748313 0.620038 0.179284
H2    H     H_    0.965875 0.522470 0.478134 0.172867
H3    H     H_    0.917811 0.356876 0.553401 0.173466
H4    H     H_    0.301256 0.888600 0.282583 0.180621
H5    H     H_    0.281073 0.838406 0.395354 0.175090
H6    H     H_    0.608918 0.440155 0.780713 0.163035
H7    H     H_    0.682910 0.605384 0.079906 0.177397
H8    H     H_    0.685074 0.472127 0.913936 0.162137
H9    H     H_    0.698974 0.598343 0.306450 0.171095
H10   H     H_    0.632163 0.425293 0.008161 0.148145
H11   H     H_    0.509092 0.401087 0.032957 0.170172
H12   H     H_    0.234519 0.369005 0.491136 0.184251
H13   H     H_    0.693741 0.894741 0.755181 0.168978
H14   H     H_    0.650235 0.367392 0.446660 0.134801
H15   H     H_    0.227200 0.175649 0.131709 0.121290
H16   H     H_    0.134764 0.312426 0.247321 0.146198
H17   H     H_    0.985041 0.976030 0.856228 0.158877
H18   H     H_    0.102036 0.106490 0.012882 0.117894
H19   H     H_    0.882839 0.833532 0.769738 0.160604
H20   H     H_    0.017619 0.126223 0.918112 0.099693
H21   H     H_    0.008828 0.242865 0.128085 0.146373
H22   H     H_    0.520986 0.256376 0.390713 0.147954
H23   H     H_    0.416685 0.699996 0.548648 0.112585
H24   H     H_    0.619777 0.640483 0.371475 0.119842
H25   H     H_    0.157117 0.237807 0.316217 0.323676
H26   H     H_    0.338945 0.175059 0.485158 0.329453
H27   H     H_    0.375904 0.977865 0.548722 0.332466
H28   H     H_    0.583523 0.635674 0.826486 0.332354
H29   H     H_    0.413111 0.510836 0.786444 0.330850
H30   H     H_    0.911473 0.096157 0.053570 0.323268
H31   H     H_    0.734630 0.028166 0.825357 0.328901
H32   H     H_    0.429638 0.336050 0.686376 0.332041
H33   H     H_    0.655257 0.797043 0.795540 0.326462
H34   H     H_    0.359138 0.307158 0.235110 0.150706
H35   H     H_    0.556891 0.709358 0.424596 0.124867
H36   H     H_    0.489079 0.382535 0.250630 0.113656
H37   H     H_    0.362467 0.626759 0.609601 0.133910
H38   H     H_    0.072639 0.461487 0.686523 0.171485
H39   H     H_    0.118480 0.626989 0.610780 0.166019
I1    I     I_    0.052594 0.637096 0.752520 -0.320516
I2    I     I_    0.980285 0.346233 0.410160 -0.347756
I3    I     I_    0.593962 0.065158 0.425709 -0.265139
I4    I     I_    0.564426 0.998392 0.586387 -0.300292
I5    I     I_    0.444129 0.830081 0.260965 -0.256406
I6    I     I_    0.392995 0.387048 0.101841 -0.374251
I7    I     I_    0.812502 0.619058 0.231662 -0.328466
I8    I     I_    0.522987 0.596559 0.019731 -0.235250
I9    I     I_    0.834397 0.678869 0.559847 -0.403686
N1    N     N_R   0.652650 0.649400 0.604520 -0.080434
N2    N     N_R   0.494060 0.532730 0.644340 -0.113908
N3    N     N_R   0.615090 0.459670 0.459940 -0.055888
N4    N     N_R   0.452360 0.449090 0.604500 -0.114145
N5    N     N_R   0.656790 0.543310 0.499790 -0.068591
N6    N     N_R   0.501350 0.345910 0.459930 -0.080961
N7    N     N_R   0.607810 0.646480 0.644360 -0.082583
N8    N     N_R   0.547640 0.550910 0.395500 -0.047559
N9    N     N_R   0.343210 0.456690 0.500210 -0.061163
N10   N     N_R   0.498650 0.654090 0.540070 -0.046425
N11   N     N_R   0.392190 0.353520 0.355640 -0.073911
N12   N     N_R   0.347350 0.350600 0.395480 -0.073967
N13   N     N_R   0.543500 0.657010 0.500230 -0.054838
N14   N     N_R   0.505940 0.467270 0.355660 -0.045283
N15   N     N_R   0.384910 0.540330 0.540060 -0.058792
N16   N     N_R   0.456500 0.342990 0.499770 -0.087368
Ni1   Ni    Ni4+2 0.599250 0.599260 0.500010 0.222174
Ni2   Ni    Ni4+2 0.400750 0.400740 0.499990 0.299977
Ni3   Ni    Ni4+2 0.496390 0.592570 0.591380 0.276934
Ni4   Ni    Ni4+2 0.503610 0.407430 0.408620 0.200022
O1    O     O_3   0.207216 0.280785 0.363794 -0.767932
O2    O     O_3   0.354432 0.232549 0.498296 -0.683869
O3    O     O_3   0.382743 0.010425 0.520879 -0.712025
O4    O     O_3   0.563482 0.634351 0.775935 -0.693568
O5    O     O_3   0.447019 0.538604 0.842688 -0.695649
O6    O     O_3   0.896512 0.081163 0.998863 -0.704753
O7    O     O_3   0.794508 0.054128 0.850712 -0.697959
O8    O     O_3   0.418285 0.339801 0.637916 -0.690912
O9    O     O_3   0.612144 0.749868 0.745574 -0.704725

loop_
_geom_bond_atom_site_label_1
_geom_bond_atom_site_label_2
_ccdc_geom_bond_type
C48   C55   A    
C66   C68   A    
C63   C65   A    
H30   O6    S    
C6    C45   A    
C15   C18   S    
C1    H1    S    
C41   C42   A    
H28   O4    S    
C35   C36   S    
C9    C72   S    
C21   H39   S    
C3    C6    A    
N6    N16   A    
C17   C20   S    
N10   N13   A    
C73   N7    A    
C56   N9    A    
C76   N12   A    
H27   O3    S    
N11   N12   A    
C39   C41   A    
C53   C54   D    
C32   H5    S    
C63   H18   S    
H25   O1    S    
N9    Ni2   S    
C52   N5    A    
C19   C21   S    
N16   Ni2   S    
C10   C15   S    
C30   C31   S    
C12   C64   A    
C61   H17   S    
C56   H12   S    
C71   O6    S    
N5    Ni1   S    
C41   I6    S    
C23   C40   A    
C40   N4    A    
N2    Ni3   S    
N8    Ni1   S    
C33   C36   S    
C40   O8    S    
C15   C17   S    
C18   C19   S    
C73   C74   A    
C14   C24   T    
C69   C71   S    
C68   H21   S    
N12   Ni2   S    
N10   Ni3   S    
H32   O8    S    
N15   Ni3   S    
C43   C53   S    
C7    C14   S    
C66   C72   A    
C63   C69   A    
N1    Ni1   S    
C68   C69   A    
C29   C38   T    
C53   H10   S    
C9    C76   A    
C4    C12   A    
N6    Ni4   S    
C3    H36   S    
C10   H38   S    
C28   N3    A    
C67   H23   S    
C46   H9    S    
H31   O7    S    
C64   H22   S    
C28   C34   A    
C59   C60   A    
C1    C74   A    
C62   H19   S    
C16   N2    A    
C7    C56   A    
C25   I4    S    
N7    Ni3   S    
C54   H7    S    
C44   C46   A    
C5    N15   A    
C15   H3    S    
C2    H35   S    
C12   C27   S    
C32   C35   S    
C30   O3    S    
C67   N10   A    
C5    C7    A    
C47   C51   A    
C57   C62   A    
C25   C26   S    
C49   C55   A    
C11   C21   S    
C31   C37   S    
C60   C61   A    
C57   C74   S    
C70   H20   S    
C43   C44   A    
N3    N5    A    
C4    N16   A    
N1    N7    A    
C47   C48   A    
C60   C70   S    
C10   C19   S    
C4    O2    S    
C50   C51   A    
C3    N14   A    
C47   H8    S    
C11   I1    S    
C18   I2    S    
C70   C71   D    
C8    C67   A    
C39   C46   A    
C26   C36   S    
N11   Ni4   S    
C64   N6    A    
C76   O1    S    
N9    N15   A    
C16   C23   A    
C31   C35   S    
C42   C43   A    
C8    C29   S    
H33   O9    S    
C25   C30   S    
C65   H15   S    
N13   Ni1   S    
C11   C17   S    
C75   H34   S    
N2    N4    A    
C5    H37   S    
C2    N13   A    
C2    C8    A    
C50   I8    S    
C26   I3    S    
C1    N1    A    
C45   H24   S    
C66   H16   S    
C23   C55   S    
C59   O7    S    
C65   C72   A    
H29   O5    S    
C34   C52   A    
C17   C22   S    
C49   O5    S    
C16   O4    S    
C51   C54   S    
C32   C33   S    
C19   C24   S    
C58   C59   A    
C13   C34   S    
N14   Ni4   S    
H26   O2    S    
C30   C32   S    
C52   I9    S    
C57   C58   A    
C75   N11   A    
N4    Ni2   S    
C20   H2    S    
C27   C37   T    
C44   I7    S    
C48   H6    S    
C13   C22   T    
C18   C20   S    
N3    Ni4   S    
C61   C62   A    
C36   I5    S    
C58   H13   S    
C10   C11   S    
C35   H4    S    
C26   C31   S    
C20   C21   S    
C45   N8    A    
C49   C50   A    
C73   O9    S    
C6    C39   S    
C33   C38   S    
C28   H14   S    
C42   H11   S    
C9    C75   A    
N8    N14   A    
C25   C33   S    
