data_mof_unit_27701.cif
_audit_creation_date              2013-03-05T16:31:47-0500
_audit_creation_method            fapswitch 2.2
_symmetry_space_group_name_H-M    P1
_symmetry_Int_Tables_number       1
_space_group_crystal_system       triclinic
_cell_length_a                    11.696512
_cell_length_b                    10.825501
_cell_length_c                    9.578304
_cell_angle_alpha                 89.282184
_cell_angle_beta                  90.016941
_cell_angle_gamma                 90.273158
_cell_volume                      1212.7016279

loop_
_atom_site_label
_atom_site_type_symbol
_atom_site_description
_atom_site_fract_x
_atom_site_fract_y
_atom_site_fract_z
_atom_type_partial_charge
O1    O     O_R   0.500000 0.319640 0.618810 -0.572289
O2    O     O_R   0.500010 0.319680 0.381230 -0.525690
C1    C     C_R   0.504935 0.262791 0.500764 0.895008
O3    O     O_R   0.337190 0.499990 0.618790 -0.573273
O4    O     O_R   0.337200 0.500030 0.381210 -0.594616
C2    C     C_R   0.284080 0.499727 0.499989 0.845612
Cu1   Cu    Cu3+1 0.499990 0.499980 0.640670 1.005615
Cu2   Cu    Cu3+1 0.500010 0.500020 0.359330 1.013227
O5    O     O_R   0.499990 0.680320 0.618770 -0.597821
O6    O     O_R   0.500000 0.680360 0.381190 -0.562445
O7    O     O_R   0.662800 0.499970 0.618790 -0.549189
O8    O     O_R   0.662810 0.500010 0.381210 -0.585067
C3    C     C_R   0.503354 0.737673 0.499378 0.833856
C4    C     C_R   0.715907 0.499606 0.500018 0.835711
C5    C     C_1   0.162368 0.499196 0.499967 -0.108130
C6    C     C_1   0.059864 0.498798 0.499945 0.070287
C7    C     C_1   0.940077 0.498612 0.499922 0.089722
C8    C     C_1   0.837587 0.498854 0.499998 -0.086297
C9    C     C_R   0.484332 0.062087 0.619514 -0.005861
C10   C     C_R   0.520439 0.130228 0.503293 -0.190549
C11   C     C_R   0.573695 0.067726 0.392056 0.296833
C12   C     C_R   0.570602 0.937191 0.390218 0.050390
C13   C     C_R   0.516093 0.871206 0.500085 -0.087399
C14   C     C_R   0.482939 0.935426 0.618342 0.012881
C15   C     C_3   0.376472 0.926490 0.704382 -0.468319
C16   C     C_3   0.377746 0.067373 0.705935 0.195329
H1    H     H_    0.303708 0.884647 0.646682 0.225579
H2    H     H_    0.393190 0.884343 0.808785 0.184013
H3    H     H_    0.392580 0.106909 0.811127 0.136067
C17   C     C_R   0.600517 0.506678 0.073369 0.229092
N1    N     N_R   0.500710 0.500930 0.147930 -0.197279
C18   C     C_R   0.401916 0.481834 0.074302 -0.040289
H4    H     H_    0.321849 0.468321 0.128539 0.163754
C19   C     C_R   0.401937 0.481689 0.926165 -0.053631
H5    H     H_    0.321886 0.468005 0.872259 0.179889
N2    N     N_R   0.500710 0.500890 0.852020 -0.224912
C20   C     C_R   0.600259 0.506950 0.925844 0.192501
C21   C     C_3   0.686315 0.609179 0.916493 0.134166
C22   C     C_3   0.686780 0.609959 0.075613 -0.190830
H6    H     H_    0.651858 0.695173 0.867806 0.097621
H7    H     H_    0.651861 0.696191 0.118488 0.165636
N3    N     N_R   0.631751 0.135256 0.282998 0.131191
O9    O     O_R   0.713954 0.211630 0.313738 -0.355971
O10   O     O_R   0.599849 0.124456 0.153589 -0.357190
N4    N     N_3   0.797715 0.575151 0.135818 -0.473158
H8    H     H_    0.809548 0.624228 0.227992 0.228064
H9    H     H_    0.799586 0.480920 0.161387 0.280015
N5    N     N_3   0.624221 0.871890 0.279290 -0.578632
H10   H     H_    0.582861 0.894923 0.185904 0.256947
H11   H     H_    0.709717 0.899955 0.272467 0.253981
N6    N     N_R   0.281021 0.122926 0.631394 0.141257
O11   O     O_R   0.222992 0.210422 0.689872 -0.341734
O12   O     O_R   0.253379 0.087781 0.506249 -0.346845
N7    N     N_R   0.795050 0.570476 0.855192 0.182661
O13   O     O_R   0.861078 0.652655 0.795913 -0.344693
O14   O     O_R   0.828758 0.456100 0.863439 -0.314796

loop_
_geom_bond_atom_site_label_1
_geom_bond_atom_site_label_2
_geom_bond_distance
_ccdc_geom_bond_type
O4    Cu2   1.915869 S    
C12   N5    1.430181 S    
C13   C14   1.392575 A    
C20   C21   1.494282 S    
N6    O11   1.300475 A    
C15   H1    1.112340 S    
Cu1   N2    2.024538 S    
C4    C8    1.423290 S    
C19   N2    1.369957 A    
C9    C10   1.392285 A    
C21   N7    1.466124 S    
Cu2   O8    1.915630 S    
C22   N4    1.468655 S    
C18   H4    1.079534 S    
N5    H11   1.045575 S    
C7    C8    1.198789 T    
C15   C16   1.525396 S    
Cu1   Cu2   2.694754 S    
C22   H7    1.104644 S    
N4    H8    1.044924 S    
C14   C15   1.495575 S    
C15   H2    1.111623 S    
Cu1   O7    1.915867 S    
C12   C13   1.414697 A    
O4    C2    1.296431 A    
N3    O10   1.300864 A    
O3    Cu1   1.915629 S    
C5    C6    1.198932 T    
C11   C12   1.413725 A    
N5    H10   1.044802 S    
C21   H6    1.113151 S    
O8    C4    1.296225 A    
C17   C22   1.502795 S    
C9    C14   1.371378 A    
O2    C1    1.294645 A    
N4    H9    1.046426 S    
C17   N1    1.369453 A    
O7    C4    1.296394 A    
N7    O14   1.302664 A    
C16   N6    1.465140 S    
N3    O9    1.301194 A    
C11   N3    1.436407 S    
C1    C10   1.447225 S    
C21   C22   1.524242 S    
C10   C11   1.415462 A    
C3    C13   1.452620 S    
C16   H3    1.112854 S    
O3    C2    1.296297 A    
C19   H5    1.079599 S    
Cu1   O5    1.960894 S    
C9    C16   1.498387 S    
O5    C3    1.294912 A    
N7    O13   1.300512 A    
N2    C20   1.363826 A    
N6    O12   1.302358 A    
C2    C5    1.423584 S    
O1    Cu1   1.966074 S    
Cu2   N1    2.024774 S    
Cu2   O6    1.966074 S    
O2    Cu2   1.960893 S    
N1    C18   1.369766 A    
C17   C20   1.413003 A    
C6    C7    1.401082 S    
O1    C1    1.295497 A    
O6    C3    1.298207 A    
C18   C19   1.418924 A    
