data_mof_unit_30874.cif
_audit_creation_date              2012-12-11T16:05:06-0500
_audit_creation_method            fapswitch 2.2
_symmetry_space_group_name_H-M    P1
_symmetry_Int_Tables_number       1
_space_group_crystal_system       triclinic
_cell_length_a                    10.655591
_cell_length_b                    10.644388
_cell_length_c                    16.887241
_cell_angle_alpha                 98.825971
_cell_angle_beta                  98.778698
_cell_angle_gamma                 61.291324
_cell_volume                      1653.14846452

loop_
_atom_site_label
_atom_site_type_symbol
_atom_type_description
_atom_site_fract_x
_atom_site_fract_y
_atom_site_fract_z
_atom_type_partial_charge
C1    C     C_R   0.353734 0.777637 0.399710 0.560900
C2    C     C_3   0.390326 0.694075 0.251931 -0.149839
C3    C     C_3   0.345684 0.816749 0.320448 0.081667
C4    C     C_R   0.405571 0.373614 0.357064 0.555423
C5    C     C_3   0.423287 0.881949 0.286123 0.291029
C6    C     C_3   0.282154 0.975725 0.238041 -0.101764
C7    C     C_3   0.204976 0.906824 0.272257 -0.165482
C8    C     C_3   0.248372 0.785122 0.203144 -0.126279
C9    C     C_3   0.326047 0.852373 0.169618 0.017708
C10   C     C_3   0.457130 0.247343 0.770983 0.299897
C11   C     C_3   0.412743 0.387491 0.734869 -0.101989
C12   C     C_3   0.747997 0.281485 0.251643 -0.122060
C13   C     C_3   0.336381 0.334402 0.662719 0.010551
C14   C     C_3   0.383370 0.193446 0.699047 -0.119808
C15   C     C_3   0.242315 0.269604 0.740699 -0.146411
C16   C     C_R   0.777669 0.375881 0.402105 0.540696
C17   C     C_3   0.195222 0.410941 0.702735 -0.133343
C18   C     C_3   0.271292 0.462262 0.776439 -0.161552
C19   C     C_3   0.319154 0.321410 0.812864 0.072342
C20   C     C_1   0.845637 0.329255 0.705924 -0.059690
C21   C     C_1   0.891609 0.295461 0.773171 -0.056528
C22   C     C_1   0.357907 0.764977 0.714411 -0.046401
C23   C     C_3   0.815521 0.347928 0.320843 0.061186
C24   C     C_1   0.326365 0.811367 0.782055 -0.046492
C25   C     C_R   0.893390 0.310201 0.091099 0.561940
C26   C     C_R   0.321860 0.302617 0.119343 0.541423
C27   C     C_R   0.295744 0.889275 0.087932 0.544146
C28   C     C_R   0.379659 0.715850 0.631594 0.552959
C29   C     C_R   0.941882 0.275931 0.855906 0.558734
C30   C     C_R   0.308430 0.294208 0.891942 0.557650
C31   C     C_R   0.282356 0.880248 0.859755 0.535782
C32   C     C_R   0.366130 0.345195 0.584553 0.554757
C33   C     C_R   0.778560 0.377439 0.628793 0.538204
C34   C     C_3   0.963075 0.262622 0.289825 -0.147996
C35   C     C_1   0.373289 0.360599 0.272583 -0.074462
C36   C     C_1   0.348296 0.342672 0.201537 -0.074100
C37   C     C_3   0.896791 0.195503 0.218946 -0.123027
C38   C     C_3   0.694882 0.088131 0.755972 -0.089139
C39   C     C_3   0.598256 0.950445 0.287959 -0.088593
C40   C     C_3   0.925659 0.388748 0.240734 -0.109406
C41   C     C_3   0.777050 0.474727 0.272629 -0.113040
C42   C     C_3   0.710572 0.407745 0.202376 -0.149245
C43   C     C_3   0.857888 0.322905 0.171397 0.060698
C44   C     C_3   0.468348 0.761057 0.216773 -0.147111
Cr1   Cr    Cr6+3 0.608340 0.611040 0.520430 1.035356
Cr2   Cr    Cr6+3 0.287650 0.601120 0.489350 1.019956
Cr3   Cr    Cr6+3 0.604040 0.287870 0.490280 1.013658
Cr4   Cr    Cr6+3 0.054020 0.052700 0.970850 1.029292
Cr5   Cr    Cr6+3 0.059230 0.375120 0.993390 1.019150
Cr6   Cr    Cr6+3 0.374950 0.061200 0.992340 1.037138
H1    H     H_    0.676844 0.235253 0.258247 0.118263
H2    H     H_    0.941552 0.082368 0.192096 0.133916
H3    H     H_    0.063163 0.208213 0.329519 0.118491
H4    H     H_    0.998581 0.433303 0.234509 0.136966
H5    H     H_    0.731715 0.588882 0.297753 0.149009
H6    H     H_    0.610717 0.461200 0.162366 0.109903
H7    H     H_    0.434238 0.579213 0.261183 0.105324
H8    H     H_    0.570596 0.706861 0.188035 0.100063
H9    H     H_    0.695828 0.158381 0.713860 0.132316
H10   H     H_    0.675581 0.000047 0.721977 0.117831
H11   H     H_    0.803092 0.037464 0.788938 0.164145
H12   H     H_    0.241426 0.090582 0.229091 0.116682
H13   H     H_    0.532617 0.023389 0.240275 0.137428
H14   H     H_    0.677987 0.844836 0.261131 0.093405
H15   H     H_    0.660519 0.998924 0.326773 0.160852
H16   H     H_    0.101030 0.960249 0.299279 0.118996
H17   H     H_    0.177758 0.743347 0.167100 0.136770
H18   H     H_    0.484795 0.434057 0.730533 0.106182
H19   H     H_    0.426403 0.085038 0.665539 0.127163
H20   H     H_    0.172977 0.220325 0.745269 0.107632
H21   H     H_    0.087562 0.476223 0.671944 0.143278
H22   H     H_    0.226790 0.570717 0.809873 0.132886
O1    O     O_R   0.751220 0.499230 0.435170 -0.513647
O2    O     O_R   0.412990 0.180750 0.091610 -0.518207
O3    O     O_R   0.366620 0.943130 0.065760 -0.505675
O4    O     O_R   0.477220 0.727600 0.436870 -0.473528
O5    O     O_R   0.160510 0.906330 0.879210 -0.525595
O6    O     O_R   0.930190 0.179050 0.889450 -0.481886
O7    O     O_R   0.909140 0.398170 0.896710 -0.495101
O8    O     O_R   0.186190 0.363460 0.918830 -0.528501
O9    O     O_R   0.401670 0.173200 0.913310 -0.466405
O10   O     O_R   0.356120 0.936130 0.900470 -0.490511
O11   O     O_3   0.162740 0.163010 0.985530 -0.279641
O12   O     O_R   0.297880 0.469080 0.560050 -0.507625
O13   O     O_R   0.258650 0.745120 0.411470 -0.529335
O14   O     O_R   0.297070 0.467240 0.395960 -0.488665
O15   O     O_R   0.488830 0.252610 0.387790 -0.492809
O16   O     O_R   0.724400 0.302390 0.420980 -0.525710
O17   O     O_R   0.752100 0.501210 0.612190 -0.511630
O18   O     O_R   0.478040 0.729440 0.600970 -0.491150
O19   O     O_R   0.259530 0.747110 0.588490 -0.505252
O20   O     O_3   0.592743 0.166949 0.812205 -0.539959
O21   O     O_3   0.511246 0.933163 0.335850 -0.543327
O22   O     O_R   0.489720 0.254590 0.564810 -0.512891
O23   O     O_R   0.725220 0.304230 0.585080 -0.506335
O24   O     O_3   0.500010 0.500010 0.500020 -0.296257
O25   O     O_R   0.171830 0.913880 0.057510 -0.520528
O26   O     O_R   0.940690 0.186050 0.054730 -0.495049
O27   O     O_R   0.920470 0.405720 0.075010 -0.520118
O28   O     O_R   0.196690 0.370460 0.084120 -0.500645

loop_
_geom_bond_atom_site_label_1
_geom_bond_atom_site_label_2
_ccdc_geom_bond_type
C32   O22   A    
C11   C18   S    
C34   C37   S    
C41   C42   S    
C13   C32   S    
C35   C36   T    
C25   C43   S    
C6    C9    S    
C2    H7    S    
C7    C8    S    
C4    O15   A    
C15   C19   S    
C39   H14   S    
C12   C23   S    
C9    C27   S    
C31   O10   A    
Cr1   O4    S    
C34   C40   S    
C3    C7    S    
Cr6   O2    S    
C5    C6    S    
C4    O14   A    
C38   O20   S    
Cr1   O1    S    
C18   C19   S    
Cr4   O6    S    
C12   C37   S    
C41   H5    S    
C12   C42   S    
C42   H6    S    
C25   O27   A    
C40   C43   S    
C39   O21   S    
C29   O6    A    
C2    C44   S    
C8    C9    S    
Cr3   O24   S    
Cr1   O24   S    
Cr1   O17   S    
C38   H11   S    
C30   O8    A    
C4    C35   S    
C10   O20   S    
C22   C28   S    
C13   C14   S    
C1    O13   A    
C39   H15   S    
C27   O3    A    
C33   O23   A    
Cr6   O11   S    
C31   O5    A    
C18   H22   S    
C32   O12   A    
C16   O1    A    
Cr5   O11   S    
C10   C14   S    
C44   H8    S    
C37   H2    S    
Cr2   O19   S    
C21   C29   S    
Cr5   O7    S    
C1    C3    S    
Cr3   O15   S    
Cr4   O5    S    
C37   C43   S    
Cr4   O25   S    
C33   O17   A    
Cr5   O27   S    
C29   O7    A    
C10   C19   S    
C23   C34   S    
C17   C18   S    
Cr1   O18   S    
C34   H3    S    
C38   H10   S    
C20   C33   S    
C26   C36   S    
C40   C41   S    
C5    C44   S    
C17   H21   S    
C16   C23   S    
C40   H4    S    
C14   H19   S    
Cr2   O12   S    
C42   C43   S    
C12   H1    S    
C39   H13   S    
C11   H18   S    
Cr6   O10   S    
C15   C17   S    
C15   H20   S    
C27   O25   A    
C9    C44   S    
C1    O4    A    
C2    C8    S    
C3    C5    S    
C5    O21   S    
Cr5   O8    S    
C6    C7    S    
Cr4   O26   S    
C23   C41   S    
Cr4   O11   S    
C13   C17   S    
Cr3   O16   S    
Cr2   O13   S    
C30   O9    A    
C2    C3    S    
C24   C31   S    
Cr6   O3    S    
Cr5   O28   S    
C11   C13   S    
C6    H12   S    
C26   O2    A    
Cr3   O22   S    
C28   O19   A    
C22   C24   T    
C10   C11   S    
C38   H9    S    
C25   O26   A    
Cr2   O24   S    
C20   C21   T    
C8    H17   S    
C16   O16   A    
Cr3   O23   S    
C14   C15   S    
C28   O18   A    
Cr2   O14   S    
C19   C30   S    
Cr6   O9    S    
C26   O28   A    
C7    H16   S    
