data_mof_unit_63071.cif
_audit_creation_date              2012-12-10T19:14:28-0500
_audit_creation_method            fapswitch 2.2
_symmetry_space_group_name_H-M    P1
_symmetry_Int_Tables_number       1
_space_group_crystal_system       triclinic
_cell_length_a                    16.004725
_cell_length_b                    14.728892
_cell_length_c                    10.864077
_cell_angle_alpha                 90.013988
_cell_angle_beta                  90.002484
_cell_angle_gamma                 90.590501
_cell_volume                      2560.87305396

loop_
_atom_site_label
_atom_site_type_symbol
_atom_type_description
_atom_site_fract_x
_atom_site_fract_y
_atom_site_fract_z
_atom_type_partial_charge
C1    C     C_R   0.340854 0.499562 0.499973 0.840037
C2    C     C_R   0.659151 0.500293 0.499973 0.853496
C3    C     C_R   0.954603 0.412899 0.487436 -0.072126
C4    C     C_R   0.042704 0.412281 0.487489 -0.065981
C5    C     C_1   0.823011 0.499430 0.499321 -0.000466
C6    C     C_1   0.176904 0.497157 0.499381 -0.020305
C7    C     C_1   0.251867 0.498502 0.499711 -0.125918
C8    C     C_1   0.748098 0.500706 0.499684 -0.059599
C9    C     C_R   0.575340 0.952677 0.515330 0.227646
C10   C     C_R   0.425026 0.950942 0.483772 0.218855
C11   C     C_R   0.500183 0.902887 0.499640 -0.222098
C12   C     C_R   0.424997 0.047330 0.483778 0.227661
C13   C     C_R   0.575291 0.049075 0.515587 0.220077
C14   C     C_R   0.500121 0.097117 0.499783 -0.204150
C15   C     C_1   0.500127 0.802692 0.499843 0.364098
C16   C     C_1   0.500058 0.197308 0.499917 0.362831
C17   C     C_R   0.512301 0.500211 0.262621 0.816503
C18   C     C_R   0.512231 0.500196 0.737429 0.815421
C19   C     C_R   0.579913 0.664160 0.126263 0.278271
C20   C     C_R   0.580341 0.663693 0.873583 0.279159
C21   C     C_R   0.579307 0.746340 0.063190 -0.181638
C22   C     C_R   0.579581 0.746109 0.936035 -0.181934
C23   C     C_R   0.555258 0.582171 0.934489 -0.003818
C24   C     C_R   0.555209 0.582300 0.065597 -0.001608
C25   C     C_R   0.535729 0.500184 0.129835 -0.144974
C26   C     C_R   0.535645 0.500099 0.870280 -0.144412
C27   C     C_R   0.538455 0.416922 0.064453 -0.089168
C28   C     C_R   0.538336 0.416880 0.935678 -0.089363
C29   C     C_R   0.957674 0.577448 0.509947 -0.128144
C30   C     C_R   0.044580 0.576839 0.509987 -0.154036
C31   C     C_R   0.912567 0.496147 0.498785 0.075670
C32   C     C_R   0.087245 0.494927 0.498881 0.081752
Cu1   Cu    Cu3+1 0.500000 0.589220 0.500000 1.074806
Cu2   Cu    Cu3+1 0.500000 0.410780 0.500000 1.049044
H1    H     H_    0.594750 0.808990 0.110697 0.197829
H2    H     H_    0.595220 0.808525 0.888163 0.201342
H3    H     H_    0.078667 0.640468 0.518737 0.176160
H4    H     H_    0.925510 0.641518 0.518686 0.186079
N1    N     N_1   0.500000 0.276710 0.500000 -0.138094
N2    N     N_1   0.500000 0.723290 0.500000 -0.115577
O1    O     O_R   0.380310 0.575320 0.500020 -0.562203
O2    O     O_R   0.619690 0.575320 0.499980 -0.504781
O3    O     O_R   0.380310 0.424640 0.499960 -0.557682
O4    O     O_R   0.619690 0.424640 0.500040 -0.583514
O5    O     O_R   0.500000 0.575360 0.319640 -0.557033
O6    O     O_R   0.500000 0.575360 0.680360 -0.559148
O7    O     O_R   0.500000 0.424670 0.319580 -0.579258
O8    O     O_R   0.500000 0.424670 0.680420 -0.580039
C33   C     C_1   0.542263 0.329854 0.127591 0.321076
N3    N     N_1   0.545464 0.260404 0.177175 -0.228742
C34   C     C_1   0.541869 0.329776 0.872552 0.321204
N4    N     N_1   0.544843 0.260298 0.822975 -0.224216
Br1   Br    Br    0.655585 0.665580 0.262921 -0.444322
Br2   Br    Br    0.656840 0.663961 0.737991 -0.436812
C35   C     C_1   0.907505 0.328702 0.475793 0.275999
N5    N     N_1   0.869883 0.261542 0.466487 -0.168046
C36   C     C_1   0.087235 0.327454 0.475915 0.278415
N6    N     N_1   0.122811 0.259785 0.466667 -0.168920
Br3   Br    Br    0.678438 0.115828 0.537731 -0.362607
Br4   Br    Br    0.321754 0.111654 0.461846 -0.367672
Br5   Br    Br    0.678654 0.888399 0.536158 -0.323702
Br6   Br    Br    0.321820 0.884251 0.461879 -0.391324

loop_
_geom_bond_atom_site_label_1
_geom_bond_atom_site_label_2
_ccdc_geom_bond_type
C29   H4    S    
C4    C36   S    
C5    C8    T    
C6    C32   S    
C23   C24   A    
C29   C30   A    
C13   Br3   S    
C13   C14   A    
C25   C27   A    
Cu1   O5    S    
C26   C28   A    
C18   C26   S    
C20   C23   A    
C35   N5    T    
Cu1   O1    S    
C19   Br1   S    
Cu1   Cu2   S    
C12   C14   A    
C17   C25   S    
C18   O8    A    
C29   C31   A    
C4    C32   A    
C21   C22   A    
C3    C31   A    
Cu1   O6    S    
C9    C11   A    
C36   N6    T    
C10   Br6   S    
C10   C12   A    
C2    O2    A    
C9    Br5   S    
Cu1   O2    S    
C18   O6    A    
C1    O1    A    
C19   C21   A    
C17   O5    A    
C19   C24   A    
C6    C7    T    
C28   C34   S    
C14   C16   S    
C15   N2    T    
C21   H1    S    
Cu1   N2    S    
Cu2   O8    S    
C10   C11   A    
C16   N1    T    
C27   C33   S    
C34   N4    T    
C30   C32   A    
C17   O7    A    
C22   H2    S    
C24   C25   A    
C20   Br2   S    
C33   N3    T    
C23   C26   A    
C2    O4    A    
C27   C28   A    
Cu2   O4    S    
C9    C13   A    
Cu2   O7    S    
C3    C35   S    
C1    C7    S    
C11   C15   S    
Cu2   N1    S    
C1    O3    A    
C2    C8    S    
Cu2   O3    S    
C3    C4    A    
C30   H3    S    
C20   C22   A    
C5    C31   S    
C12   Br4   S    
