data_mof_unit_49101.cif
_audit_creation_date              2012-12-10T17:15:11-0500
_audit_creation_method            fapswitch 2.2
_symmetry_space_group_name_H-M    P1
_symmetry_Int_Tables_number       1
_space_group_crystal_system       triclinic
_cell_length_a                    15.846021
_cell_length_b                    13.000188
_cell_length_c                    11.745238
_cell_angle_alpha                 99.837165
_cell_angle_beta                  92.717854
_cell_angle_gamma                 91.039045
_cell_volume                      2380.43223391

loop_
_atom_site_label
_atom_site_type_symbol
_atom_type_description
_atom_site_fract_x
_atom_site_fract_y
_atom_site_fract_z
_atom_type_partial_charge
C1    C     C_R   0.498273 0.299376 0.478642 0.902878
C2    C     C_R   0.501552 0.700365 0.521517 0.830499
C3    C     C_R   0.423037 0.021809 0.384382 -0.219180
C4    C     C_R   0.578797 0.976315 0.615455 -0.269226
C5    C     C_R   0.438110 0.127248 0.381783 0.379168
C6    C     C_R   0.566422 0.869694 0.613588 0.449705
C7    C     C_R   0.539285 0.137316 0.547426 0.326132
C8    C     C_R   0.453439 0.865170 0.462921 0.291450
C9    C     C_R   0.528959 0.028860 0.543153 -0.075053
C10   C     C_R   0.468090 0.971748 0.463533 0.016710
C11   C     C_R   0.413583 0.408945 0.026435 0.326503
C12   C     C_R   0.597553 0.571350 0.970499 0.322897
C13   C     C_R   0.424262 0.416313 0.147630 -0.145919
C14   C     C_R   0.585552 0.566307 0.849632 -0.139725
C15   C     C_R   0.538396 0.538365 0.155326 0.682859
C16   C     C_R   0.455258 0.473304 0.847527 0.683925
C17   C     C_R   0.535227 0.527018 0.031788 -0.209883
C18   C     C_R   0.467358 0.469080 0.968138 -0.204491
C19   C     C_R   0.339974 0.500034 0.501121 0.811783
C20   C     C_R   0.660052 0.500204 0.498908 0.841785
C21   C     C_3   0.969067 0.412840 0.430297 -0.294299
C22   C     C_3   0.031154 0.588392 0.570532 -0.305238
C23   C     C_3   0.025413 0.498912 0.395019 0.595524
C24   C     C_3   0.974803 0.502319 0.605827 0.595978
C25   C     C_1   0.250383 0.500380 0.503486 -0.157076
C26   C     C_1   0.749702 0.500300 0.496683 -0.126274
C27   C     C_3   0.027538 0.414640 0.540799 -0.293887
C28   C     C_3   0.972671 0.586593 0.460029 -0.289358
C29   C     C_3   0.083144 0.500676 0.503474 0.047632
C30   C     C_3   0.917041 0.500549 0.497365 0.044065
C31   C     C_1   0.174837 0.500581 0.504134 0.010237
C32   C     C_1   0.825294 0.500429 0.496388 0.028508
C33   C     C_R   0.505570 0.813555 0.534695 -0.254400
C34   C     C_R   0.493312 0.185899 0.467040 -0.186380
Cu1   Cu    Cu3+1 0.506200 0.507730 0.615930 1.014558
Cu2   Cu    Cu3+1 0.493800 0.492270 0.384070 1.004086
H1    H     H_    0.942445 0.342147 0.372233 0.161673
H2    H     H_    0.057824 0.659072 0.628567 0.158135
H3    H     H_    0.948936 0.655791 0.425936 0.164946
H4    H     H_    0.051308 0.345462 0.574902 0.164140
H5    H     H_    0.376094 0.979391 0.323166 0.212080
H6    H     H_    0.630010 0.015931 0.671010 0.177464
H7    H     H_    0.633082 0.599774 0.802848 0.175458
H8    H     H_    0.383301 0.371561 0.192996 0.183126
N1    N     N_R   0.515540 0.519350 0.790140 -0.245441
N2    N     N_R   0.484460 0.480650 0.209860 -0.243874
O1    O     O_R   0.504400 0.354460 0.582000 -0.519226
O2    O     O_R   0.495600 0.645540 0.418000 -0.565182
O3    O     O_R   0.493920 0.341410 0.386200 -0.573494
O4    O     O_R   0.506080 0.658590 0.613800 -0.565643
O5    O     O_R   0.384320 0.506520 0.597880 -0.559763
O6    O     O_R   0.615680 0.493480 0.402120 -0.544342
O7    O     O_R   0.373840 0.493460 0.402080 -0.575321
O8    O     O_R   0.626160 0.506540 0.597920 -0.570143
O9    O     O_3   0.058835 0.497102 0.285497 -0.569183
C35   C     C_3   0.992066 0.496121 0.201758 -0.290634
H9    H     H_    0.954309 0.567843 0.219745 0.165698
H10   H     H_    0.950705 0.425121 0.195397 0.162095
H11   H     H_    0.019290 0.494488 0.116192 0.184752
O10   O     O_3   0.941587 0.504112 0.715472 -0.562439
C36   C     C_3   0.008534 0.505316 0.799010 -0.306907
H12   H     H_    0.049753 0.576414 0.805213 0.150942
H13   H     H_    0.046440 0.433727 0.780923 0.158070
H14   H     H_    0.981497 0.506878 0.884697 0.191358
O11   O     O_3   0.388335 0.813854 0.391342 -0.744732
H15   H     H_    0.367904 0.753289 0.424220 0.325947
O12   O     O_3   0.594532 0.197543 0.627530 -0.710036
H16   H     H_    0.588538 0.175085 0.703247 0.327239
O13   O     O_3   0.620651 0.817830 0.679001 -0.561110
C37   C     C_3   0.601308 0.843271 0.796364 -0.289283
H17   H     H_    0.534358 0.822283 0.809019 0.158392
H18   H     H_    0.614793 0.927248 0.831345 0.149887
H19   H     H_    0.642019 0.797502 0.847462 0.176807
O14   O     O_3   0.391329 0.175524 0.304483 -0.562800
C38   C     C_3   0.420771 0.143648 0.192687 -0.286311
H20   H     H_    0.412550 0.057944 0.163158 0.148095
H21   H     H_    0.488098 0.168284 0.188963 0.167948
H22   H     H_    0.382941 0.181731 0.130744 0.180314
O15   O     O_3   0.382154 0.431511 0.787229 -0.505598
C39   C     C_3   0.316040 0.502077 0.814708 -0.223241
H23   H     H_    0.258925 0.472735 0.759616 0.176652
H24   H     H_    0.332308 0.581462 0.797269 0.124757
H25   H     H_    0.298958 0.508286 0.906184 0.161528
O16   O     O_3   0.594372 0.609271 0.222471 -0.514546
C40   C     C_3   0.565523 0.711739 0.221736 -0.203820
H26   H     H_    0.495960 0.717767 0.230143 0.164071
H27   H     H_    0.582580 0.741026 0.142376 0.161574
H28   H     H_    0.596873 0.764858 0.296337 0.179345
O17   O     O_3   0.353564 0.340684 0.964052 -0.690659
H29   H     H_    0.320194 0.307777 0.018146 0.312472
O18   O     O_3   0.671789 0.613154 0.027900 -0.693792
H30   H     H_    0.708173 0.639985 0.972492 0.316062

loop_
_geom_bond_atom_site_label_1
_geom_bond_atom_site_label_2
_ccdc_geom_bond_type
C25   C31   T    
C6    O13   S    
O9    C35   S    
C11   C18   A    
C26   C32   T    
C22   C29   S    
C27   C29   S    
C12   O18   S    
Cu1   Cu2   S    
C24   C27   S    
Cu1   O1    S    
C40   H26   S    
C4    H6    S    
C23   C29   S    
C13   N2    A    
C22   H2    S    
C35   H9    S    
C7    C9    A    
C5    O14   S    
C36   H13   S    
Cu2   O7    S    
C2    O4    A    
C12   C17   A    
Cu2   N2    S    
C37   H17   S    
C9    C10   A    
Cu2   O6    S    
C19   O7    A    
C21   C27   S    
C8    O11   S    
C22   C28   S    
Cu1   O8    S    
C36   H12   S    
Cu1   O4    S    
C39   H25   S    
C1    C34   S    
C14   N1    A    
C40   H27   S    
O14   C38   S    
O12   H16   S    
O16   C40   S    
C20   O8    A    
O18   H30   S    
C1    O1    A    
C28   H3    S    
C2    O2    A    
O10   C36   S    
C36   H14   S    
C38   H20   S    
C11   O17   S    
C27   H4    S    
C24   O10   S    
C5    C34   A    
C37   H19   S    
C17   C18   A    
C16   C18   A    
C23   C28   S    
C38   H21   S    
C2    C33   S    
C39   H24   S    
C12   C14   A    
C21   C23   S    
Cu1   O5    S    
C7    C34   A    
C22   C24   S    
C4    C6    A    
Cu1   N1    S    
C40   H28   S    
C15   C17   A    
C3    H5    S    
C8    C10   A    
C39   H23   S    
C3    C5    A    
C16   N1    A    
C35   H11   S    
C23   O9    S    
C15   O16   S    
C21   C30   S    
C6    C33   A    
C16   O15   S    
C28   C30   S    
C4    C9    A    
C20   O6    A    
C3    C10   A    
C30   C32   S    
C11   C13   A    
C20   C26   S    
C35   H10   S    
Cu2   O2    S    
C8    C33   A    
O13   C37   S    
C19   C25   S    
C38   H22   S    
C24   C30   S    
C7    O12   S    
O15   C39   S    
C19   O5    A    
C21   H1    S    
C29   C31   S    
O11   H15   S    
C37   H18   S    
C15   N2    A    
O17   H29   S    
C1    O3    A    
C13   H8    S    
Cu2   O3    S    
C14   H7    S    
