data_mof_unit_64880.cif
_audit_creation_date              2013-03-05T16:44:43-0500
_audit_creation_method            fapswitch 2.2
_symmetry_space_group_name_H-M    P1
_symmetry_Int_Tables_number       1
_space_group_crystal_system       triclinic
_cell_length_a                    17.796004
_cell_length_b                    19.21209
_cell_length_c                    19.22004
_cell_angle_alpha                 94.610929
_cell_angle_beta                  98.766248
_cell_angle_gamma                 103.444855
_cell_volume                      6270.52614774

loop_
_atom_site_label
_atom_site_type_symbol
_atom_site_description
_atom_site_fract_x
_atom_site_fract_y
_atom_site_fract_z
_atom_type_partial_charge
Zn1   Zn    Zn3+2 0.565550 0.451340 0.451340 0.966825
Zn2   Zn    Zn3+2 0.429430 0.430690 0.543050 1.006491
Zn3   Zn    Zn3+2 0.439490 0.544930 0.432570 0.978900
Zn4   Zn    Zn3+2 0.565540 0.573040 0.573050 0.995642
O1    O     O_3   0.500000 0.500000 0.500000 -0.485535
O2    O     O_R   0.540910 0.554790 0.665460 -0.639587
O3    O     O_R   0.550840 0.462270 0.351610 -0.646902
O4    O     O_R   0.445650 0.335310 0.524600 -0.641743
O5    O     O_R   0.462600 0.647620 0.458330 -0.643673
O6    O     O_R   0.321500 0.427480 0.506110 -0.612396
O7    O     O_R   0.674970 0.575130 0.575140 -0.642407
O8    O     O_R   0.328550 0.507430 0.428780 -0.642195
O9    O     O_R   0.674980 0.489960 0.489960 -0.646116
O10   O     O_R   0.540930 0.349770 0.460420 -0.643771
O11   O     O_R   0.550820 0.667300 0.556650 -0.638796
O12   O     O_R   0.445640 0.455160 0.644460 -0.635182
O13   O     O_R   0.462610 0.527770 0.338470 -0.646591
C1    C     C_R   0.491601 0.506220 0.688117 0.814044
C2    C     C_R   0.508312 0.494414 0.312024 0.791520
C3    C     C_R   0.491606 0.308916 0.490821 0.792405
C4    C     C_R   0.507936 0.691232 0.509451 0.844973
C5    C     C_R   0.288109 0.459374 0.459612 0.803556
C6    C     C_R   0.712520 0.539578 0.540212 0.828127
C7    C     C_R   0.797721 0.550009 0.562618 -0.089688
C8    C     C_R   0.202967 0.441854 0.444319 -0.009070
C9    C     C_R   0.916318 0.597565 0.650454 0.333147
C10   C     C_R   0.837504 0.594154 0.624915 -0.238891
C11   C     C_R   0.837862 0.510640 0.524335 -0.232769
C12   C     C_R   0.916710 0.511167 0.548948 0.057364
C13   C     C_R   0.956745 0.556516 0.612119 -0.034001
C14   C     C_R   0.957098 0.469308 0.511053 0.062807
C15   C     C_R   0.039631 0.480071 0.531661 -0.051096
C16   C     C_R   0.076463 0.519416 0.598955 0.262907
C17   C     C_R   0.035801 0.559254 0.636158 -0.213530
C18   C     C_R   0.917343 0.415763 0.453986 -0.186296
C19   C     C_R   0.958062 0.379836 0.413568 -0.219188
C20   C     C_R   0.039661 0.398597 0.426065 0.163880
C21   C     C_R   0.081506 0.450695 0.483907 0.115520
C22   C     C_R   0.079976 0.366596 0.380495 -0.182181
C23   C     C_R   0.161558 0.387283 0.390481 -0.197751
C24   C     C_R   0.163378 0.474783 0.489029 -0.171799
H1    H     H_    0.066666 0.591030 0.685538 0.236578
H2    H     H_    0.197658 0.519986 0.526575 0.161252
H3    H     H_    0.192366 0.360954 0.356285 0.137377
H4    H     H_    0.925390 0.339096 0.370416 0.149567
H5    H     H_    0.806565 0.624234 0.655471 0.199894
H6    H     H_    0.806250 0.480644 0.474607 0.163874
H7    H     H_    0.854275 0.398600 0.440500 0.147367
H8    H     H_    0.048370 0.325597 0.337219 0.145940
C25   C     C_R   0.513573 0.495469 0.236475 -0.002244
C26   C     C_R   0.457470 0.518807 0.190942 -0.218243
C27   C     C_R   0.463225 0.522196 0.119836 -0.158758
C28   C     C_R   0.525660 0.502386 0.092850 0.320080
C29   C     C_R   0.582129 0.480034 0.138528 -0.184868
C30   C     C_R   0.575868 0.475850 0.209699 -0.209589
C31   C     C_R   0.548261 0.542073 0.887333 -0.150467
C32   C     C_R   0.552200 0.543806 0.815475 -0.209597
C33   C     C_R   0.478482 0.505428 0.908192 0.309455
N1    N     N_2   0.534043 0.505414 0.020775 -0.193904
N2    N     N_2   0.471128 0.502001 0.980272 -0.193263
C34   C     C_R   0.487081 0.508274 0.763809 -0.017150
H9    H     H_    0.606462 0.571571 0.800308 0.173496
H10   H     H_    0.599319 0.569484 0.926381 0.160880
H11   H     H_    0.630760 0.465222 0.118692 0.150543
H12   H     H_    0.620348 0.458358 0.243932 0.167031
C35   C     C_R   0.417328 0.472953 0.784850 -0.165935
C36   C     C_R   0.412931 0.472485 0.856511 -0.167441
H13   H     H_    0.366030 0.445901 0.745845 0.193550
H14   H     H_    0.419324 0.541027 0.086285 0.160804
H15   H     H_    0.358668 0.445092 0.871931 0.161525
H16   H     H_    0.409059 0.534600 0.210271 0.172174
C37   C     C_R   0.508060 0.768037 0.514791 -0.095335
C38   C     C_R   0.471377 0.795390 0.457032 -0.211144
C39   C     C_R   0.468694 0.867354 0.462103 -0.260884
C40   C     C_R   0.502727 0.913627 0.525416 0.207288
C41   C     C_R   0.538405 0.886048 0.583421 0.644135
C42   C     C_R   0.541792 0.813911 0.577998 -0.289805
C43   C     C_R   0.462552 0.118032 0.535995 -0.140653
C44   C     C_R   0.460845 0.190490 0.538650 -0.214416
C45   C     C_R   0.491348 0.085867 0.480531 0.316147
N3    N     N_2   0.500925 0.987364 0.532610 -0.131065
N4    N     N_2   0.493986 0.012553 0.474815 -0.196828
C46   C     C_R   0.488748 0.231719 0.486660 -0.000642
H17   H     H_    0.439284 0.214607 0.581972 0.171264
H18   H     H_    0.441108 0.087223 0.576811 0.167214
H19   H     H_    0.569700 0.793756 0.623505 0.201228
C47   C     C_R   0.516166 0.199108 0.430958 -0.205603
C48   C     C_R   0.516377 0.126530 0.427559 -0.184128
H20   H     H_    0.537214 0.229698 0.389821 0.165651
H21   H     H_    0.439282 0.886514 0.416715 0.184650
H22   H     H_    0.537535 0.102093 0.384147 0.150311
H23   H     H_    0.444494 0.761104 0.407802 0.186264
F1    F     F_    0.570750 0.929468 0.645078 -0.637678
N5    N     N_R   0.953171 0.641123 0.716501 0.198811
O14   O     O_R   0.942907 0.705606 0.728430 -0.359613
O15   O     O_R   0.982305 0.611606 0.769412 -0.367639
N6    N     N_R   0.150285 0.511488 0.635345 0.195001
O16   O     O_R   0.199240 0.565807 0.675860 -0.385699
O17   O     O_R   0.163547 0.447715 0.636488 -0.373713

loop_
_geom_bond_atom_site_label_1
_geom_bond_atom_site_label_2
_geom_bond_distance
_ccdc_geom_bond_type
C9    N5    1.436003 S    
C46   C47   1.403677 A    
C47   C48   1.391553 A    
C11   H6    1.076516 S    
C38   C39   1.390589 A    
C35   H13   1.083350 S    
C18   C19   1.386694 A    
C17   H1    1.080367 S    
C7    C10   1.397617 A    
N6    O16   1.301629 A    
C28   N1    1.420067 S    
C32   H9    1.083177 S    
C28   C29   1.399080 A    
O6    C5    1.273870 A    
C9    C10   1.398095 A    
O4    C3    1.284226 A    
Zn1   O1    1.951546 S    
C19   C20   1.390212 A    
C20   C21   1.419308 A    
C8    C23   1.395301 A    
C44   H17   1.083166 S    
C43   C45   1.410230 A    
C33   N2    1.416560 S    
O8    C5    1.276912 A    
C31   C32   1.396172 A    
O9    C6    1.283376 A    
Zn3   O8    1.925738 S    
C37   C42   1.404467 A    
C30   H12   1.083020 S    
C34   C35   1.403687 A    
C5    C8    1.451428 S    
C6    C7    1.473214 S    
C27   H14   1.082812 S    
C15   C21   1.427260 A    
Zn2   O12   1.929110 S    
C35   C36   1.392032 A    
N1    N2    1.247344 D    
C24   H2    1.079720 S    
C26   H16   1.083176 S    
C18   H7    1.077531 S    
N6    O17   1.301738 A    
C25   C26   1.403091 A    
O2    C1    1.277269 A    
C39   C40   1.410310 A    
C13   C17   1.399682 A    
C4    C37   1.470363 S    
C26   C27   1.391541 A    
O10   C3    1.279706 A    
C41   C42   1.397419 A    
C21   C24   1.407868 A    
Zn4   O2    1.932777 S    
C8    C24   1.392634 A    
C22   C23   1.391803 A    
C43   C44   1.396457 A    
C40   N3    1.420558 S    
N3    N4    1.247300 D    
C40   C41   1.400878 A    
C12   C13   1.420724 A    
Zn3   O5    1.926176 S    
C41   F1    1.356987 S    
C20   C22   1.403542 A    
C14   C15   1.423072 A    
C48   H22   1.083227 S    
O11   C4    1.279057 A    
C12   C14   1.424079 A    
C16   C17   1.395701 A    
C31   H10   1.082725 S    
C19   H4    1.084248 S    
Zn4   O7    1.932664 S    
N5    O15   1.301281 A    
C43   H18   1.082711 S    
C45   N4    1.416209 S    
C22   H8    1.083816 S    
C42   H19   1.083074 S    
C9    C13   1.419297 A    
O3    C2    1.284673 A    
C47   H20   1.083258 S    
C14   C18   1.416133 A    
Zn2   O1    1.936798 S    
Zn1   O9    1.921683 S    
Zn2   O6    1.928543 S    
C27   C28   1.410297 A    
C10   H5    1.083512 S    
C29   C30   1.396436 A    
C11   C12   1.408231 A    
Zn1   O3    1.929801 S    
Zn2   O4    1.933812 S    
C7    C11   1.394909 A    
C38   H23   1.083219 S    
C37   C38   1.402545 A    
Zn3   O1    1.941918 S    
C1    C34   1.467094 S    
C32   C34   1.402652 A    
C25   C30   1.404609 A    
C36   H15   1.083197 S    
C15   C16   1.424039 A    
C39   H21   1.082823 S    
Zn4   O11   1.932528 S    
C45   C48   1.396266 A    
C44   C46   1.402874 A    
C2    C25   1.470694 S    
O5    C4    1.276714 A    
C29   H11   1.083038 S    
Zn4   O1    1.929704 S    
O7    C6    1.280229 A    
O13   C2    1.283168 A    
C31   C33   1.410316 A    
Zn3   O13   1.934700 S    
C16   N6    1.438177 S    
N5    O14   1.301158 A    
C33   C36   1.396601 A    
C23   H3    1.083411 S    
O12   C1    1.273086 A    
C3    C46   1.467397 S    
Zn1   O10   1.926332 S    
