data_mof_unit_6240.cif
_audit_creation_date              2012-12-10T16:52:08-0500
_audit_creation_method            fapswitch 2.2
_symmetry_space_group_name_H-M    P1
_symmetry_Int_Tables_number       1
_space_group_crystal_system       triclinic
_cell_length_a                    7.753684
_cell_length_b                    8.625186
_cell_length_c                    14.843986
_cell_angle_alpha                 91.385092
_cell_angle_beta                  85.982308
_cell_angle_gamma                 93.568175
_cell_volume                      988.165703107

loop_
_atom_site_label
_atom_site_type_symbol
_atom_type_description
_atom_site_fract_x
_atom_site_fract_y
_atom_site_fract_z
_atom_type_partial_charge
C1    C     C_R   0.545101 0.794104 0.498047 0.860369
C2    C     C_R   0.546686 0.638674 0.813314 -0.267796
C3    C     C_R   0.493046 0.500898 0.232210 -0.027321
C4    C     C_R   0.507982 0.499527 0.767639 -0.021206
C5    C     C_R   0.531317 0.640310 0.187822 -0.266386
C6    C     C_R   0.470192 0.360140 0.812012 -0.276620
C7    C     C_R   0.535851 0.641158 0.094441 0.129711
C8    C     C_R   0.468920 0.358887 0.905238 0.127003
C9    C     C_R   0.500739 0.500187 0.046730 0.054263
C10   C     C_R   0.505171 0.499694 0.952905 0.056800
C11   C     C_R   0.461604 0.359620 0.092946 0.132404
C12   C     C_R   0.454763 0.205840 0.501577 0.876780
C13   C     C_R   0.544994 0.640121 0.906635 0.132056
C14   C     C_R   0.576039 0.779643 0.048122 -0.219395
C15   C     C_R   0.430809 0.220108 0.951445 -0.220520
C16   C     C_3   0.740263 0.018005 0.621517 0.091739
C17   C     C_3   0.907064 0.108063 0.645984 -0.258881
C18   C     C_3   0.922457 0.114881 0.747973 -0.986648
C19   C     C_3   0.254125 0.960524 0.381406 0.128493
C20   C     C_3   0.131107 0.075074 0.347978 -0.346591
C21   C     C_3   0.082082 0.033452 0.252216 -0.961375
C22   C     C_R   0.580802 0.779104 0.954309 -0.220241
C23   C     C_R   0.427748 0.220392 0.045159 -0.214210
C24   C     C_2   0.568052 0.956468 0.505846 0.140297
C25   C     C_2   0.431532 0.043593 0.493718 0.148897
C26   C     C_R   0.502494 0.500381 0.672755 0.867116
C27   C     C_R   0.497671 0.499924 0.327205 0.861735
C28   C     C_R   0.458350 0.361215 0.186308 -0.269492
H1    H     H_    0.431452 0.254534 0.223352 0.128149
H2    H     H_    0.986077 0.617469 0.567918 0.204008
H3    H     H_    0.742243 0.896494 0.645008 0.127428
H4    H     H_    0.628342 0.074726 0.656979 0.108025
H5    H     H_    0.020348 0.051029 0.613034 0.255561
H6    H     H_    0.908518 0.228441 0.620732 0.243179
H7    H     H_    0.812697 0.175320 0.782099 0.272751
H8    H     H_    0.045458 0.179886 0.763342 0.275226
H9    H     H_    0.922771 0.995720 0.774738 0.263111
H10   H     H_    0.198891 0.840278 0.369731 0.194561
H11   H     H_    0.380696 0.971392 0.340365 0.070580
H12   H     H_    0.575271 0.745131 0.776178 0.112684
H13   H     H_    0.011149 0.074418 0.393642 0.272344
H14   H     H_    0.194910 0.193898 0.348826 0.211404
H15   H     H_    0.200064 0.027861 0.205723 0.256127
H16   H     H_    0.000397 0.123245 0.228281 0.274058
H17   H     H_    0.007592 0.919230 0.251001 0.272327
H18   H     H_    0.558925 0.746761 0.226091 0.120857
H19   H     H_    0.440892 0.253931 0.773850 0.120569
H20   H     H_    0.604032 0.887802 0.084415 0.146835
H21   H     H_    0.403123 0.111889 0.915145 0.147319
H22   H     H_    0.612112 0.886917 0.919078 0.148322
H23   H     H_    0.398722 0.112196 0.080142 0.142455
H24   H     H_    0.013876 0.382860 0.431978 0.192029
N1    N     N_2   0.950330 0.457950 0.475660 -0.176469
N2    N     N_2   0.049670 0.542050 0.524340 -0.170973
O1    O     O_R   0.389250 0.738570 0.505970 -0.593681
O2    O     O_3   0.267076 0.981962 0.475741 -0.637128
O3    O     O_R   0.610750 0.261430 0.494030 -0.587977
O4    O     O_R   0.678390 0.711620 0.490370 -0.602859
O5    O     O_R   0.321610 0.288380 0.509630 -0.618369
O6    O     O_R   0.355420 0.513510 0.639950 -0.612948
O7    O     O_R   0.644580 0.486490 0.360050 -0.610386
O8    O     O_R   0.644560 0.486560 0.624350 -0.634614
O9    O     O_R   0.355440 0.513440 0.375650 -0.641196
O10   O     O_3   0.730489 0.018817 0.526792 -0.626863
Zn1   Zn    Zn3+2 0.306940 0.517990 0.510420 0.947010
Zn2   Zn    Zn3+2 0.693060 0.482010 0.489580 0.955559

loop_
_geom_bond_atom_site_label_1
_geom_bond_atom_site_label_2
_ccdc_geom_bond_type
C19   O2    S    
O6    Zn1   S    
C20   H14   S    
O9    Zn1   S    
N1    N2    D    
C19   H10   S    
C2    H12   S    
C16   H4    S    
C21   H16   S    
C9    C11   A    
C9    C10   A    
O3    Zn2   S    
C2    C4    A    
C19   C20   S    
C25   O2    S    
C12   C25   S    
C22   H22   S    
C14   C22   A    
C15   C23   A    
C17   C18   S    
C1    O1    A    
C5    C7    A    
C24   O10   S    
N2    Zn1   S    
C1    O4    A    
C24   C25   D    
C16   H3    S    
N1    Zn2   S    
H2    N2    S    
C28   H1    S    
C5    H18   S    
C17   H5    S    
C11   C28   A    
C6    C8    A    
C12   O3    A    
C19   H11   S    
C11   C23   A    
C3    C28   A    
O1    Zn1   S    
C18   H9    S    
C13   C22   A    
C20   H13   S    
C8    C15   A    
C21   H17   S    
C3    C27   S    
C15   H21   S    
C26   O8    A    
C8    C10   A    
C4    C26   S    
C26   O6    A    
C17   H6    S    
O8    Zn2   S    
C6    H19   S    
H24   N1    S    
C1    C24   S    
C4    C6    A    
C18   H7    S    
C7    C9    A    
C2    C13   A    
C27   O9    A    
C14   H20   S    
C16   O10   S    
C20   C21   S    
C21   H15   S    
C12   O5    A    
C18   H8    S    
O7    Zn2   S    
O4    Zn2   S    
C7    C14   A    
O5    Zn1   S    
C23   H23   S    
C16   C17   S    
C3    C5    A    
C10   C13   A    
C27   O7    A    
