data_mof_unit_60159.cif
_audit_creation_date              2012-12-10T19:39:55-0500
_audit_creation_method            fapswitch 2.2
_symmetry_space_group_name_H-M    P1
_symmetry_Int_Tables_number       1
_space_group_crystal_system       triclinic
_cell_length_a                    15.872231
_cell_length_b                    17.075626
_cell_length_c                    19.32382
_cell_angle_alpha                 91.6385
_cell_angle_beta                  91.255465
_cell_angle_gamma                 95.363032
_cell_volume                      5210.6529507

loop_
_atom_site_label
_atom_site_type_symbol
_atom_type_description
_atom_site_fract_x
_atom_site_fract_y
_atom_site_fract_z
_atom_type_partial_charge
C1    C     C_R   0.490083 0.348848 0.499565 0.803425
C2    C     C_R   0.509917 0.651152 0.500435 0.803424
C3    C     C_R   0.484901 0.263072 0.498369 -0.011551
C4    C     C_R   0.515099 0.736928 0.501630 -0.011543
C5    C     C_R   0.548067 0.224589 0.531150 -0.252662
C6    C     C_R   0.451935 0.775410 0.468846 -0.252655
C7    C     C_R   0.544220 0.142886 0.528299 -0.168197
C8    C     C_R   0.455782 0.857113 0.471696 -0.168206
C9    C     C_R   0.476332 0.098493 0.492634 0.381843
C10   C     C_R   0.523669 0.901507 0.507363 0.381844
C11   C     C_R   0.412588 0.137319 0.461290 -0.197872
C12   C     C_R   0.587411 0.862681 0.538710 -0.197870
C13   C     C_R   0.416567 0.219094 0.464146 -0.218097
C14   C     C_R   0.583431 0.780906 0.535855 -0.218096
C15   C     C_R   0.755521 0.461689 0.465708 0.148228
C16   C     C_R   0.244480 0.538316 0.534288 0.148228
C17   C     C_R   0.844284 0.465062 0.468774 -0.309683
C18   C     C_R   0.155717 0.534941 0.531223 -0.309681
C19   C     C_R   0.891383 0.517205 0.515249 0.372844
C20   C     C_R   0.108616 0.482791 0.484754 0.372844
C21   C     C_R   0.846307 0.565503 0.558215 -0.312829
C22   C     C_R   0.153692 0.434488 0.441792 -0.312828
C23   C     C_R   0.500750 0.500009 0.367552 0.790569
C24   C     C_R   0.499250 0.499991 0.632448 0.790570
C25   C     C_R   0.756984 0.560889 0.554056 0.037006
C26   C     C_R   0.243016 0.439105 0.445949 0.037006
C27   C     C_R   0.433157 0.461767 0.253192 -0.185821
C28   C     C_R   0.566844 0.538232 0.746808 -0.185821
C29   C     C_R   0.433103 0.461424 0.181150 -0.159786
C30   C     C_R   0.566898 0.538576 0.818850 -0.159787
C31   C     C_R   0.501471 0.499435 0.146464 0.055091
C32   C     C_R   0.498528 0.500569 0.853537 0.055090
C33   C     C_R   0.569944 0.537733 0.185362 -0.168671
C34   C     C_R   0.430053 0.462274 0.814638 -0.168663
C35   C     C_R   0.569890 0.538000 0.257516 -0.203652
C36   C     C_R   0.430107 0.462006 0.742484 -0.203657
C37   C     C_R   0.501722 0.499658 0.291796 -0.014003
C38   C     C_R   0.498277 0.500344 0.708204 -0.014011
C39   C     C_R   0.499164 0.500387 0.929806 0.410037
C40   C     C_R   0.500834 0.499618 0.070195 0.410037
Cu1   Cu    Cu3+1 0.415220 0.496180 0.496660 0.946072
Cu2   Cu    Cu3+1 0.584780 0.503820 0.503340 0.946072
H1    H     H_    0.379826 0.431819 0.278757 0.138406
H2    H     H_    0.620176 0.568178 0.721243 0.138406
H3    H     H_    0.124032 0.573426 0.565501 0.162553
H4    H     H_    0.875969 0.426582 0.434492 0.162553
H5    H     H_    0.880199 0.606726 0.594930 0.145325
H6    H     H_    0.119800 0.393261 0.405081 0.145325
H7    H     H_    0.723652 0.598617 0.587613 0.125875
H8    H     H_    0.276347 0.401372 0.412395 0.125874
H9    H     H_    0.379364 0.431450 0.152761 0.151862
H10   H     H_    0.620638 0.568549 0.847239 0.151862
H11   H     H_    0.623370 0.567928 0.160193 0.153845
H12   H     H_    0.376626 0.432082 0.839808 0.153845
H13   H     H_    0.622434 0.569162 0.286494 0.141118
H14   H     H_    0.377562 0.430845 0.713506 0.141118
H15   H     H_    0.399948 0.742321 0.440663 0.151398
H16   H     H_    0.600056 0.257678 0.559332 0.151399
H17   H     H_    0.405748 0.885087 0.446044 0.153954
H18   H     H_    0.594256 0.114912 0.553948 0.153955
H19   H     H_    0.359981 0.103953 0.434066 0.139223
H20   H     H_    0.640017 0.896047 0.565936 0.139223
H21   H     H_    0.367028 0.247979 0.438644 0.147977
H22   H     H_    0.632969 0.752021 0.561359 0.147977
N1    N     N_R   0.566377 0.536460 0.036198 -0.244377
N2    N     N_R   0.433621 0.463544 0.963803 -0.244376
N3    N     N_R   0.565556 0.536813 0.967380 -0.244449
N4    N     N_R   0.434443 0.463192 0.032620 -0.244449
N5    N     N_2   0.469415 0.015213 0.487014 -0.269514
N6    N     N_2   0.530586 0.984786 0.512983 -0.269514
N7    N     N_R   0.712130 0.509560 0.508360 -0.180223
N8    N     N_R   0.287870 0.490440 0.491640 -0.180222
N9    N     N_2   0.982483 0.522671 0.520172 -0.240500
N10   N     N_2   0.017516 0.477324 0.479832 -0.240501
O1    O     O_R   0.420530 0.382500 0.496880 -0.590702
O2    O     O_R   0.579470 0.617500 0.503120 -0.590702
O3    O     O_R   0.563720 0.388950 0.502520 -0.577877
O4    O     O_R   0.436280 0.611050 0.497480 -0.577872
O5    O     O_R   0.428380 0.496760 0.397320 -0.588955
O6    O     O_R   0.571620 0.503240 0.602680 -0.588956
O7    O     O_R   0.571570 0.503220 0.402960 -0.576930
O8    O     O_R   0.428430 0.496780 0.597040 -0.576935
C41   C     C_R   0.287030 0.595395 0.585295 0.161803
C42   C     C_R   0.303534 0.674599 0.568219 -0.131422
C43   C     C_R   0.337381 0.730427 0.618122 -0.142015
C44   C     C_R   0.351578 0.708104 0.686080 -0.124772
C45   C     C_R   0.329990 0.630402 0.704528 -0.142299
C46   C     C_R   0.296171 0.574580 0.654607 -0.132842
H23   H     H_    0.290186 0.692850 0.516258 0.121812
H24   H     H_    0.351827 0.791091 0.604267 0.146551
H25   H     H_    0.377652 0.751320 0.724721 0.134263
H26   H     H_    0.338713 0.613593 0.757602 0.147322
H27   H     H_    0.277125 0.515126 0.669748 0.121299
C47   C     C_R   0.712971 0.404617 0.414694 0.161803
C48   C     C_R   0.703841 0.425441 0.345384 -0.132859
C49   C     C_R   0.670023 0.369626 0.295456 -0.142284
C50   C     C_R   0.648423 0.291924 0.313897 -0.124773
C51   C     C_R   0.662608 0.269593 0.381854 -0.142031
C52   C     C_R   0.696456 0.325413 0.431762 -0.131405
H28   H     H_    0.722896 0.484896 0.330249 0.121295
H29   H     H_    0.661310 0.386442 0.242383 0.147322
H30   H     H_    0.622348 0.248715 0.275251 0.134263
H31   H     H_    0.648152 0.208928 0.395703 0.146552
H32   H     H_    0.709796 0.307155 0.483723 0.121816

loop_
_geom_bond_atom_site_label_1
_geom_bond_atom_site_label_2
_ccdc_geom_bond_type
C22   H6    S    
C45   C46   A    
Cu2   O6    S    
C27   C29   A    
C1    O3    A    
Cu1   Cu2   S    
N2    N4    A    
C48   C49   A    
C16   N8    A    
C15   C47   S    
C50   C51   A    
C43   C44   A    
C5    H16   S    
C36   H14   S    
C35   C37   A    
C9    N5    S    
C44   H25   S    
C26   H8    S    
C8    H17   S    
C51   H31   S    
C26   N8    A    
C31   C40   S    
C7    C9    A    
N9    N10   D    
C32   C39   S    
C24   O8    A    
C30   H10   S    
C33   C35   A    
C24   O6    A    
N1    N3    A    
C24   C38   S    
C31   C33   A    
C25   N7    A    
C18   C20   A    
C50   H30   S    
C3    C13   A    
C52   H32   S    
C45   H26   S    
C6    H15   S    
C47   C48   A    
Cu2   O7    S    
C33   H11   S    
C35   H13   S    
C1    O1    A    
C19   N9    S    
C17   H4    S    
C4    C6    A    
Cu1   O4    S    
C5    C7    A    
C48   H28   S    
C6    C8    A    
C3    C5    A    
C23   C37   S    
C28   H2    S    
C16   C41   S    
C1    C3    S    
C32   C34   A    
C2    C4    S    
C2    O4    A    
Cu1   O1    S    
C12   H20   S    
C41   C42   A    
C13   H21   S    
C28   C38   A    
C14   H22   S    
C49   C50   A    
C20   N10   S    
C42   C43   A    
C9    C11   A    
C10   C12   A    
Cu1   N8    S    
C10   N6    S    
C8    C10   A    
C12   C14   A    
C34   H12   S    
C40   N1    A    
C40   N4    A    
C39   N2    A    
C42   H23   S    
C18   H3    S    
C7    H18   S    
C2    O2    A    
C29   H9    S    
C15   C17   A    
C21   C25   A    
C46   H27   S    
C23   O7    A    
C19   C21   A    
C44   C45   A    
C39   N3    A    
C20   C22   A    
C11   H19   S    
Cu1   O5    S    
C43   H24   S    
C15   N7    A    
Cu2   O2    S    
C36   C38   A    
C29   C31   A    
C30   C32   A    
C11   C13   A    
C47   C52   A    
C27   C37   A    
Cu1   O8    S    
C28   C30   A    
Cu2   N7    S    
C17   C19   A    
C41   C46   A    
C34   C36   A    
C4    C14   A    
N5    N6    D    
C25   H7    S    
C27   H1    S    
Cu2   O3    S    
C16   C18   A    
C51   C52   A    
C22   C26   A    
C23   O5    A    
C49   H29   S    
C21   H5    S    
