data_mof_unit_21325.cif
_audit_creation_date              2012-12-10T19:35:01-0500
_audit_creation_method            fapswitch 2.2
_symmetry_space_group_name_H-M    P1
_symmetry_Int_Tables_number       1
_space_group_crystal_system       triclinic
_cell_length_a                    10.818942
_cell_length_b                    15.736436
_cell_length_c                    17.121303
_cell_angle_alpha                 96.455165
_cell_angle_beta                  90.262601
_cell_angle_gamma                 91.910203
_cell_volume                      2894.7373525

loop_
_atom_site_label
_atom_site_type_symbol
_atom_type_description
_atom_site_fract_x
_atom_site_fract_y
_atom_site_fract_z
_atom_type_partial_charge
C1    C     C_R   0.499199 0.489503 0.348454 0.808689
C2    C     C_R   0.500915 0.510495 0.651546 0.809860
C3    C     C_R   0.499161 0.483554 0.262409 -0.053721
C4    C     C_R   0.501536 0.516437 0.737591 -0.053982
C5    C     C_R   0.506478 0.558150 0.225007 -0.245722
C6    C     C_R   0.499676 0.441793 0.775008 -0.245161
C7    C     C_R   0.506658 0.553080 0.143617 -0.194437
C8    C     C_R   0.500329 0.446859 0.856401 -0.194287
C9    C     C_R   0.499396 0.472755 0.097585 0.355072
C10   C     C_R   0.502761 0.527227 0.902419 0.355027
C11   C     C_R   0.492560 0.397368 0.134983 0.076983
C12   C     C_R   0.505145 0.602650 0.865007 0.076908
C13   C     C_R   0.492166 0.403441 0.217201 -0.251746
C14   C     C_R   0.504243 0.596587 0.782787 -0.251950
C15   C     C_R   0.437499 0.751843 0.463424 0.012495
C16   C     C_R   0.558007 0.248272 0.539340 0.015245
C17   C     C_R   0.440950 0.841324 0.465583 -0.296432
C18   C     C_R   0.552753 0.158866 0.538070 -0.304845
C19   C     C_R   0.525397 0.891201 0.516154 0.388397
C20   C     C_R   0.471445 0.108931 0.485364 0.388720
C21   C     C_R   0.604574 0.848389 0.562451 -0.329677
C22   C     C_R   0.396624 0.151662 0.436366 -0.328022
C23   C     C_R   0.262239 0.501369 0.509836 0.813771
C24   C     C_R   0.737485 0.498656 0.489669 0.813438
C25   C     C_R   0.598078 0.758776 0.558435 0.048633
C26   C     C_R   0.404588 0.241205 0.439700 0.048579
C27   C     C_R   0.105649 0.349880 0.540309 -0.174981
C28   C     C_R   0.893363 0.649450 0.455834 -0.168213
C29   C     C_R   0.047078 0.270113 0.520970 -0.159836
C30   C     C_R   0.954421 0.728877 0.471091 -0.180625
C31   C     C_R   0.937267 0.262925 0.476585 0.134390
C32   C     C_R   0.065127 0.736655 0.513819 0.133155
C33   C     C_R   0.881541 0.338209 0.460087 -0.192334
C34   C     C_R   0.119262 0.662509 0.534413 -0.175487
C35   C     C_R   0.935563 0.420038 0.485192 0.060595
C36   C     C_R   0.064082 0.580285 0.512153 0.053745
C37   C     C_R   0.056956 0.424683 0.515224 0.077777
C38   C     C_R   0.942275 0.575399 0.482457 0.078217
C39   C     C_R   0.873303 0.496909 0.479249 -0.219808
C40   C     C_R   0.126083 0.503310 0.519234 -0.219001
Cu1   Cu    Cu3+1 0.493970 0.415220 0.496180 0.927240
Cu2   Cu    Cu3+1 0.506030 0.584780 0.503820 0.926557
H1    H     H_    0.612502 0.129579 0.577490 0.157259
H2    H     H_    0.377691 0.870697 0.428367 0.152627
H3    H     H_    0.671135 0.884386 0.601655 0.139182
H4    H     H_    0.332432 0.115654 0.395520 0.138167
H5    H     H_    0.659502 0.726512 0.594514 0.135895
H6    H     H_    0.346246 0.273425 0.401711 0.135457
H7    H     H_    0.188973 0.352326 0.575763 0.161615
H8    H     H_    0.809008 0.646367 0.421323 0.161242
H9    H     H_    0.090700 0.214684 0.539205 0.130952
H10   H     H_    0.913974 0.784609 0.450839 0.135111
H11   H     H_    0.798299 0.331762 0.424362 0.154850
H12   H     H_    0.202319 0.670239 0.570155 0.154683
H13   H     H_    0.497802 0.379167 0.741409 0.163492
H14   H     H_    0.512121 0.620742 0.258616 0.164371
H15   H     H_    0.498850 0.387558 0.882985 0.160363
H16   H     H_    0.512446 0.612344 0.117045 0.160366
H17   H     H_    0.487014 0.345445 0.245852 0.155159
H18   H     H_    0.506228 0.654615 0.754128 0.155976
H19   H     H_    0.621029 0.286129 0.579551 0.140078
H20   H     H_    0.372151 0.714017 0.424821 0.141087
N1    N     N_2   0.498484 0.465222 0.014171 -0.275223
N2    N     N_2   0.502626 0.534770 0.985830 -0.275280
N3    N     N_R   0.515100 0.712130 0.509560 -0.168827
N4    N     N_R   0.484900 0.287870 0.490440 -0.168522
N5    N     N_2   0.534338 0.982965 0.522555 -0.258918
N6    N     N_2   0.461782 0.017185 0.479273 -0.251034
O1    O     O_R   0.494360 0.420530 0.382500 -0.592958
O2    O     O_R   0.505640 0.579470 0.617500 -0.591667
O3    O     O_R   0.504550 0.563720 0.388950 -0.591201
O4    O     O_R   0.495450 0.436280 0.611050 -0.591963
O5    O     O_R   0.314560 0.428400 0.496770 -0.583251
O6    O     O_R   0.685440 0.571600 0.503230 -0.584676
O7    O     O_R   0.324750 0.571590 0.503220 -0.589352
O8    O     O_R   0.675250 0.428410 0.496780 -0.586481
C41   C     C_3   0.128112 0.823374 0.533987 -0.424152
C42   C     C_3   0.053504 0.880191 0.593818 -0.344251
C43   C     C_3   0.117107 0.968219 0.612633 -0.840505
H21   H     H_    0.209725 0.962097 0.639317 0.261053
H22   H     H_    0.127961 0.000181 0.558315 0.254551
H23   H     H_    0.060330 0.008666 0.654902 0.234354
H24   H     H_    0.959309 0.888495 0.570300 0.215043
H25   H     H_    0.044130 0.849400 0.648942 0.219563
H26   H     H_    0.221814 0.816538 0.558973 0.205080
H27   H     H_    0.139853 0.854564 0.479218 0.195414
C44   C     C_3   0.875255 0.177807 0.445560 -0.415832
C45   C     C_3   0.938094 0.097968 0.468589 -0.365967
C46   C     C_3   0.867807 0.016268 0.434755 -0.833170
H28   H     H_    0.772726 0.014655 0.458811 0.272360
H29   H     H_    0.862607 0.012545 0.369648 0.251911
H30   H     H_    0.916587 0.959682 0.450776 0.235817
H31   H     H_    0.034101 0.096076 0.445710 0.216699
H32   H     H_    0.940877 0.099796 0.533677 0.221252
H33   H     H_    0.778817 0.177093 0.467118 0.208431
H34   H     H_    0.871233 0.174050 0.380346 0.196454
C47   C     C_3   0.485176 0.310051 0.087884 -0.409533
C48   C     C_3   0.612176 0.284876 0.055200 -0.330491
C49   C     C_3   0.604892 0.197312 0.006820 -0.861274
H35   H     H_    0.571980 0.147537 0.043701 0.253660
H36   H     H_    0.540845 0.198234 0.956048 0.252807
H37   H     H_    0.698046 0.180669 0.984205 0.241942
H38   H     H_    0.647872 0.332818 0.017237 0.231682
H39   H     H_    0.678588 0.282875 0.104655 0.217138
H40   H     H_    0.451300 0.260946 0.125353 0.189339
H41   H     H_    0.416929 0.310135 0.039138 0.206167
C50   C     C_3   0.508198 0.690006 0.912084 -0.409410
C51   C     C_3   0.638184 0.713866 0.945393 -0.329951
C52   C     C_3   0.641464 0.801674 0.993394 -0.860020
H42   H     H_    0.614618 0.851624 0.956106 0.253194
H43   H     H_    0.577237 0.801680 0.043888 0.252807
H44   H     H_    0.736681 0.817383 0.016391 0.241918
H45   H     H_    0.667898 0.665729 0.983775 0.231474
H46   H     H_    0.704992 0.714879 0.896282 0.217032
H47   H     H_    0.480209 0.739431 0.874440 0.189802
H48   H     H_    0.439950 0.690633 0.960517 0.205796

loop_
_geom_bond_atom_site_label_1
_geom_bond_atom_site_label_2
_ccdc_geom_bond_type
C44   C45   S    
C27   C29   A    
Cu1   Cu2   S    
C5    H14   S    
C2    C4    S    
C6    H13   S    
C47   C48   S    
C41   C42   S    
Cu2   O7    S    
C1    O3    A    
C35   C37   A    
C37   C40   A    
C52   H43   S    
C38   C39   A    
C48   H38   S    
C15   N3    A    
Cu2   O2    S    
C24   C39   S    
C51   C52   S    
C15   C17   A    
C51   H46   S    
C21   C25   A    
C17   C19   A    
C32   C41   S    
C28   H8    S    
C42   H24   S    
C44   H33   S    
C23   C40   S    
Cu2   N3    S    
C50   C51   S    
C31   C33   A    
C19   N5    S    
C46   H29   S    
C25   H5    S    
C7    H16   S    
C18   C20   A    
C3    C13   A    
C26   H6    S    
C47   H40   S    
C41   H26   S    
C23   O5    A    
C2    O4    A    
C21   H3    S    
C33   H11   S    
C45   H32   S    
Cu2   O6    S    
C31   C44   S    
N5    N6    D    
C26   N4    A    
C36   C40   A    
C25   N3    A    
C4    C6    A    
C52   H44   S    
C23   O7    A    
C5    C7    A    
C42   C43   S    
C24   O8    A    
C6    C8    A    
C1    O1    A    
C43   H21   S    
C1    C3    S    
C32   C34   A    
C51   H45   S    
C35   C39   A    
C8    H15   S    
C43   H23   S    
C49   H35   S    
C28   C38   A    
C44   H34   S    
C46   H30   S    
C9    C11   A    
C50   H47   S    
C10   C12   A    
Cu1   O4    S    
C47   H41   S    
C16   C18   A    
C22   H4    S    
C20   C22   A    
C41   H27   S    
C34   H12   S    
C16   N4    A    
C16   H19   S    
Cu1   O1    S    
C29   H9    S    
C7    C9    A    
C30   H10   S    
C45   H31   S    
C49   H36   S    
C9    N1    S    
C20   N6    S    
C10   N2    S    
C12   C14   A    
C3    C5    A    
C12   C50   S    
Cu1   N4    S    
C13   H17   S    
C14   H18   S    
C43   H22   S    
C11   C47   S    
C36   C38   A    
C17   H2    S    
C29   C31   A    
C2    O2    A    
C52   H42   S    
Cu1   O8    S    
C30   C32   A    
C11   C13   A    
C24   O6    A    
C27   C37   A    
C48   H39   S    
C28   C30   A    
Cu2   O3    S    
C33   C35   A    
C15   H20   S    
C34   C36   A    
C4    C14   A    
C50   H48   S    
Cu1   O5    S    
N1    N2    D    
C42   H25   S    
C49   H37   S    
C45   C46   S    
C8    C10   A    
C48   C49   S    
C22   C26   A    
C46   H28   S    
C18   H1    S    
C27   H7    S    
C19   C21   A    
