data_mof_unit_67996.cif
_audit_creation_date              2012-12-11T14:13:17-0500
_audit_creation_method            fapswitch 2.2
_symmetry_space_group_name_H-M    P1
_symmetry_Int_Tables_number       1
_space_group_crystal_system       triclinic
_cell_length_a                    11.808036
_cell_length_b                    18.748548
_cell_length_c                    10.16148
_cell_angle_alpha                 89.81982
_cell_angle_beta                  111.75604
_cell_angle_gamma                 90.089829
_cell_volume                      2089.33698181

loop_
_atom_site_label
_atom_site_type_symbol
_atom_type_description
_atom_site_fract_x
_atom_site_fract_y
_atom_site_fract_z
_atom_type_partial_charge
C1    C     C_R   0.076914 0.645216 0.141636 0.531986
C2    C     C_R   0.923215 0.354716 0.858701 0.528406
C3    C     C_R   0.921737 0.144804 0.858384 0.533391
C4    C     C_R   0.075143 0.854047 0.140536 0.534212
C5    C     C_R   0.394826 0.460763 0.505509 -0.022903
C6    C     C_R   0.589990 0.532368 0.470492 -0.030749
C7    C     C_R   0.611266 0.957364 0.513402 -0.017046
C8    C     C_R   0.412181 0.029890 0.536154 -0.032912
C9    C     C_2   0.373786 0.936294 0.988832 0.250874
C10   C     C_2   0.621016 0.066964 0.044877 0.241998
C11   C     C_2   0.621940 0.435316 0.018540 0.265960
C12   C     C_2   0.376391 0.565412 0.980515 0.270195
C13   C     C_2   0.487946 0.964129 0.027489 0.253965
C14   C     C_2   0.507299 0.041460 0.017011 0.276170
C15   C     C_2   0.507557 0.461812 0.988321 0.256110
C16   C     C_2   0.488856 0.539480 0.999536 0.267044
C17   C     C_2   0.015442 0.923238 0.117032 -0.112854
C18   C     C_2   0.969962 0.072646 0.878039 -0.108211
C19   C     C_2   0.975741 0.425931 0.879556 -0.103827
C20   C     C_2   0.025107 0.573777 0.122625 -0.099366
C21   C     C_2   0.995012 0.958381 0.996438 -0.107538
C22   C     C_2   0.972182 0.034722 0.989968 -0.134808
C23   C     C_2   0.991922 0.461149 0.998765 -0.076468
C24   C     C_2   0.008020 0.538215 0.003752 -0.093121
C25   C     C_R   0.469812 0.645898 0.439133 0.571221
C26   C     C_R   0.527584 0.352251 0.557192 0.575742
C27   C     C_R   0.531254 0.144965 0.563188 0.566786
C28   C     C_R   0.472792 0.851556 0.444001 0.577852
C29   C     C_R   0.355960 0.638447 0.005221 0.624805
C30   C     C_R   0.643779 0.361848 0.994772 0.625816
C31   C     C_R   0.641148 0.137794 0.003668 0.604911
C32   C     C_R   0.354434 0.861513 0.007888 0.622923
C33   C     C_R   0.488685 0.421666 0.482257 0.000331
C34   C     C_R   0.498843 0.572393 0.499632 -0.009561
C35   C     C_R   0.512449 0.919013 0.524798 -0.001097
C36   C     C_R   0.505829 0.069778 0.509528 -0.011411
C37   C     C_R   0.290134 0.426323 0.509487 -0.136175
C38   C     C_R   0.695944 0.564428 0.464534 -0.142279
C39   C     C_R   0.722448 0.923418 0.535957 -0.137910
C40   C     C_R   0.305486 0.061673 0.541152 -0.146401
C41   C     C_R   0.209942 0.461754 0.557462 -0.099002
C42   C     C_R   0.775102 0.526464 0.418169 -0.095784
C43   C     C_R   0.821538 0.962646 0.533247 -0.107533
C44   C     C_R   0.223656 0.022747 0.583418 -0.093722
C45   C     C_R   0.226670 0.533010 0.594653 0.334079
C46   C     C_R   0.756576 0.454700 0.385466 0.333453
C47   C     C_R   0.810369 0.033084 0.486670 0.352803
C48   C     C_R   0.241311 0.950714 0.614738 0.334233
C49   C     C_R   0.328747 0.568932 0.589604 0.239409
C50   C     C_R   0.650782 0.422047 0.385973 0.233075
C51   C     C_R   0.693033 0.065489 0.448337 0.264055
C52   C     C_R   0.348330 0.918711 0.616927 0.227360
C53   C     C_R   0.408062 0.535018 0.532049 -0.038255
C54   C     C_R   0.574497 0.458402 0.443396 -0.038107
C55   C     C_R   0.601719 0.031550 0.487473 -0.021320
C56   C     C_R   0.425989 0.955649 0.561822 -0.043072
Cr1   Cr    Cr6+3 0.187610 0.750000 0.979860 1.023999
Cr2   Cr    Cr6+3 0.812390 0.250000 0.020140 1.013883
Cr3   Cr    Cr6+3 0.245810 0.750000 0.341640 1.046099
Cr4   Cr    Cr6+3 0.754190 0.250000 0.658360 1.050670
Cr5   Cr    Cr6+3 0.485760 0.750000 0.219910 1.044220
Cr6   Cr    Cr6+3 0.514240 0.250000 0.780090 1.038076
H1    H     H_    0.137690 0.432862 0.573483 0.130003
H2    H     H_    0.849895 0.553185 0.403748 0.144742
H3    H     H_    0.909366 0.938169 0.567004 0.155210
H4    H     H_    0.146720 0.048403 0.595325 0.205462
H5    H     H_    0.270957 0.371142 0.478025 0.137540
H6    H     H_    0.719819 0.618748 0.498184 0.145001
H7    H     H_    0.736007 0.867899 0.567882 0.126870
H8    H     H_    0.282178 0.116170 0.508299 0.146645
H9    H     H_    0.956525 0.060196 0.077509 0.197855
H10   H     H_    0.005538 0.932278 0.906218 0.192197
H11   H     H_    0.012769 0.565549 0.911629 0.185120
H12   H     H_    0.985986 0.433814 0.090512 0.190350
H13   H     H_    0.987376 0.047188 0.791456 0.181980
H14   H     H_    0.005640 0.950092 0.206979 0.141385
H15   H     H_    0.018657 0.546334 0.214100 0.137898
H16   H     H_    0.983026 0.453648 0.788779 0.132980
O1    O     O_R   0.267710 0.668200 0.902110 -0.429711
O2    O     O_R   0.732290 0.331800 0.097890 -0.417898
O3    O     O_R   0.732290 0.168200 0.097890 -0.480454
O4    O     O_R   0.267710 0.831800 0.902110 -0.413696
O5    O     O_R   0.099480 0.674460 0.038850 -0.522980
O6    O     O_R   0.900520 0.325540 0.961150 -0.514597
O7    O     O_R   0.900520 0.174460 0.961150 -0.524027
O8    O     O_R   0.099480 0.825540 0.038850 -0.514746
O9    O     O_R   0.116720 0.669210 0.267660 -0.535206
O10   O     O_R   0.883280 0.330790 0.732340 -0.550075
O11   O     O_R   0.883280 0.169210 0.732340 -0.513979
O12   O     O_R   0.116720 0.830790 0.267660 -0.556487
O13   O     O_R   0.366710 0.675440 0.427590 -0.433412
O14   O     O_R   0.633290 0.324560 0.572410 -0.447942
O15   O     O_R   0.633290 0.175440 0.572410 -0.435900
O16   O     O_R   0.366710 0.824560 0.427590 -0.453056
O17   O     O_R   0.534870 0.669390 0.371760 -0.532216
O18   O     O_R   0.465130 0.330610 0.628240 -0.523042
O19   O     O_R   0.465130 0.169390 0.628240 -0.532174
O20   O     O_R   0.534870 0.830610 0.371760 -0.511793
O21   O     O_R   0.453080 0.674480 0.075160 -0.492705
O22   O     O_R   0.546920 0.325520 0.924840 -0.492421
O23   O     O_R   0.546920 0.174480 0.924840 -0.479919
O24   O     O_R   0.453080 0.825520 0.075160 -0.482264
O25   O     O_3   0.306390 0.750000 0.180470 -0.322090
O26   O     O_3   0.693610 0.250000 0.819530 -0.313943
O27   O     O_3   0.153521 0.562924 0.658354 -0.485681
C57   C     C_3   0.076161 0.614762 0.569852 0.035158
H17   H     H_    0.030358 0.594622 0.460212 0.106653
H18   H     H_    0.126562 0.663802 0.564007 0.193697
C58   C     C_3   0.982525 0.634527 0.633486 -0.381248
H19   H     H_    0.026923 0.663209 0.734966 0.178652
H20   H     H_    0.911092 0.668835 0.558860 0.068447
H21   H     H_    0.940088 0.585675 0.656505 0.148146
O28   O     O_3   0.835444 0.419766 0.336213 -0.489064
C59   C     C_3   0.905477 0.370065 0.437443 0.033154
H22   H     H_    0.848647 0.326295 0.453921 0.200613
H23   H     H_    0.954275 0.396341 0.540919 0.111376
C60   C     C_3   0.996387 0.337177 0.382067 -0.371135
H24   H     H_    0.044210 0.379393 0.346066 0.147796
H25   H     H_    0.063974 0.304813 0.466478 0.070435
H26   H     H_    0.947149 0.303499 0.288950 0.183522
O29   O     O_3   0.920675 0.064819 0.495261 -0.582093
C61   C     C_3   0.912488 0.130758 0.426040 0.044748
H27   H     H_    0.884730 0.174130 0.481876 0.191416
H28   H     H_    0.851832 0.125951 0.316267 0.267848
C62   C     C_3   0.033458 0.149683 0.415088 -0.415585
H29   H     H_    0.066664 0.103739 0.370969 0.159018
H30   H     H_    0.021648 0.193808 0.338987 0.093387
H31   H     H_    0.100175 0.165973 0.520185 0.135161
O30   O     O_3   0.158774 0.914081 0.656836 -0.490771
C63   C     C_3   0.095708 0.863563 0.552758 0.027048
H32   H     H_    0.157288 0.831102 0.517189 0.207499
H33   H     H_    0.028793 0.891007 0.458969 0.127809
C64   C     C_3   0.030072 0.811506 0.614777 -0.353571
H34   H     H_    0.988350 0.838685 0.682467 0.146511
H35   H     H_    0.957850 0.783852 0.527073 0.069244
H36   H     H_    0.096572 0.772156 0.681812 0.184788
Cl1   Cl    Cl    0.364493 0.650651 0.680645 -0.601179
Cl2   Cl    Cl    0.609741 0.338448 0.301116 -0.617764
Cl3   Cl    Cl    0.646448 0.138931 0.330842 -0.649755
Cl4   Cl    Cl    0.387412 0.834024 0.698927 -0.595403
O31   O     O_3   0.406512 0.086472 0.963432 -0.529130
C65   C     C_3   0.390863 0.124571 0.076005 0.050899
H37   H     H_    0.452651 0.171317 0.104181 0.213487
H38   H     H_    0.407021 0.090433 0.171448 0.160516
C66   C     C_3   0.261971 0.154090 0.030087 -0.348926
H39   H     H_    0.259646 0.198277 0.101518 0.083518
H40   H     H_    0.230423 0.174046 0.919342 0.171871
H41   H     H_    0.199152 0.112251 0.038946 0.188488
O32   O     O_3   0.589545 0.921345 0.095255 -0.515421
C67   C     C_3   0.631972 0.889096 0.995928 0.045239
H42   H     H_    0.655206 0.929221 0.928984 0.149034
H43   H     H_    0.564311 0.852453 0.926136 0.199118
C68   C     C_3   0.743227 0.843595 0.075560 -0.325352
H44   H     H_    0.811013 0.874495 0.161909 0.201438
H45   H     H_    0.715418 0.796761 0.123686 0.143984
H46   H     H_    0.786063 0.824670 0.001502 0.082534
O33   O     O_3   0.590878 0.584202 0.048998 -0.529671
C69   C     C_3   0.606726 0.621724 0.935422 0.055524
H47   H     H_    0.547091 0.669024 0.908029 0.222515
H48   H     H_    0.589498 0.587298 0.840625 0.156285
C70   C     C_3   0.735305 0.651964 0.980247 -0.347017
H49   H     H_    0.796605 0.612159 0.962038 0.179389
H50   H     H_    0.735496 0.699236 0.914163 0.083519
H51   H     H_    0.770279 0.667929 0.093492 0.173568
O34   O     O_3   0.405437 0.419647 0.917514 -0.530669
C71   C     C_3   0.369277 0.378022 0.012714 0.057918
H52   H     H_    0.358888 0.410559 0.098899 0.168142
H53   H     H_    0.434034 0.335184 0.063562 0.200909
C72   C     C_3   0.250068 0.340266 0.928526 -0.332116
H54   H     H_    0.267807 0.296461 0.865425 0.130946
H55   H     H_    0.208609 0.317944 0.001514 0.089349
H56   H     H_    0.184672 0.377416 0.853421 0.205875
Cl5   Cl    Cl    0.759049 0.021688 0.141493 -0.693161
Cl6   Cl    Cl    0.237272 0.985444 0.926545 -0.636902
Cl7   Cl    Cl    0.241659 0.516619 0.940193 -0.658607
Cl8   Cl    Cl    0.757180 0.485328 0.069954 -0.645154

loop_
_geom_bond_atom_site_label_1
_geom_bond_atom_site_label_2
_ccdc_geom_bond_type
C1    O9    A    
C69   H48   S    
O34   C71   S    
C64   H34   S    
C5    C37   A    
C12   C29   S    
C3    O7    A    
C72   H54   S    
Cr1   O1    S    
C44   H4    S    
Cr5   O20   S    
C7    C55   A    
C8    C56   A    
C59   H22   S    
Cr4   O10   S    
Cr4   O11   S    
C11   Cl8   S    
C50   C54   A    
C40   H8    S    
C20   H15   S    
C31   O23   A    
C5    C53   A    
Cr5   O25   S    
C38   C42   A    
C49   Cl1   S    
C60   H25   S    
C42   C46   A    
C24   H11   S    
C47   O29   S    
C4    O8    A    
C57   H17   S    
C26   O14   A    
C15   C16   S    
C30   O22   A    
Cr1   O8    S    
C3    C18   S    
C28   O16   A    
C8    C36   A    
C9    C13   D    
C12   Cl7   S    
C69   C70   S    
C66   H40   S    
O28   C59   S    
C11   C15   D    
C10   C31   S    
O33   C69   S    
C12   C16   D    
C28   C35   S    
C67   C68   S    
C5    C33   A    
C62   H31   S    
C23   C24   S    
C6    C38   A    
C18   H13   S    
C2    O10   A    
Cr3   O16   S    
C68   H45   S    
C40   C44   A    
C4    O12   A    
C9    C32   S    
Cr2   O2    S    
C25   C34   S    
Cr6   O23   S    
C30   O2    A    
Cr4   O15   S    
C10   Cl5   S    
C16   O33   S    
C14   O31   S    
C68   H44   S    
C21   C22   S    
C71   H53   S    
C72   H55   S    
C65   C66   S    
Cr5   O21   S    
C6    C54   A    
C70   H51   S    
C70   H50   S    
C45   O27   S    
C66   H39   S    
Cr6   O26   S    
Cr4   O14   S    
C26   O18   A    
Cr1   O25   S    
C25   O13   A    
C65   H37   S    
C29   O21   A    
C21   H10   S    
C20   C24   D    
C11   C30   S    
C10   C14   D    
C60   H26   S    
C19   C23   D    
C47   C51   A    
C51   C55   A    
C2    C19   S    
C17   C21   D    
C6    C34   A    
Cr3   O12   S    
C69   H47   S    
C19   H16   S    
C63   H33   S    
Cr5   O17   S    
Cr2   O6    S    
C17   H14   S    
Cr6   O19   S    
C26   C33   S    
C59   H23   S    
C29   O1    A    
C45   C49   A    
C43   H3    S    
Cr1   O5    S    
C2    O6    A    
C39   H7    S    
Cr4   O26   S    
C9    Cl6   S    
Cr3   O13   S    
C68   H46   S    
O29   C61   S    
C34   C53   A    
C64   H36   S    
Cr6   O22   S    
C4    C17   S    
C38   H6    S    
C25   O17   A    
O31   C65   S    
C71   H52   S    
C72   H56   S    
C67   H43   S    
C48   O30   S    
C58   H21   S    
C63   C64   S    
Cr2   O26   S    
C41   H1    S    
C23   H12   S    
C61   H28   S    
Cr2   O7    S    
C42   H2    S    
C22   H9    S    
C66   H41   S    
C62   H30   S    
O30   C63   S    
C28   O20   A    
C33   C54   A    
C27   O19   A    
C1    C20   S    
C7    C39   A    
C46   O28   S    
C35   C56   A    
C18   C22   D    
C7    C35   A    
C39   C43   A    
C50   Cl2   S    
C32   O24   A    
C27   C36   S    
C1    O5    A    
C32   O4    A    
O27   C57   S    
C46   C50   A    
C60   H24   S    
C31   O3    A    
C3    O11   A    
Cr3   O25   S    
C61   C62   S    
C58   H20   S    
C63   H32   S    
C61   H27   S    
C13   O32   S    
C36   C55   A    
C70   H49   S    
O32   C67   S    
C62   H29   S    
C57   H18   S    
Cr2   O3    S    
C49   C53   A    
C37   H5    S    
C52   Cl4   S    
Cr5   O24   S    
C65   H38   S    
C37   C41   A    
Cr3   O9    S    
C59   C60   S    
C27   O15   A    
C44   C48   A    
C48   C52   A    
C71   C72   S    
C58   H19   S    
C64   H35   S    
C41   C45   A    
Cr1   O4    S    
C15   O34   S    
C8    C40   A    
Cr6   O18   S    
C13   C14   S    
C43   C47   A    
C52   C56   A    
C67   H42   S    
C57   C58   S    
C51   Cl3   S    
