data_mof_unit_46092.cif
_audit_creation_date              2012-12-10T17:24:45-0500
_audit_creation_method            fapswitch 2.2
_symmetry_space_group_name_H-M    P1
_symmetry_Int_Tables_number       1
_space_group_crystal_system       triclinic
_cell_length_a                    18.333178
_cell_length_b                    19.006068
_cell_length_c                    18.340871
_cell_angle_alpha                 109.802572
_cell_angle_beta                  107.890294
_cell_angle_gamma                 108.644082
_cell_volume                      5040.64508117

loop_
_atom_site_label
_atom_site_type_symbol
_atom_type_description
_atom_site_fract_x
_atom_site_fract_y
_atom_site_fract_z
_atom_type_partial_charge
C1    C     C_R   0.620076 0.618836 0.497805 0.834146
C2    C     C_3   0.178526 0.472034 0.254601 -0.029227
C3    C     C_3   0.265305 0.551488 0.325681 -0.071859
C4    C     C_3   0.310632 0.496722 0.311241 -0.013464
C5    C     C_R   0.596913 0.762385 0.497142 0.016454
C6    C     C_R   0.604108 0.841118 0.544648 -0.105737
C7    C     C_R   0.675890 0.913555 0.569191 -0.145537
C8    C     C_R   0.736640 0.906995 0.539790 -0.007773
C9    C     C_R   0.741603 0.828099 0.511736 0.038376
C10   C     C_R   0.672872 0.756520 0.498609 -0.007955
C11   C     C_R   0.812034 0.817495 0.500560 -0.117911
C12   C     C_R   0.377662 0.498309 0.379213 0.859896
C13   C     C_R   0.817304 0.740930 0.484062 0.043823
C14   C     C_R   0.754617 0.675139 0.484134 0.116182
C15   C     C_R   0.681862 0.682637 0.489826 -0.162912
C16   C     C_R   0.885404 0.729080 0.469132 -0.133719
C17   C     C_R   0.895273 0.657399 0.461835 0.039548
C18   C     C_R   0.836746 0.595897 0.468969 -0.261444
C19   C     C_R   0.767883 0.604388 0.480197 -0.161923
C20   C     C_R   0.776092 0.659645 0.771059 -0.004682
C21   C     C_R   0.817082 0.730510 0.855888 -0.041857
C22   C     C_R   0.849912 0.721055 0.930556 -0.158387
C23   C     C_R   0.382580 0.382229 0.505934 0.825197
C24   C     C_R   0.841858 0.641018 0.919778 -0.001114
C25   C     C_R   0.805480 0.572447 0.833920 0.078939
C26   C     C_R   0.757191 0.577847 0.762634 -0.052229
C27   C     C_R   0.816649 0.498878 0.815370 -0.156839
C28   C     C_R   0.762570 0.424519 0.732270 -0.043321
C29   C     C_R   0.689540 0.421984 0.674615 0.114407
C30   C     C_R   0.690993 0.500386 0.686278 -0.156777
C31   C     C_R   0.774778 0.350948 0.705448 0.001521
C32   C     C_R   0.703780 0.272359 0.638053 -0.071456
C33   C     C_R   0.625384 0.267567 0.591446 -0.205683
C34   C     C_R   0.622451 0.500711 0.620891 0.830707
C35   C     C_R   0.619014 0.341500 0.606686 -0.145593
C36   C     C_R   0.400765 0.375219 0.675892 -0.004294
C37   C     C_R   0.395577 0.380038 0.752195 -0.208441
C38   C     C_R   0.319291 0.328292 0.747842 -0.019044
C39   C     C_R   0.248970 0.267085 0.665969 -0.099173
C40   C     C_R   0.252529 0.259162 0.587727 0.056753
C41   C     C_R   0.325206 0.319609 0.592040 -0.024272
C42   C     C_R   0.182356 0.194469 0.504524 -0.166367
C43   C     C_R   0.167962 0.209397 0.431555 0.023367
C44   C     C_R   0.228674 0.285288 0.445111 0.103134
C45   C     C_3   0.325606 0.517071 0.241739 -0.187658
C46   C     C_R   0.313870 0.324935 0.513459 -0.170565
C47   C     C_R   0.093152 0.156484 0.348248 -0.088443
C48   C     C_R   0.073723 0.185634 0.287723 0.053305
C49   C     C_R   0.124249 0.270538 0.313886 -0.321474
C50   C     C_R   0.199303 0.322319 0.394819 -0.023033
C51   C     C_R   0.011549 0.617463 0.133059 0.837494
C52   C     C_R   0.124528 0.495473 0.119682 0.826214
C53   C     C_R   0.018363 0.382478 0.897421 0.860442
C54   C     C_R   0.883200 0.499719 0.882693 0.880495
C55   C     C_R   0.001728 0.880726 0.380060 0.858818
C56   C     C_3   0.279089 0.571796 0.254667 -0.127242
C57   C     C_R   0.879796 0.884773 0.504287 0.824192
C58   C     C_R   0.001137 0.122762 0.619769 0.831418
C59   C     C_R   0.119505 0.120211 0.499008 0.830840
C60   C     C_R   0.179571 0.782717 0.277292 -0.007733
C61   C     C_R   0.244746 0.868791 0.320778 0.026886
C62   C     C_R   0.220242 0.932219 0.337716 -0.335580
C63   C     C_R   0.135643 0.913140 0.323410 0.021567
C64   C     C_R   0.076084 0.830368 0.299992 0.094224
C65   C     C_R   0.092648 0.763090 0.263514 -0.010820
C66   C     C_R   0.001065 0.813357 0.311939 -0.104348
C67   C     C_3   0.191665 0.492512 0.184189 -0.061597
C68   C     C_R   0.936020 0.729696 0.275948 0.087524
C69   C     C_R   0.949724 0.662031 0.233633 0.084703
C70   C     C_R   0.021384 0.679429 0.215219 -0.241780
C71   C     C_R   0.857834 0.711970 0.282225 -0.180289
C72   C     C_R   0.798474 0.629343 0.254607 -0.230051
C73   C     C_R   0.817119 0.562990 0.223422 0.028522
C74   C     C_R   0.892950 0.579621 0.213950 -0.046531
C75   C     C_R   0.154051 0.417903 0.829013 0.020278
C76   C     C_R   0.178534 0.435961 0.769521 -0.157111
C77   C     C_R   0.131045 0.379160 0.680636 -0.148192
C78   C     C_3   0.238140 0.438258 0.171595 0.058653
C79   C     C_R   0.062616 0.299340 0.649235 -0.070542
C80   C     C_R   0.045174 0.274621 0.709892 0.007633
C81   C     C_R   0.080426 0.338537 0.797023 0.049544
C82   C     C_R   0.000568 0.188724 0.689643 -0.087969
C83   C     C_R   0.981792 0.168930 0.752198 0.087639
C84   C     C_R   0.001497 0.234797 0.832601 0.105975
C85   C     C_R   0.039911 0.319720 0.847612 -0.143439
C86   C     C_R   0.943480 0.083735 0.735315 -0.062714
C87   C     C_R   0.924665 0.063119 0.795738 -0.025845
C88   C     C_R   0.945855 0.127746 0.875443 -0.288331
C89   C     C_3   0.224395 0.416820 0.241665 -0.373973
C90   C     C_R   0.986341 0.213265 0.896358 0.084505
H1    H     H_    0.674683 0.973277 0.596352 0.185621
H2    H     H_    0.557633 0.333150 0.564475 0.153950
O1    O     O_R   0.592010 0.539900 0.448660 -0.652024
O2    O     O_R   0.054870 0.643310 0.094700 -0.590259
O3    O     O_R   0.044440 0.448270 0.096110 -0.661134
O4    O     O_R   0.147870 0.551680 0.096080 -0.592014
O5    O     O_R   0.952810 0.356650 0.912880 -0.600120
O6    O     O_R   0.056240 0.460060 0.912840 -0.660898
O7    O     O_R   0.859800 0.448280 0.911500 -0.555994
O8    O     O_R   0.963240 0.551690 0.911470 -0.632913
O9    O     O_R   0.052860 0.908430 0.461230 -0.607051
O10   O     O_R   0.948620 0.908400 0.356980 -0.580691
O11   O     O_R   0.960510 0.908410 0.552140 -0.593274
O12   O     O_R   0.591210 0.643320 0.551330 -0.582296
O13   O     O_R   0.856270 0.908390 0.447890 -0.673615
O14   O     O_R   0.051380 0.091620 0.643040 -0.606379
O15   O     O_R   0.947140 0.091600 0.538800 -0.619255
O16   O     O_R   0.143730 0.091640 0.552130 -0.626722
O17   O     O_R   0.039490 0.091610 0.447890 -0.593731
O18   O     O_R   0.408080 0.448290 0.356360 -0.633522
O19   O     O_R   0.407280 0.551710 0.459030 -0.591931
O20   O     O_R   0.408790 0.356680 0.448670 -0.631246
O21   O     O_R   0.407990 0.460100 0.551340 -0.568571
O22   O     O_R   0.592720 0.448290 0.540970 -0.651292
O23   O     O_R   0.591920 0.551710 0.643640 -0.573565
O24   O     O_R   0.951440 0.539900 0.094740 -0.603966
Zn1   Zn    Zn3+2 0.500540 0.430950 0.431450 0.943652
Zn2   Zn    Zn3+2 0.499460 0.569050 0.568550 1.106366
Zn3   Zn    Zn3+2 0.934770 0.430930 0.003810 1.034314
Zn4   Zn    Zn3+2 0.072900 0.569020 0.003770 1.048983
Zn5   Zn    Zn3+2 0.069600 0.000030 0.569620 1.030908
Zn6   Zn    Zn3+2 0.930400 0.000000 0.430410 1.014139
H3    H     H_    0.307147 0.635758 0.261483 0.231487
C91   C     C_2   0.773738 0.976840 0.521964 0.362534
H4    H     H_    0.764707 0.963006 0.456654 0.122647
O25   O     O_2   0.802237 0.050598 0.575816 -0.579660
H5    H     H_    0.930976 0.774019 0.460950 0.189040
C92   C     C_2   0.966880 0.646182 0.447496 0.412613
H6    H     H_    0.971404 0.588719 0.439555 0.093893
O26   O     O_2   0.021667 0.700688 0.444531 -0.557273
H7    H     H_    0.727281 0.554522 0.487019 0.169958
H8    H     H_    0.570965 0.206785 0.539327 0.150294
C93   C     C_2   0.771637 0.671415 0.693551 0.498032
H9    H     H_    0.751053 0.617536 0.632318 -0.011553
O27   O     O_2   0.796313 0.741022 0.697740 -0.502851
C94   C     C_2   0.822451 0.813703 0.867830 0.483491
H10   H     H_    0.880572 0.872397 0.919108 0.032764
O28   O     O_2   0.760192 0.817244 0.823106 -0.519367
C95   C     C_2   0.890512 0.795023 0.019378 0.383845
H11   H     H_    0.861508 0.836476 0.032158 0.114148
O29   O     O_2   0.958891 0.812669 0.077588 -0.529640
C96   C     C_2   0.851089 0.624608 0.995039 0.431926
H12   H     H_    0.901110 0.672368 0.060819 0.110590
O30   O     O_2   0.798663 0.558510 0.984630 -0.538962
H13   H     H_    0.387068 0.535370 0.236794 0.137528
C97   C     C_2   0.862002 0.356215 0.733728 0.384812
H14   H     H_    0.919901 0.416906 0.767235 0.072940
O31   O     O_2   0.869946 0.291944 0.715028 -0.576664
H15   H     H_    0.709893 0.214839 0.618482 0.192221
H16   H     H_    0.101138 0.297482 0.274272 0.116983
C98   C     C_2   0.487563 0.423701 0.687268 0.494827
H17   H     H_    0.502949 0.399960 0.635397 -0.016066
O32   O     O_2   0.543361 0.488312 0.755692 -0.543121
H18   H     H_    0.452035 0.423723 0.815910 0.182678
C99   C     C_2   0.314896 0.337503 0.829611 0.417754
H19   H     H_    0.370366 0.386189 0.892654 0.078379
O33   O     O_2   0.249587 0.291143 0.827784 -0.558129
H20   H     H_    0.189765 0.228669 0.664128 0.185121
H21   H     H_    0.047607 0.093761 0.329151 0.228347
C100  C     C_2   0.995911 0.131020 0.200762 0.422964
H22   H     H_    0.980121 0.156665 0.156968 0.047536
O34   O     O_2   0.948896 0.056870 0.176654 -0.539578
C101  C     C_2   0.233588 0.374115 0.093115 0.365330
H23   H     H_    0.267234 0.337574 0.101730 0.094226
O35   O     O_2   0.193971 0.362995 0.020137 -0.629781
C102  C     C_2   0.227985 0.414492 0.435475 0.466990
H24   H     H_    0.218366 0.444046 0.395271 0.066497
O36   O     O_2   0.255002 0.456914 0.514046 -0.524219
C103  C     C_2   0.757488 0.477037 0.202458 0.397231
H25   H     H_    0.700012 0.466237 0.211823 0.065856
O37   O     O_2   0.771627 0.417356 0.174647 -0.559337
C104  C     C_2   0.203559 0.715032 0.250313 0.530211
H26   H     H_    0.177267 0.660275 0.258849 0.007215
O38   O     O_2   0.249379 0.718424 0.214007 -0.532816
C105  C     C_2   0.338964 0.896402 0.349496 0.477405
H27   H     H_    0.380361 0.956744 0.357206 0.040758
O39   O     O_2   0.372430 0.855222 0.369734 -0.534691
H28   H     H_    0.267194 0.997019 0.361241 0.131028
C106  C     C_2   0.108091 0.976530 0.317918 0.410900
H29   H     H_    0.155497 0.043220 0.355332 0.010547
O40   O     O_2   0.034124 0.954060 0.265904 -0.509850
H30   H     H_    0.842234 0.761676 0.309762 0.160702
H31   H     H_    0.739895 0.617993 0.261735 0.141944
H32   H     H_    0.909361 0.528717 0.196164 0.194159
H33   H     H_    0.933465 0.111125 0.923022 0.140164
H34   H     H_    0.205063 0.353122 0.236400 0.145994
C107  C     C_2   0.212485 0.478580 0.924071 0.482100
H35   H     H_    0.199864 0.465559 0.972958 0.131446
O41   O     O_2   0.276109 0.544718 0.949249 -0.575516
H36   H     H_    0.233506 0.495567 0.791452 0.199143
H37   H     H_    0.147277 0.398384 0.636017 0.213315
C108  C     C_2   0.002204 0.250658 0.554164 0.438774
H38   H     H_    0.933793 0.210519 0.530834 0.114599
O42   O     O_2   0.027237 0.257538 0.501222 -0.557031
H39   H     H_    0.926923 0.031967 0.674306 0.167034
C109  C     C_2   0.885421 0.974150 0.778003 0.461431
H40   H     H_    0.867957 0.959576 0.824472 0.096135
O43   O     O_2   0.873075 0.916332 0.712215 -0.526658
C110  C     C_2   0.020127 0.278630 0.987850 0.101500
H41   H     H_    0.012426 0.262139 0.037166 -0.039537
O44   O     O_2   0.011549 0.260245 0.043474 0.006247
C111  C     C_2   0.095768 0.445695 0.261630 0.388557
H42   H     H_    0.038883 0.385953 0.210626 0.083523
O45   O     O_2   0.092002 0.490943 0.324490 -0.557091
H43   H     H_    0.276693 0.597464 0.390007 0.207480
H44   H     H_    0.843955 0.540592 0.465438 0.148042
C112  C     C_2   0.508852 0.691087 0.434153 0.461940
H45   H     H_    0.500602 0.633448 0.385282 0.000691
O46   O     O_2   0.444673 0.697497 0.434033 -0.579800
H46   H     H_    0.549727 0.846813 0.552568 0.196185

loop_
_geom_bond_atom_site_label_1
_geom_bond_atom_site_label_2
_ccdc_geom_bond_type
C8    C9    A    
C66   C68   A    
C87   C88   A    
C99   O33   D    
C95   O29   D    
C103  H25   S    
C57   O13   A    
C101  H23   S    
C2    C111  S    
O16   Zn5   S    
C43   C44   A    
C92   H6    S    
C12   O18   A    
C27   C54   S    
C7    C8    A    
C105  O39   D    
C47   H21   S    
C23   O20   A    
C48   C100  S    
C55   O10   A    
C37   C38   A    
C111  O45   D    
C49   H16   S    
O19   Zn2   S    
C45   H13   S    
C5    C6    A    
C22   C24   A    
C36   C37   A    
C101  O35   D    
C87   C109  S    
C18   C19   A    
C10   C15   A    
C58   C82   S    
O20   Zn1   S    
C80   C81   A    
O17   Zn6   S    
C5    C112  S    
C65   C70   A    
C63   C106  S    
C64   C65   A    
C52   O3    A    
C58   O15   A    
C89   H34   S    
C49   C50   A    
C59   O17   A    
C31   C97   S    
O2    Zn4   S    
C84   C85   A    
C32   H15   S    
C31   C32   A    
C45   C56   S    
C104  O38   D    
C16   C17   A    
C88   H33   S    
C61   C105  S    
C50   C102  S    
C41   C46   A    
C45   C78   S    
O8    Zn4   S    
C51   C70   S    
C20   C93   S    
C4    C12   S    
C9    C10   A    
C21   C94   S    
O12   Zn2   S    
C72   C73   A    
C35   H2    S    
C40   C42   A    
C78   C101  S    
C23   C46   S    
C13   C14   A    
C102  O36   D    
C103  O37   D    
C71   H30   S    
C54   O8    A    
C36   C41   A    
C69   C70   A    
C67   C78   S    
O1    Zn1   S    
C38   C99   S    
C14   C19   A    
O18   Zn1   S    
C16   H5    S    
C44   C46   A    
C97   O31   D    
C4    C45   S    
C77   C79   A    
C78   C89   S    
C19   H7    S    
C57   O11   A    
C75   C107  S    
C111  H42   S    
C30   C34   S    
C3    H43   S    
C112  H45   S    
C60   C104  S    
C56   H3    S    
C24   C25   A    
C109  O43   D    
C2    C67   S    
C24   C96   S    
C39   C40   A    
O21   Zn2   S    
C86   C87   A    
C68   C69   A    
C90   C110  S    
O3    Zn3   S    
C34   O23   A    
C22   C95   S    
O9    Zn5   S    
C63   C64   A    
C60   C61   A    
C58   O14   A    
C77   H37   S    
O5    Zn3   S    
C2    C89   S    
C75   C76   A    
C29   C30   A    
C86   H39   S    
C23   O21   A    
C3    C56   S    
C47   C48   A    
C98   H17   S    
O23   Zn2   S    
C7    H1    S    
C62   C63   A    
C17   C18   A    
C69   C74   A    
C36   C98   S    
C76   C77   A    
C9    C11   A    
C1    O12   A    
C52   C67   S    
C11   C57   S    
C1    C15   S    
C33   H8    S    
C94   O28   D    
C40   C41   A    
C100  O34   D    
C60   C65   A    
C26   C30   A    
C79   C108  S    
C39   H20   S    
C93   H9    S    
C53   O6    A    
C96   O30   D    
C54   O7    A    
C83   C84   A    
C34   O22   A    
C42   C43   A    
C73   C103  S    
C3    C4    S    
O11   Zn5   S    
C73   C74   A    
C27   C28   A    
C55   C66   S    
C104  H26   S    
C91   O25   D    
C4    C89   S    
C84   C90   A    
C44   C50   A    
C29   C35   A    
C28   C29   A    
C14   C15   A    
C37   H18   S    
O4    Zn4   S    
C28   C31   A    
C8    C91   S    
C51   O24   A    
C72   H31   S    
C88   C90   A    
C109  H40   S    
C92   O26   D    
C42   C59   S    
C62   H28   S    
C53   C85   S    
C95   H11   S    
C17   C92   S    
O6    Zn4   S    
C6    C7    A    
C6    H46   S    
C75   C81   A    
C106  H29   S    
C25   C27   A    
C56   C67   S    
C55   O9    A    
C59   O16   A    
O24   Zn3   S    
C18   H44   S    
C53   O5    A    
C32   C33   A    
C2    C3    S    
C25   C26   A    
C5    C10   A    
C105  H27   S    
O10   Zn6   S    
C108  H38   S    
C11   C13   A    
C38   C39   A    
C102  H24   S    
C20   C26   A    
C68   C71   A    
C48   C49   A    
O14   Zn5   S    
C33   C35   A    
C80   C82   A    
O13   Zn6   S    
C52   O4    A    
C97   H14   S    
C98   O32   D    
C61   C62   A    
C100  H22   S    
C110  O44   D    
C107  O41   D    
O22   Zn1   S    
C76   H36   S    
C51   O2    A    
O7    Zn3   S    
C79   C80   A    
C110  H41   S    
C83   C86   A    
C74   H32   S    
C20   C21   A    
C1    O1    A    
C82   C83   A    
C13   C16   A    
C99   H19   S    
C112  O46   D    
C93   O27   D    
C96   H12   S    
C94   H10   S    
C107  H35   S    
O15   Zn6   S    
C71   C72   A    
C21   C22   A    
C43   C47   A    
C12   O19   A    
C81   C85   A    
C64   C66   A    
C91   H4    S    
C106  O40   D    
C108  O42   D    
