data_mof_unit_50500.cif
_audit_creation_date              2012-12-10T18:12:33-0500
_audit_creation_method            fapswitch 2.2
_symmetry_space_group_name_H-M    P1
_symmetry_Int_Tables_number       1
_space_group_crystal_system       triclinic
_cell_length_a                    12.648562
_cell_length_b                    13.104741
_cell_length_c                    15.710643
_cell_angle_alpha                 90.898895
_cell_angle_beta                  102.36026
_cell_angle_gamma                 83.303891
_cell_volume                      2526.30651331

loop_
_atom_site_label
_atom_site_type_symbol
_atom_type_description
_atom_site_fract_x
_atom_site_fract_y
_atom_site_fract_z
_atom_type_partial_charge
C1    C     C_R   0.440372 0.690030 0.480500 0.872680
C2    C     C_3   0.502912 0.497272 0.917747 0.207245
C3    C     C_3   0.492082 0.400181 0.024298 -0.158147
C4    C     C_3   0.502116 0.494572 0.082874 0.217246
C5    C     C_3   0.586568 0.430671 0.985325 -0.166479
C6    C     C_3   0.596699 0.524984 0.045787 -0.155886
C7    C     C_1   0.502971 0.498505 0.826747 -0.091204
C8    C     C_1   0.500465 0.494719 0.173671 -0.070751
C9    C     C_R   0.726190 0.057982 0.479889 -0.211957
C10   C     C_R   0.593640 0.199115 0.501086 -0.052797
C11   C     C_R   0.293650 0.832819 0.432720 -0.246638
C12   C     C_R   0.500783 0.500179 0.661864 0.923164
C13   C     C_R   0.258772 0.936786 0.412936 0.075723
C14   C     C_R   0.337618 0.005359 0.422116 -0.253254
C15   C     C_R   0.449989 0.968696 0.439331 0.068888
C16   C     C_R   0.480503 0.862496 0.437323 0.084783
C17   C     C_R   0.533500 0.033529 0.458204 0.083874
C18   C     C_R   0.642701 0.994414 0.457655 0.176022
C19   C     C_R   0.666246 0.892241 0.435472 -0.292237
C20   C     C_R   0.585580 0.827025 0.424152 -0.212805
C21   C     C_R   0.511927 0.134400 0.483496 -0.267835
C22   C     C_R   0.701660 0.160358 0.501320 -0.222847
C23   C     C_R   0.560009 0.308430 0.508696 0.855603
C24   C     C_R   0.404737 0.796051 0.449331 -0.140056
C25   C     C_R   0.084374 0.355656 0.369133 -0.310862
C26   C     C_R   0.806952 0.625950 0.607365 0.130091
C27   C     C_R   0.909746 0.659128 0.621510 -0.291125
C28   C     C_R   0.985237 0.615948 0.575889 -0.216061
C29   C     C_R   0.959978 0.536608 0.516344 0.024108
C30   C     C_R   0.852123 0.508929 0.499406 0.190535
C31   C     C_R   0.038396 0.483426 0.474053 -0.023345
C32   C     C_R   0.005293 0.411210 0.407939 0.125998
C33   C     C_R   0.894740 0.393698 0.384438 -0.059529
C34   C     C_R   0.499523 0.498979 0.338141 0.882374
C35   C     C_R   0.823329 0.435365 0.435934 -0.258176
C36   C     C_R   0.149743 0.498384 0.495997 -0.042521
C37   C     C_R   0.192544 0.374098 0.393797 0.007950
C38   C     C_3   0.418508 0.561184 0.015149 -0.167600
C39   C     C_3   0.513046 0.591609 0.976338 -0.177910
C40   C     C_1   0.502490 0.499429 0.751247 -0.176304
C41   C     C_1   0.499198 0.496306 0.248917 -0.175161
C42   C     C_3   0.408428 0.466820 0.954845 -0.164244
H1    H     H_    0.521522 0.669898 0.954724 0.125547
H2    H     H_    0.431165 0.163537 0.491069 0.163991
H3    H     H_    0.234488 0.779310 0.431927 0.159962
H4    H     H_    0.309965 0.086177 0.411612 0.127753
H5    H     H_    0.607052 0.748824 0.405686 0.189734
H6    H     H_    0.253344 0.332613 0.363194 0.128430
H7    H     H_    0.063896 0.296990 0.321184 0.153508
H8    H     H_    0.182000 0.551125 0.545250 0.125780
H9    H     H_    0.349717 0.614517 0.029417 0.133088
H10   H     H_    0.062685 0.646119 0.589294 0.139947
H11   H     H_    0.932505 0.716976 0.669959 0.154530
H12   H     H_    0.744149 0.410957 0.423741 0.215942
H13   H     H_    0.673784 0.548384 0.085146 0.136135
H14   H     H_    0.654909 0.377661 0.970018 0.122133
H15   H     H_    0.483816 0.321912 0.046172 0.127635
H16   H     H_    0.331451 0.443187 0.915509 0.133046
H17   H     H_    0.766319 0.209441 0.515951 0.160348
H18   H     H_    0.747750 0.860848 0.431364 0.147884
H19   H     H_    0.809988 0.028847 0.480587 0.145960
N1    N     N_R   0.222180 0.444680 0.455580 -0.100452
N2    N     N_R   0.776980 0.554790 0.543960 -0.142127
O1    O     O_R   0.366730 0.627160 0.478790 -0.617908
O2    O     O_R   0.544830 0.662520 0.507160 -0.623300
O3    O     O_R   0.410960 0.482330 0.609040 -0.614278
O4    O     O_R   0.589060 0.517690 0.637410 -0.601467
O5    O     O_R   0.455170 0.337480 0.492840 -0.620370
O6    O     O_R   0.633270 0.372840 0.521210 -0.639064
O7    O     O_R   0.410940 0.482310 0.362590 -0.613388
O8    O     O_R   0.589040 0.517670 0.390960 -0.641054
Zn1   Zn    Zn3+2 0.381080 0.476390 0.481050 0.937869
Zn2   Zn    Zn3+2 0.618920 0.523610 0.518950 0.926258
C43   C     C_R   0.141188 0.972316 0.379801 0.135742
C44   C     C_R   0.060414 0.924139 0.407524 -0.160194
C45   C     C_R   0.950880 0.948252 0.367818 -0.151778
C46   C     C_R   0.919645 0.022903 0.302271 -0.094683
C47   C     C_R   0.998244 0.074244 0.276242 -0.130271
C48   C     C_R   0.108513 0.048817 0.314247 -0.173128
H20   H     H_    0.081530 0.866617 0.458901 0.118411
H21   H     H_    0.890457 0.907677 0.387130 0.119811
H22   H     H_    0.834618 0.039843 0.271230 0.132783
H23   H     H_    0.974051 0.131986 0.225125 0.145300
H24   H     H_    0.168060 0.086402 0.289932 0.118537
C49   C     C_R   0.848233 0.341107 0.302312 0.142195
C50   C     C_R   0.773084 0.269734 0.301358 -0.153456
C51   C     C_R   0.721394 0.228841 0.222802 -0.154802
C52   C     C_R   0.745573 0.257106 0.144471 -0.114883
C53   C     C_R   0.819731 0.328082 0.144350 -0.157973
C54   C     C_R   0.869655 0.370987 0.222539 -0.169776
H25   H     H_    0.753775 0.246183 0.361169 0.130130
H26   H     H_    0.663165 0.174516 0.222810 0.128570
H27   H     H_    0.706258 0.224543 0.083830 0.119182
H28   H     H_    0.837429 0.351054 0.083500 0.123768
H29   H     H_    0.923792 0.428727 0.220635 0.133743
C55   C     C_R   0.738219 0.664346 0.668422 0.173561
C56   C     C_R   0.674035 0.759772 0.654159 -0.131111
C57   C     C_R   0.617182 0.800320 0.716468 -0.156263
C58   C     C_R   0.628010 0.748054 0.795259 -0.122457
C59   C     C_R   0.696612 0.655765 0.812120 -0.144912
C60   C     C_R   0.752203 0.614320 0.749256 -0.130172
H30   H     H_    0.669281 0.803382 0.595626 0.152424
H31   H     H_    0.566294 0.873150 0.704269 0.136602
H32   H     H_    0.584687 0.779919 0.843764 0.120331
H33   H     H_    0.706708 0.616312 0.873858 0.132776
H34   H     H_    0.806007 0.543267 0.763382 0.119363

loop_
_geom_bond_atom_site_label_1
_geom_bond_atom_site_label_2
_ccdc_geom_bond_type
C51   C52   A    
C3    C42   S    
C11   C13   A    
C23   O6    A    
C5    H14   S    
C19   C20   A    
C6    H13   S    
C4    C8    S    
C42   H16   S    
C56   C57   A    
C54   H29   S    
C14   H4    S    
C49   C50   A    
C10   C22   A    
C26   C27   A    
C30   C35   A    
C9    H19   S    
C5    C6    S    
C28   C29   A    
C38   C42   S    
C50   H25   S    
C31   C36   A    
C48   H24   S    
C9    C22   A    
C15   C16   A    
C11   C24   A    
O2    Zn2   S    
C18   C19   A    
C53   H28   S    
C33   C49   S    
C44   C45   A    
C2    C7    S    
C25   C37   A    
C47   H23   S    
O3    Zn1   S    
C31   C32   A    
C1    O2    A    
C7    C40   T    
O6    Zn2   S    
O4    Zn2   S    
C13   C14   A    
C44   H20   S    
C34   O7    A    
C56   H30   S    
C16   C20   A    
C52   C53   A    
C25   C32   A    
C58   H32   S    
C16   C24   A    
C55   C60   A    
C35   H12   S    
C34   C41   S    
C36   N1    A    
C2    C39   S    
C37   N1    A    
C10   C21   A    
C26   C55   S    
C12   O4    A    
C43   C44   A    
C8    C41   T    
C4    C6    S    
C22   H17   S    
O8    Zn2   S    
C50   C51   A    
C39   H1    S    
C38   H9    S    
N2    Zn2   S    
C46   C47   A    
C12   O3    A    
C17   C21   A    
C23   O5    A    
C12   C40   S    
C26   N2    A    
C29   C30   A    
C21   H2    S    
C58   C59   A    
C14   C15   A    
O5    Zn1   S    
C55   C56   A    
C17   C18   A    
C59   H33   S    
N1    Zn1   S    
C45   C46   A    
C37   H6    S    
C3    H15   S    
C4    C38   S    
C43   C48   A    
C10   C23   S    
C11   H3    S    
C2    C5    S    
C3    C4    S    
C1    O1    A    
C36   H8    S    
C60   H34   S    
C15   C17   A    
C52   H27   S    
C47   C48   A    
C3    C5    S    
C45   H21   S    
C49   C54   A    
C27   H11   S    
C19   H18   S    
C32   C33   A    
C29   C31   A    
C28   H10   S    
C38   C39   S    
C46   H22   S    
C2    C42   S    
C30   N2    A    
C59   C60   A    
C33   C35   A    
O1    Zn1   S    
C25   H7    S    
C20   H5    S    
C9    C18   A    
C13   C43   S    
C1    C24   S    
C57   C58   A    
C27   C28   A    
C6    C39   S    
O7    Zn1   S    
C53   C54   A    
C51   H26   S    
C34   O8    A    
C57   H31   S    
