data_mof_unit_17226.cif
_audit_creation_date              2012-12-11T15:16:43-0500
_audit_creation_method            fapswitch 2.2
_symmetry_space_group_name_H-M    P1
_symmetry_Int_Tables_number       1
_space_group_crystal_system       triclinic
_cell_length_a                    25.121584
_cell_length_b                    7.233238
_cell_length_c                    21.919901
_cell_angle_alpha                 90.001083
_cell_angle_beta                  110.222598
_cell_angle_gamma                 90.000235
_cell_volume                      3737.54431396

loop_
_atom_site_label
_atom_site_type_symbol
_atom_type_description
_atom_site_fract_x
_atom_site_fract_y
_atom_site_fract_z
_atom_type_partial_charge
O1    O     O_R   0.554350 0.505270 0.581390 -0.531391
O2    O     O_R   0.445650 0.005270 0.418610 -0.531392
O3    O     O_R   0.553380 0.177580 0.454800 -0.540717
O4    O     O_R   0.446620 0.677580 0.545200 -0.540716
C1    C     C_R   0.565870 0.344561 0.438301 0.676716
C2    C     C_R   0.434130 0.844562 0.561699 0.676718
O5    O     O_R   0.560970 0.175640 0.583140 -0.532536
O6    O     O_R   0.439030 0.675640 0.416860 -0.532537
O7    O     O_R   0.453290 0.004120 0.547860 -0.538734
O8    O     O_R   0.546710 0.504120 0.452140 -0.538732
C3    C     C_R   0.576076 0.343894 0.607560 0.676617
C4    C     C_R   0.423924 0.843890 0.392440 0.676616
O9    O     O_3   0.464660 0.338800 0.488280 -0.372921
O10   O     O_3   0.535340 0.838800 0.511720 -0.372919
V1    V     V_3+5 0.506560 0.064420 0.502170 1.413800
V2    V     V_3+5 0.493440 0.564420 0.497830 1.413804
C5    C     C_R   0.148446 0.984243 0.288789 -0.154970
C6    C     C_R   0.851560 0.484135 0.711209 -0.154968
H1    H     H_    0.063141 0.011795 0.222402 0.109296
H2    H     H_    0.936864 0.511681 0.777596 0.109292
H3    H     H_    0.234028 0.982986 0.400991 0.130342
H4    H     H_    0.765979 0.482837 0.599006 0.130344
H5    H     H_    0.136149 0.014672 0.330495 0.119424
H6    H     H_    0.863858 0.514516 0.669502 0.119425
C7    C     C_R   0.120813 0.942619 0.172409 -0.035366
C8    C     C_R   0.879188 0.442602 0.827591 -0.035361
C9    C     C_R   0.396622 0.811789 0.273864 -0.158244
C10   C     C_R   0.603374 0.311868 0.726137 -0.158250
C11   C     C_R   0.357214 0.808174 0.211102 -0.113984
C12   C     C_R   0.642781 0.308280 0.788900 -0.113984
C13   C     C_R   0.299924 0.840581 0.199897 -0.156443
C14   C     C_R   0.700072 0.340657 0.800105 -0.156445
C15   C     C_R   0.280290 0.878342 0.251814 0.076541
C16   C     C_R   0.719709 0.378358 0.748186 0.076542
C17   C     C_R   0.321290 0.883857 0.316388 0.068739
C18   C     C_R   0.678710 0.383842 0.683612 0.068741
C19   C     C_R   0.221437 0.910470 0.241799 0.073360
C20   C     C_R   0.778564 0.410458 0.758201 0.073362
C21   C     C_R   0.205416 0.949266 0.296649 0.135222
C22   C     C_R   0.794587 0.449193 0.703349 0.135220
C23   C     C_R   0.246236 0.953825 0.359126 -0.195627
C24   C     C_R   0.753769 0.453722 0.640872 -0.195628
C25   C     C_R   0.303129 0.921272 0.368946 -0.190432
C26   C     C_R   0.696874 0.421198 0.631052 -0.190428
C27   C     C_R   0.177720 0.906409 0.179495 -0.211900
C28   C     C_R   0.822279 0.406428 0.820506 -0.211898
C29   C     C_R   0.106705 0.982187 0.227272 -0.162855
C30   C     C_R   0.893299 0.482104 0.772727 -0.162858
C31   C     C_R   0.379661 0.849830 0.326940 -0.079913
C32   C     C_R   0.620338 0.349847 0.673060 -0.079908
H7    H     H_    0.186403 0.878123 0.135583 0.095415
H8    H     H_    0.813594 0.378190 0.864419 0.095411
H9    H     H_    0.440811 0.784286 0.281155 0.107917
H10   H     H_    0.559184 0.284393 0.718847 0.107914
H11   H     H_    0.272106 0.834893 0.149960 0.111141
H12   H     H_    0.727890 0.334993 0.850042 0.111142
H13   H     H_    0.371184 0.778969 0.170580 0.125852
H14   H     H_    0.628809 0.279121 0.829422 0.125854
H15   H     H_    0.332921 0.926079 0.418319 0.112776
H16   H     H_    0.667083 0.425982 0.581678 0.112767
C33   C     C_R   0.120666 0.765339 0.881525 -0.160949
C34   C     C_R   0.879329 0.265341 0.118468 -0.160949
H17   H     H_    0.105397 0.637334 0.895138 0.123745
H18   H     H_    0.894594 0.137336 0.104850 0.123747
C35   C     C_R   0.156446 0.755504 0.844791 -0.138771
C36   C     C_R   0.843549 0.255506 0.155202 -0.138772
H19   H     H_    0.167525 0.620537 0.831431 0.134458
H20   H     H_    0.832466 0.120538 0.168556 0.134457
C37   C     C_R   0.177398 0.917182 0.825430 0.020390
C38   C     C_R   0.822602 0.417184 0.174570 0.020390
C39   C     C_R   0.161732 0.089143 0.844170 -0.135393
C40   C     C_R   0.838272 0.589146 0.155836 -0.135391
H21   H     H_    0.176993 0.216742 0.830264 0.138558
H22   H     H_    0.823015 0.716745 0.169748 0.138559
C41   C     C_R   0.125930 0.099083 0.880981 -0.160037
C42   C     C_R   0.874074 0.599086 0.119026 -0.160036
H23   H     H_    0.114717 0.234117 0.894131 0.121655
H24   H     H_    0.885291 0.734121 0.105881 0.121653
C43   C     C_R   0.104726 0.937264 0.900106 -0.046932
C44   C     C_R   0.895274 0.437267 0.099893 -0.046933
N1    N     N_R   0.235256 0.061995 0.766703 -0.280440
N2    N     N_R   0.764752 0.561997 0.233308 -0.280439
N3    N     N_R   0.268891 0.051975 0.731199 -0.284121
N4    N     N_R   0.731117 0.551975 0.268812 -0.284122
C45   C     C_R   0.283943 0.885730 0.713121 0.513442
C46   C     C_R   0.716058 0.385729 0.286879 0.513441
N5    N     N_R   0.263790 0.729938 0.732231 -0.280444
N6    N     N_R   0.736202 0.229937 0.267757 -0.280443
N7    N     N_R   0.230154 0.739959 0.767733 -0.284077
N8    N     N_R   0.769838 0.239958 0.232256 -0.284078
C47   C     C_R   0.215112 0.906197 0.785822 0.513558
C48   C     C_R   0.784888 0.406199 0.214178 0.513557
C49   C     C_R   0.337601 0.702661 0.655143 -0.135275
C50   C     C_R   0.662394 0.202658 0.344850 -0.135274
H25   H     H_    0.322339 0.575091 0.669066 0.138542
H26   H     H_    0.677652 0.075088 0.330922 0.138543
C51   C     C_R   0.373627 0.692620 0.618611 -0.158762
C52   C     C_R   0.626368 0.192617 0.381383 -0.158761
H27   H     H_    0.385003 0.557575 0.605651 0.121320
H28   H     H_    0.614988 0.057572 0.394336 0.121318
C53   C     C_R   0.394883 0.854389 0.599547 -0.047866
C54   C     C_R   0.605118 0.354387 0.400454 -0.047868
C55   C     C_R   0.378702 0.026385 0.617771 -0.162068
C56   C     C_R   0.621303 0.526383 0.382236 -0.162067
C57   C     C_R   0.342699 0.036337 0.654234 -0.138716
C58   C     C_R   0.657307 0.536335 0.345773 -0.138716
H29   H     H_    0.331462 0.171348 0.667379 0.134488
H30   H     H_    0.668547 0.671347 0.332634 0.134488
C59   C     C_R   0.321759 0.874690 0.673638 0.020074
C60   C     C_R   0.678242 0.374688 0.326362 0.020073
O11   O     O_R   0.953220 0.285790 0.047790 -0.537734
O12   O     O_R   0.046780 0.785790 0.952210 -0.537736
O13   O     O_R   0.939020 0.617570 0.916840 -0.533669
O14   O     O_R   0.060980 0.117570 0.083160 -0.533671
C61   C     C_R   0.923962 0.448737 0.892457 0.682531
C62   C     C_R   0.076039 0.948741 0.107543 0.682531
O15   O     O_R   0.946600 0.615450 0.045180 -0.541041
O16   O     O_R   0.053400 0.115450 0.954820 -0.541041
O17   O     O_R   0.054370 0.786770 0.081410 -0.531311
O18   O     O_R   0.945630 0.286770 0.918590 -0.531312
C63   C     C_R   0.934271 0.446964 0.061690 0.676346
C64   C     C_R   0.065729 0.946963 0.938310 0.676348
O19   O     O_3   0.035300 0.454160 0.011680 -0.373304
O20   O     O_3   0.964700 0.954160 0.988320 -0.373303
V3    V     V_3+5 0.993450 0.728620 0.997830 1.411141
V4    V     V_3+5 0.006550 0.228620 0.002170 1.411142
H31   H     H_    0.393977 0.154302 0.604101 0.123534
H32   H     H_    0.606032 0.654300 0.395911 0.123536

loop_
_geom_bond_atom_site_label_1
_geom_bond_atom_site_label_2
_ccdc_geom_bond_type
C36   H20   S    
C49   C51   A    
C9    C11   A    
O1    C3    A    
C40   C42   A    
O2    C4    A    
C17   C25   A    
C2    O7    A    
C56   C58   A    
C4    C31   S    
C18   C32   A    
C21   C23   A    
H4    C24   S    
O5    C3    A    
C57   H29   S    
C5    H5    S    
C6    H6    S    
C34   C44   A    
C46   C60   S    
C42   H24   S    
C45   C59   S    
C5    C21   A    
O14   V4    S    
O18   V4    S    
O11   C63   A    
C50   C52   A    
C28   H8    S    
C33   C43   A    
N2    C48   A    
C33   H17   S    
O16   C64   A    
C2    C53   S    
C53   C55   A    
C37   C39   A    
O15   C63   A    
C8    C61   S    
C34   H18   S    
C51   H27   S    
C10   C32   A    
C35   H19   S    
C17   C31   A    
C13   C15   A    
N7    C47   A    
C55   H31   S    
C7    C29   A    
C16   C18   A    
C25   H15   S    
C22   C24   A    
C49   H25   S    
C11   C13   A    
C23   C25   A    
C24   C26   A    
N1    N3    A    
C44   C63   S    
C45   N5    A    
C43   C64   S    
C39   C41   A    
C34   C36   A    
C46   N6    A    
C12   C14   A    
C42   C44   A    
C40   H22   S    
C7    C62   S    
C39   H21   S    
C10   H10   S    
O19   V4    S    
C52   C54   A    
C50   C60   A    
C15   C19   A    
C14   C16   A    
O4    V2    S    
C50   H26   S    
O12   C64   A    
N8    C48   A    
C56   H32   S    
O6    C4    A    
O11   V4    S    
C55   C57   A    
O1    V2    S    
C54   C56   A    
O2    V1    S    
C41   H23   S    
O12   V3    S    
H2    C30   S    
H3    C23   S    
O17   V3    S    
O4    C2    A    
N3    C45   A    
N6    N8    A    
N2    N4    A    
N5    N7    A    
C18   C26   A    
C19   C27   A    
C7    C27   A    
O3    V1    S    
O15   V3    S    
C58   C60   A    
C57   C59   A    
C1    C54   S    
C16   C20   A    
C38   C48   S    
C5    C29   A    
C11   H13   S    
O3    C1    A    
C6    C30   A    
O14   C62   A    
C9    H9    S    
C8    C30   A    
C52   H28   S    
C62   O17   A    
C10   C12   A    
O7    V1    S    
C1    O8    A    
C19   C21   A    
C3    C32   S    
O8    V2    S    
C20   C22   A    
C36   C38   A    
C58   H30   S    
C26   H16   S    
C35   C37   A    
C12   H14   S    
O13   V3    S    
O5    V1    S    
C15   C17   A    
H1    C29   S    
C20   C28   A    
C8    C28   A    
N1    C47   A    
C33   C35   A    
C6    C22   A    
O6    V2    S    
C61   O18   A    
O9    V2    S    
C27   H7    S    
O10   V1    S    
N4    C46   A    
C38   C40   A    
O16   V4    S    
C13   H11   S    
C37   C47   S    
C41   C43   A    
C14   H12   S    
C51   C53   A    
C9    C31   A    
C49   C59   A    
O20   V3    S    
O13   C61   A    
