data_mof_unit_40960.cif
_audit_creation_date              2012-12-11T15:52:31-0500
_audit_creation_method            fapswitch 2.2
_symmetry_space_group_name_H-M    P1
_symmetry_Int_Tables_number       1
_space_group_crystal_system       triclinic
_cell_length_a                    6.930901
_cell_length_b                    14.534886
_cell_length_c                    16.013822
_cell_angle_alpha                 90.182804
_cell_angle_beta                  90.08718
_cell_angle_gamma                 90.024357
_cell_volume                      1613.21989338

loop_
_atom_site_label
_atom_site_type_symbol
_atom_type_description
_atom_site_fract_x
_atom_site_fract_y
_atom_site_fract_z
_atom_type_partial_charge
O1    O     O_R   0.494400 0.415640 0.412830 -0.542528
O2    O     O_R   0.823920 0.405510 0.586560 -0.543733
O3    O     O_R   0.994250 0.584360 0.587170 -0.518055
C1    C     C_R   0.654927 0.383182 0.615340 0.681233
O4    O     O_R   0.824110 0.404610 0.413450 -0.546918
O5    O     O_R   0.994440 0.583460 0.412820 -0.537095
C2    C     C_R   0.654963 0.382124 0.384396 0.677809
O6    O     O_R   0.494210 0.416540 0.587180 -0.539198
O7    O     O_3   0.660810 0.558680 0.500000 -0.357498
V1    V     V_3+5 0.935650 0.489110 0.500000 1.438182
O8    O     O_R   0.324150 0.594490 0.413440 -0.546250
C3    C     C_R   0.155041 0.616767 0.384591 0.698096
O9    O     O_R   0.323970 0.595390 0.586550 -0.550763
C4    C     C_R   0.155103 0.618021 0.615218 0.767425
V2    V     V_3+5 0.435660 0.510890 0.500000 1.419064
O10   O     O_3   0.160630 0.441320 0.500000 -0.375957
C5    C     C_3   0.011702 0.653534 0.756607 0.328031
H1    H     H_    0.860885 0.649272 0.732015 0.097763
C6    C     C_3   0.012837 0.722148 0.831470 -0.445048
H2    H     H_    0.082771 0.690154 0.886871 0.177389
H3    H     H_    0.861182 0.737606 0.849461 0.115380
H4    H     H_    0.867753 0.856313 0.740824 0.139988
C7    C     C_3   0.052647 0.783917 0.650108 0.526577
C8    C     C_3   0.345881 0.708930 0.723251 -0.404312
C9    C     C_3   0.142925 0.690510 0.684239 -0.025911
H5    H     H_    0.454898 0.727204 0.675434 0.174688
H6    H     H_    0.401262 0.644936 0.752794 0.193226
C10   C     C_3   0.121260 0.812171 0.808844 0.005593
C11   C     C_3   0.025338 0.852393 0.727589 -0.026817
C12   C     C_3   0.334704 0.785440 0.789755 -0.338267
H7    H     H_    0.406838 0.760719 0.847659 0.153150
H8    H     H_    0.417522 0.846321 0.768150 0.156949
C13   C     C_R   0.987315 0.743191 0.190159 -0.259529
H9    H     H_    0.874754 0.735686 0.143688 0.130095
C14   C     C_R   0.996844 0.679620 0.255620 -0.153562
H10   H     H_    0.890439 0.625115 0.258418 0.124591
C15   C     C_R   0.144114 0.685039 0.315807 -0.094680
C16   C     C_R   0.279504 0.756607 0.310138 -0.237155
H11   H     H_    0.388716 0.763985 0.358154 0.125122
C17   C     C_R   0.270570 0.821390 0.244703 0.460979
C18   C     C_R   0.122553 0.814898 0.183919 -0.132055
C19   C     C_R   0.812317 0.274584 0.716582 -0.167876
H12   H     H_    0.953084 0.293594 0.693005 0.123186
C20   C     C_R   0.801307 0.209775 0.780760 -0.159384
H13   H     H_    0.934137 0.180656 0.804574 0.119460
C21   C     C_R   0.621600 0.183024 0.813630 -0.045402
C22   C     C_R   0.453201 0.222683 0.780529 -0.159115
H14   H     H_    0.312427 0.203736 0.804152 0.117121
C23   C     C_R   0.464227 0.287521 0.716372 -0.142055
H15   H     H_    0.331402 0.316693 0.692599 0.125295
C24   C     C_R   0.643919 0.314251 0.683486 -0.052564
C25   C     C_R   0.812020 0.273976 0.281559 -0.155869
H16   H     H_    0.952802 0.292635 0.305635 0.116552
C26   C     C_R   0.801020 0.210040 0.216061 -0.154481
H17   H     H_    0.933846 0.181283 0.191896 0.121664
C27   C     C_R   0.621453 0.183617 0.182344 -0.046433
C28   C     C_R   0.453166 0.222768 0.216204 -0.139652
H18   H     H_    0.312389 0.204081 0.192138 0.117597
C29   C     C_R   0.464162 0.286704 0.281707 -0.152848
H19   H     H_    0.331333 0.315434 0.305894 0.117179
C30   C     C_R   0.643757 0.313277 0.315310 -0.046693
O11   O     O_R   0.771300 0.080930 0.910090 -0.542002
O12   O     O_R   0.441270 0.092800 0.083770 -0.535249
O13   O     O_R   0.271080 0.913920 0.084380 -0.517934
C31   C     C_R   0.610351 0.115112 0.113001 0.703878
O14   O     O_R   0.441580 0.091910 0.910670 -0.544306
O15   O     O_R   0.271390 0.913020 0.910040 -0.542097
C32   C     C_R   0.610567 0.114147 0.881816 0.684321
O16   O     O_R   0.770990 0.081830 0.084440 -0.543883
O17   O     O_3   0.604750 0.938760 0.997250 -0.372281
V3    V     V_3+5 0.329850 0.008280 0.997210 1.415873
O18   O     O_R   0.941680 0.901940 0.910610 -0.547576
C33   C     C_R   0.110740 0.879457 0.881890 0.711734
O19   O     O_R   0.941370 0.902830 0.083720 -0.555008
C34   C     C_R   0.110464 0.881807 0.113686 0.728858
V4    V     V_3+5 0.829860 0.986420 0.997150 1.376575
O20   O     O_3   0.104830 0.056030 0.997180 -0.371261
C35   C     C_3   0.188731 0.823825 0.580968 -0.759167
H20   H     H_    0.130955 0.887206 0.552061 0.202404
H21   H     H_    0.330145 0.844027 0.607107 0.179252
H22   H     H_    0.211569 0.773203 0.529903 0.178163
C36   C     C_3   0.086023 0.953531 0.711141 -0.823590
H23   H     H_    0.014064 0.981222 0.654787 0.210696
H24   H     H_    0.040773 0.998773 0.763521 0.203597
H25   H     H_    0.244284 0.960416 0.703570 0.216876
O21   O     O_3   0.391329 0.897305 0.245526 -0.562113
C37   C     C_3   0.581235 0.868955 0.227593 -0.189774
H26   H     H_    0.672581 0.931088 0.220299 0.158096
H27   H     H_    0.587826 0.829782 0.167812 0.132185
H28   H     H_    0.643280 0.827874 0.279522 0.124481
O22   O     O_3   0.079434 0.565998 0.782999 -0.557508
C38   C     C_3   0.925302 0.511446 0.812215 -0.263941
H29   H     H_    0.824667 0.493851 0.760434 0.133671
H30   H     H_    0.846296 0.546245 0.863829 0.133986
H31   H     H_    0.984706 0.446068 0.836866 0.168463
O23   O     O_3   0.868231 0.759309 0.616088 -0.568349
C39   C     C_3   0.777321 0.828379 0.568270 -0.260497
H32   H     H_    0.628016 0.805621 0.555122 0.153125
H33   H     H_    0.768212 0.894996 0.601798 0.132001
H34   H     H_    0.846696 0.835710 0.506236 0.156623

loop_
_geom_bond_atom_site_label_1
_geom_bond_atom_site_label_2
_ccdc_geom_bond_type
O14   C32   A    
C37   H26   S    
O12   C31   A    
H4    C11   S    
C14   H10   S    
C5    O22   S    
C8    H6    S    
O18   V4    S    
C39   H32   S    
C22   C23   A    
C27   C28   A    
O19   V4    S    
C7    C11   S    
C10   C11   S    
C6    H3    S    
C8    H5    S    
C25   C30   A    
O5    C3    A    
C12   H7    S    
C35   H21   S    
C28   C29   A    
C27   C31   S    
C7    O23   S    
O16   V4    S    
O13   V3    S    
C17   O21   S    
C3    C15   S    
C2    C30   S    
C5    C6    S    
C21   C22   A    
O8    V2    S    
O14   V3    S    
C25   C26   A    
C23   C24   A    
O17   V3    S    
O15   C33   A    
C12   H8    S    
O7    V1    S    
C1    O6    A    
C19   C24   A    
C29   H19   S    
C4    C9    S    
O9    C4    A    
O11   V4    S    
C19   C20   A    
C10   C33   S    
C39   H33   S    
C20   C21   A    
C13   H9    S    
C26   C27   A    
C29   C30   A    
O19   C34   A    
C1    C24   S    
C8    C9    S    
O22   C38   S    
O4    C2    A    
C35   H20   S    
C38   H31   S    
O2    C1    A    
C21   C32   S    
C15   C16   A    
C18   C34   S    
C22   H14   S    
O23   C39   S    
C38   H30   S    
C5    H1    S    
V4    O20   S    
C6    C10   S    
O3    C4    A    
O1    V2    S    
C17   C18   A    
O12   V3    S    
C36   H23   S    
O6    V2    S    
C36   H24   S    
O9    V2    S    
O17   V4    S    
C19   H12   S    
O2    V1    S    
V3    O20   S    
C39   H34   S    
C25   H16   S    
O21   C37   S    
C26   H17   S    
C14   C15   A    
O1    C2    A    
C20   H13   S    
O18   C33   A    
O5    V1    S    
O8    C3    A    
C36   H25   S    
O11   C32   A    
C13   C18   A    
C6    H2    S    
C37   H27   S    
O7    V2    S    
C5    C9    S    
C11   C36   S    
O3    V1    S    
V1    O10   S    
C16   C17   A    
C35   H22   S    
C28   H18   S    
C16   H11   S    
C31   O16   A    
C10   C12   S    
C38   H29   S    
C13   C14   A    
O13   C34   A    
O15   V3    S    
C7    C9    S    
C7    C35   S    
C8    C12   S    
O4    V1    S    
C23   H15   S    
C37   H28   S    
V2    O10   S    
