data_mof_unit_63569.cif
_audit_creation_date              2012-12-10T16:59:03-0500
_audit_creation_method            fapswitch 2.2
_symmetry_space_group_name_H-M    P1
_symmetry_Int_Tables_number       1
_space_group_crystal_system       triclinic
_cell_length_a                    30.647139
_cell_length_b                    30.783515
_cell_length_c                    24.858765
_cell_angle_alpha                 90.016755
_cell_angle_beta                  128.579042
_cell_angle_gamma                 89.995328
_cell_volume                      18333.8975287

loop_
_atom_site_label
_atom_site_type_symbol
_atom_type_description
_atom_site_fract_x
_atom_site_fract_y
_atom_site_fract_z
_atom_type_partial_charge
C1    C     C_R   0.691906 0.190723 0.502671 0.776987
C2    C     C_R   0.534990 0.251457 0.069955 0.447133
C3    C     C_R   0.741474 0.950189 0.640603 -0.206396
C4    C     C_R   0.907461 0.361845 0.412537 -0.244071
C5    C     C_R   0.092606 0.361871 0.587549 -0.243383
C6    C     C_R   0.405717 0.862426 0.410636 -0.241245
C7    C     C_R   0.683488 0.949477 0.591484 -0.241665
C8    C     C_R   0.890190 0.368548 0.453060 0.096872
C9    C     C_R   0.109800 0.368536 0.546941 0.096095
C10   C     C_R   0.389303 0.868851 0.452127 0.100151
C11   C     C_R   0.655617 0.912687 0.548946 0.097985
C12   C     C_R   0.853249 0.338296 0.448585 -0.070170
C13   C     C_R   0.965134 0.751729 0.929975 0.445862
C14   C     C_R   0.146773 0.338310 0.551430 -0.069248
C15   C     C_R   0.352457 0.838604 0.447872 -0.071902
C16   C     C_R   0.687794 0.877860 0.553159 -0.063831
C17   C     C_R   0.840415 0.342371 0.494184 -0.199394
C18   C     C_R   0.159532 0.342341 0.505754 -0.197436
C19   C     C_R   0.340378 0.842373 0.494220 -0.198229
C20   C     C_R   0.660331 0.842970 0.505902 -0.195991
C21   C     C_R   0.861378 0.377254 0.540293 0.610317
C22   C     C_R   0.138380 0.377108 0.459457 0.607765
C23   C     C_R   0.361966 0.876946 0.540927 0.611184
C24   C     C_R   0.035066 0.751692 0.069878 0.445683
C25   C     C_R   0.602010 0.841582 0.458338 0.611098
C26   C     C_R   0.895258 0.407925 0.542149 -0.268258
C27   C     C_R   0.104455 0.407753 0.457568 -0.266159
C28   C     C_R   0.395827 0.907599 0.542713 -0.268457
C29   C     C_R   0.570564 0.874670 0.456495 -0.270224
C30   C     C_R   0.909434 0.404185 0.498772 -0.169368
C31   C     C_R   0.090446 0.404108 0.501127 -0.168478
C32   C     C_R   0.409328 0.904161 0.498616 -0.167638
C33   C     C_R   0.596593 0.909932 0.501460 -0.162880
C34   C     C_R   0.058250 0.439225 0.500221 0.810140
C35   C     C_R   0.670314 0.194943 0.602284 -0.260837
C36   C     C_R   0.941700 0.439261 0.499754 0.795982
C37   C     C_R   0.561003 0.941881 0.500302 0.812258
C38   C     C_R   0.441707 0.939225 0.499724 0.814527
C39   C     C_R   0.816186 0.249697 0.632625 0.816339
C40   C     C_R   0.183764 0.249718 0.367362 0.815613
C41   C     C_R   0.316148 0.749676 0.632631 0.817245
C42   C     C_R   0.683689 0.749793 0.367335 0.816426
C43   C     C_R   0.558340 0.060738 0.500275 0.779026
C44   C     C_R   0.439116 0.058237 0.499708 0.778354
C45   C     C_R   0.058306 0.560766 0.500265 0.794428
C46   C     C_R   0.253190 0.119908 0.396338 -0.254321
C47   C     C_R   0.939146 0.558260 0.499715 0.778016
C48   C     C_R   0.640069 0.213217 0.254195 0.633094
C49   C     C_R   0.359736 0.213311 0.745800 0.637687
C50   C     C_R   0.140643 0.713519 0.254097 0.634048
C51   C     C_R   0.861169 0.713002 0.745781 0.625626
C52   C     C_R   0.603905 0.213755 0.182326 -0.204514
C53   C     C_R   0.395933 0.213848 0.817668 -0.204863
C54   C     C_R   0.104522 0.714122 0.182229 -0.203911
C55   C     C_R   0.897374 0.713596 0.817644 -0.215920
C56   C     C_R   0.573086 0.251219 0.146075 -0.036909
C57   C     C_R   0.170407 0.694917 0.602362 -0.260542
C58   C     C_R   0.427024 0.251225 0.853947 -0.036867
C59   C     C_R   0.073179 0.751419 0.146015 -0.036722
C60   C     C_R   0.926947 0.751483 0.853837 -0.047587
C61   C     C_R   0.578817 0.288166 0.183205 -0.139952
C62   C     C_R   0.421529 0.288087 0.816844 -0.140460
C63   C     C_R   0.078382 0.788143 0.183204 -0.141418
C64   C     C_R   0.919873 0.788823 0.816624 -0.122857
C65   C     C_R   0.614303 0.287497 0.255127 -0.258242
C66   C     C_R   0.386006 0.287416 0.744919 -0.260582
C67   C     C_R   0.113857 0.787412 0.255128 -0.259072
C68   C     C_R   0.753195 0.619570 0.396856 -0.256924
C69   C     C_R   0.884338 0.788115 0.744692 -0.245506
C70   C     C_3   0.979663 0.150470 0.852555 -0.608689
C71   C     C_3   0.039759 0.141987 0.148604 -0.564242
C72   C     C_3   0.476078 0.649044 0.854055 -0.613846
C73   C     C_3   0.466260 0.710059 0.124902 -0.612430
C74   C     C_3   0.858232 0.338313 0.850197 -0.583681
C75   C     C_3   0.121732 0.349144 0.148665 -0.598259
C76   C     C_3   0.360569 0.841090 0.849100 -0.580179
C77   C     C_3   0.672378 0.837542 0.179472 -0.639160
C78   C     C_R   0.654319 0.199785 0.643574 0.679255
C79   C     C_R   0.227151 0.083496 0.354351 0.670031
C80   C     C_R   0.154473 0.699742 0.643719 0.679263
C81   C     C_R   0.308050 0.190660 0.497380 0.777464
C82   C     C_R   0.727214 0.583011 0.355223 0.676927
C83   C     C_R   0.614935 0.171887 0.635554 -0.212124
C84   C     C_R   0.258888 0.048074 0.362321 -0.197908
C85   C     C_R   0.115087 0.671856 0.635717 -0.210483
C86   C     C_R   0.759029 0.547628 0.363264 -0.200616
C87   C     C_R   0.592882 0.138029 0.588016 -0.274385
C88   C     C_R   0.316924 0.049492 0.410548 -0.265797
C89   C     C_R   0.092965 0.638027 0.588123 -0.274633
C90   C     C_R   0.817073 0.549226 0.411206 -0.265989
C91   C     C_R   0.610063 0.131440 0.547375 0.103662
C92   C     C_R   0.191898 0.690727 0.502660 0.776455
C93   C     C_R   0.344429 0.086783 0.451866 0.099828
C94   C     C_R   0.110073 0.631460 0.547399 0.102693
C95   C     C_R   0.844499 0.586648 0.452185 0.099957
C96   C     C_R   0.646947 0.161807 0.551896 0.009140
C97   C     C_R   0.311918 0.121473 0.447317 0.012398
C98   C     C_R   0.146968 0.661812 0.551917 0.010385
C99   C     C_R   0.811939 0.621313 0.447591 0.010941
C100  C     C_R   0.660010 0.157699 0.506576 -0.065262
C101  C     C_R   0.339176 0.156993 0.493265 -0.057267
C102  C     C_R   0.159968 0.657724 0.506529 -0.065779
C103  C     C_R   0.808036 0.690656 0.497352 0.778830
C104  C     C_R   0.839167 0.656978 0.493242 -0.057939
C105  C     C_R   0.639591 0.122728 0.460960 -0.176157
C106  C     C_R   0.397379 0.159145 0.539542 -0.173769
C107  C     C_R   0.139398 0.622829 0.460765 -0.175932
C108  C     C_R   0.897371 0.659273 0.539256 -0.172710
C109  C     C_R   0.683569 0.249997 0.367401 0.808919
C110  C     C_R   0.316440 0.250001 0.632602 0.809009
C111  C     C_R   0.183580 0.750014 0.367389 0.808125
C112  C     C_R   0.816400 0.750047 0.632575 0.813304
C113  C     C_R   0.605466 0.092033 0.458589 -0.199806
C114  C     C_R   0.645506 0.250153 0.291368 -0.153603
C115  C     C_R   0.429202 0.126118 0.541995 -0.193689
C116  C     C_R   0.105244 0.592155 0.458375 -0.193119
C117  C     C_R   0.929222 0.626259 0.541733 -0.194735
C118  C     C_R   0.590812 0.095819 0.501514 -0.074147
C119  C     C_R   0.403444 0.090181 0.498442 -0.067327
C120  C     C_R   0.090734 0.595875 0.501458 -0.076290
C121  C     C_R   0.903492 0.590198 0.498470 -0.066810
C122  C     C_R   0.902544 0.223746 0.745268 -0.235584
C123  C     C_R   0.102383 0.218572 0.255120 -0.224516
C124  C     C_R   0.401527 0.722765 0.745551 -0.238626
C125  C     C_R   0.354532 0.250159 0.708645 -0.156067
C126  C     C_R   0.600989 0.719997 0.254864 -0.206967
C127  C     C_R   0.937467 0.221348 0.817229 0.233331
C128  C     C_R   0.067528 0.216325 0.183147 0.229364
C129  C     C_R   0.436259 0.720611 0.817548 0.235282
C130  C     C_R   0.564481 0.719332 0.182843 0.240885
C131  C     C_R   0.923948 0.244817 0.853978 -0.050224
C132  C     C_R   0.075546 0.245352 0.145917 -0.044317
C133  C     C_R   0.423428 0.745354 0.853976 -0.045261
C134  C     C_R   0.573443 0.747754 0.145848 -0.041185
C135  C     C_R   0.874153 0.269738 0.817072 0.225767
C136  C     C_R   0.145554 0.750228 0.291334 -0.154196
C137  C     C_R   0.120077 0.275687 0.182360 0.219779
C138  C     C_R   0.374462 0.771233 0.816833 0.225145
C139  C     C_R   0.619181 0.777023 0.181963 0.239230
C140  C     C_R   0.839551 0.271105 0.745001 -0.150732
C141  C     C_R   0.154969 0.276723 0.254455 -0.163998
C142  C     C_R   0.339979 0.772298 0.744780 -0.148627
C143  C     C_R   0.654533 0.777496 0.254540 -0.201162
C144  C     C_R   0.853458 0.248441 0.708658 -0.126176
C145  C     C_R   0.146323 0.248543 0.291295 -0.124098
C146  C     C_R   0.353268 0.748462 0.708676 -0.125912
C147  C     C_R   0.854445 0.750312 0.708565 -0.166811
C148  C     C_R   0.645802 0.749144 0.291175 -0.118162
C149  C     C_R   0.036078 0.245158 0.069769 0.429721
C150  C     C_R   0.963041 0.244855 0.930138 0.429756
C151  C     C_R   0.534711 0.747064 0.069676 0.408832
C152  C     C_R   0.462484 0.745849 0.930077 0.417176
C153  C     C_R   0.829687 0.305242 0.398031 -0.220788
C154  C     C_R   0.170436 0.305323 0.602067 -0.220160
C155  C     C_R   0.328236 0.805837 0.396814 -0.222767
C156  C     C_R   0.746447 0.878688 0.605033 -0.223846
C157  C     C_R   0.808278 0.309308 0.497643 0.840321
C158  C     C_R   0.465143 0.251460 0.930068 0.447394
C159  C     C_R   0.191715 0.309303 0.502345 0.840228
C160  C     C_R   0.308304 0.809306 0.497721 0.841770
C161  C     C_R   0.691690 0.809345 0.502163 0.843909
C162  C     C_R   0.845721 0.300290 0.356792 0.682782
C163  C     C_R   0.154471 0.300407 0.643381 0.682726
C164  C     C_R   0.343444 0.801182 0.354680 0.685294
C165  C     C_R   0.772803 0.914559 0.648241 0.670612
C166  C     C_R   0.885297 0.328014 0.364961 -0.209830
C167  C     C_R   0.114868 0.328103 0.635209 -0.208871
C168  C     C_R   0.382865 0.828903 0.362479 -0.204296
Cu1   Cu    Cu3+1 0.719090 0.280910 0.500010 1.023232
Cu2   Cu    Cu3+1 0.034200 0.500000 0.568440 0.976668
Cu3   Cu    Cu3+1 0.465800 0.000000 0.431560 0.971696
Cu4   Cu    Cu3+1 0.534200 0.000000 0.568440 0.974937
Cu5   Cu    Cu3+1 0.280910 0.280910 0.499990 1.010497
Cu6   Cu    Cu3+1 0.219090 0.780910 0.500010 1.021450
Cu7   Cu    Cu3+1 0.780910 0.780910 0.499990 0.982775
Cu8   Cu    Cu3+1 0.780930 0.219110 0.499990 1.033729
Cu9   Cu    Cu3+1 0.219070 0.219110 0.500010 1.047439
Cu10  Cu    Cu3+1 0.280930 0.719110 0.499990 1.033616
Cu11  Cu    Cu3+1 0.719070 0.719110 0.500010 1.073840
Cu12  Cu    Cu3+1 0.965800 0.500000 0.431560 0.970558
F1    F     F_    0.668733 0.176206 0.287101 -0.640413
F2    F     F_    0.177144 0.268309 0.691100 -0.641611
F3    F     F_    0.320227 0.769303 0.306540 -0.638068
F4    F     F_    0.829090 0.914921 0.697242 -0.664634
F5    F     F_    0.676785 0.231976 0.691159 -0.652305
F6    F     F_    0.170792 0.082424 0.306170 -0.676364
F7    F     F_    0.177001 0.731906 0.691353 -0.651566
F8    F     F_    0.670834 0.581770 0.307298 -0.656986
F9    F     F_    0.330800 0.176381 0.712883 -0.631741
F10   F     F_    0.169791 0.676653 0.286922 -0.638819
F11   F     F_    0.833754 0.675597 0.712891 -0.639299
F12   F     F_    0.849856 0.381232 0.584720 -0.644939
F13   F     F_    0.149775 0.381000 0.414900 -0.649906
F14   F     F_    0.351077 0.880616 0.585997 -0.645138
F15   F     F_    0.575367 0.808446 0.412469 -0.648612
F16   F     F_    0.823140 0.268131 0.309149 -0.641462
H1    H     H_    0.590947 0.064802 0.423576 0.163468
H2    H     H_    0.189523 0.299412 0.281728 0.180193
H3    H     H_    0.302010 0.791370 0.716929 0.188712
H4    H     H_    0.689722 0.799411 0.283191 0.172369
H5    H     H_    0.798245 0.283296 0.389128 0.170434
H6    H     H_    0.201895 0.283399 0.610967 0.169952
H7    H     H_    0.296929 0.783879 0.388252 0.170016
H8    H     H_    0.772445 0.851581 0.613359 0.158099
H9    H     H_    0.898605 0.323541 0.333942 0.174365
H10   H     H_    0.101614 0.323656 0.666287 0.173818
H11   H     H_    0.395555 0.824654 0.330766 0.181122
H12   H     H_    0.474287 0.128891 0.577605 0.148194
H13   H     H_    0.762105 0.978432 0.673154 0.171444
H14   H     H_    0.938699 0.382087 0.417709 0.173658
H15   H     H_    0.061347 0.382093 0.582370 0.172635
H16   H     H_    0.436828 0.882619 0.415473 0.172024
H17   H     H_    0.661171 0.978280 0.586752 0.176613
H18   H     H_    0.600396 0.184821 0.155067 0.185874
H19   H     H_    0.399251 0.184982 0.844906 0.186831
H20   H     H_    0.101438 0.685355 0.154945 0.186264
H21   H     H_    0.901908 0.684352 0.844938 0.186381
H22   H     H_    0.910080 0.435137 0.577266 0.188403
H23   H     H_    0.090618 0.564976 0.423248 0.163584
H24   H     H_    0.089503 0.434887 0.422316 0.183780
H25   H     H_    0.411168 0.934560 0.578359 0.188046
H26   H     H_    0.525439 0.872508 0.420101 0.173934
H27   H     H_    0.555424 0.317461 0.156686 0.173361
H28   H     H_    0.445134 0.317314 0.843387 0.172124
H29   H     H_    0.054593 0.817310 0.156735 0.173000
H30   H     H_    0.942241 0.818466 0.843075 0.184974
H31   H     H_    0.617862 0.316419 0.282449 0.183740
H32   H     H_    0.382640 0.316273 0.717625 0.182538
H33   H     H_    0.116994 0.816168 0.282474 0.183545
H34   H     H_    0.974300 0.629135 0.577133 0.148056
H35   H     H_    0.879685 0.817338 0.717267 0.205499
H36   H     H_    0.649513 0.119495 0.426233 0.175646
H37   H     H_    0.418330 0.186271 0.574774 0.157709
H38   H     H_    0.149235 0.619634 0.425949 0.175722
H39   H     H_    0.918308 0.686499 0.574269 0.159044
H40   H     H_    0.701612 0.217006 0.611046 0.167431
H41   H     H_    0.226883 0.146861 0.387693 0.165259
H42   H     H_    0.201706 0.716970 0.611108 0.167736
H43   H     H_    0.726819 0.646492 0.388113 0.165746
H44   H     H_    0.601671 0.176252 0.666639 0.170087
H45   H     H_    0.914069 0.206068 0.718109 0.172307
H46   H     H_    0.238524 0.019445 0.330692 0.172585
H47   H     H_    0.101874 0.676207 0.666858 0.170418
H48   H     H_    0.738720 0.518896 0.331900 0.173868
H49   H     H_    0.561833 0.117657 0.583025 0.173299
H50   H     H_    0.339613 0.020867 0.415544 0.179937
H51   H     H_    0.061918 0.617662 0.583146 0.171431
H52   H     H_    0.839844 0.520640 0.416257 0.180909
H53   H     H_    0.010905 0.204029 0.836740 0.259217
H54   H     H_    0.955580 0.137262 0.799489 0.213719
H55   H     H_    0.957079 0.143199 0.873175 0.248529
H56   H     H_    0.095094 0.196415 0.282635 0.179312
H57   H     H_    0.020939 0.134122 0.885702 0.236085
H58   H     H_    0.998958 0.187098 0.164429 0.259028
H59   H     H_    0.066669 0.128716 0.201792 0.252990
H60   H     H_    0.062945 0.141092 0.127735 0.248241
H61   H     H_    0.002184 0.121115 0.115814 0.229219
H62   H     H_    0.509024 0.700791 0.837236 0.256626
H63   H     H_    0.451448 0.635384 0.801201 0.211065
H64   H     H_    0.453371 0.643300 0.874911 0.250862
H65   H     H_    0.516791 0.631903 0.887386 0.235260
H66   H     H_    0.525917 0.661615 0.173930 0.274537
H67   H     H_    0.412516 0.704108 0.718589 0.171094
H68   H     H_    0.469456 0.721101 0.169828 0.231432
H69   H     H_    0.432025 0.685876 0.095459 0.237060
H70   H     H_    0.455629 0.738156 0.090657 0.234113
H71   H     H_    0.870696 0.278709 0.897809 0.269372
H72   H     H_    0.841675 0.352040 0.875572 0.231645
H73   H     H_    0.832197 0.350663 0.796539 0.233329
H74   H     H_    0.901973 0.349492 0.878446 0.234822
H75   H     H_    0.120254 0.292753 0.101002 0.267712
H76   H     H_    0.134760 0.368167 0.122872 0.230069
H77   H     H_    0.145679 0.361164 0.202316 0.234138
H78   H     H_    0.593554 0.697977 0.282374 0.181081
H79   H     H_    0.076433 0.354447 0.120797 0.240587
H80   H     H_    0.371528 0.782217 0.897623 0.265897
H81   H     H_    0.344536 0.855966 0.874422 0.231967
H82   H     H_    0.334767 0.853107 0.795273 0.233431
H83   H     H_    0.404594 0.851394 0.877059 0.237085
H84   H     H_    0.626098 0.789249 0.104807 0.262633
H85   H     H_    0.670422 0.857674 0.140959 0.237393
H86   H     H_    0.714350 0.822319 0.213988 0.217847
H87   H     H_    0.665394 0.859282 0.209136 0.238983
H88   H     H_    0.800959 0.289371 0.717308 0.188689
N1    N     N_R   0.517241 0.289420 0.034318 -0.227540
N2    N     N_R   0.013738 0.282846 0.034165 -0.241189
N3    N     N_R   0.482414 0.708238 0.966396 -0.200553
N4    N     N_R   0.514785 0.784690 0.033341 -0.216620
N5    N     N_R   0.021063 0.207327 0.034231 -0.202836
N6    N     N_R   0.978051 0.282712 0.965670 -0.243116
N7    N     N_R   0.517796 0.708817 0.034896 -0.184872
N8    N     N_R   0.479452 0.784088 0.964854 -0.239647
N9    N     N_2   0.987636 0.196799 0.852601 -0.419976
N10   N     N_2   0.022833 0.185929 0.148277 -0.430426
N11   N     N_2   0.485591 0.694993 0.853288 -0.419722
N12   N     N_R   0.483154 0.289421 0.965749 -0.227983
N13   N     N_2   0.518178 0.690322 0.147899 -0.410642
N14   N     N_2   0.856190 0.291380 0.850926 -0.412171
N15   N     N_2   0.132786 0.303538 0.147984 -0.431276
N16   N     N_2   0.357226 0.794275 0.850494 -0.414164
N17   N     N_2   0.629571 0.804397 0.144342 -0.409827
N18   N     N_R   0.016250 0.789651 0.034240 -0.226163
N19   N     N_R   0.982117 0.789673 0.965665 -0.224982
N20   N     N_R   0.482766 0.213547 0.965744 -0.222930
N21   N     N_R   0.517110 0.213544 0.034235 -0.223447
N22   N     N_R   0.983839 0.713820 0.965656 -0.223872
N23   N     N_R   0.018212 0.713805 0.034144 -0.225187
N24   N     N_R   0.985286 0.207184 0.965754 -0.201017
O1    O     O_R   0.678820 0.231020 0.500020 -0.586016
O2    O     O_R   0.483800 0.045090 0.557810 -0.585951
O3    O     O_R   0.016200 0.545090 0.442190 -0.577788
O4    O     O_R   0.983800 0.545090 0.557810 -0.585665
O5    O     O_R   0.573990 0.045100 0.557780 -0.595382
O6    O     O_R   0.426010 0.045100 0.442220 -0.582673
O7    O     O_R   0.073990 0.545100 0.557780 -0.581306
O8    O     O_R   0.926010 0.545100 0.442220 -0.583360
O9    O     O_R   0.731040 0.178820 0.500000 -0.572805
O10   O     O_R   0.268960 0.178820 0.500000 -0.567683
O11   O     O_R   0.231040 0.678820 0.500000 -0.572568
O12   O     O_R   0.321180 0.231020 0.499980 -0.588423
O13   O     O_R   0.768960 0.678820 0.500000 -0.569402
O14   O     O_R   0.673970 0.276110 0.400150 -0.596727
O15   O     O_R   0.326030 0.276110 0.599850 -0.601031
O16   O     O_R   0.173970 0.776110 0.400150 -0.597444
O17   O     O_R   0.826030 0.776110 0.599850 -0.599741
O18   O     O_R   0.726190 0.223910 0.400130 -0.521299
O19   O     O_R   0.273810 0.223910 0.599870 -0.516855
O20   O     O_R   0.226190 0.723910 0.400130 -0.520316
O21   O     O_R   0.773810 0.723910 0.599870 -0.519090
O22   O     O_R   0.768980 0.321200 0.500000 -0.531973
O23   O     O_R   0.178820 0.731020 0.500020 -0.586515
O24   O     O_R   0.231020 0.321200 0.500000 -0.534613
O25   O     O_R   0.268980 0.821200 0.500000 -0.533412
O26   O     O_R   0.731020 0.821200 0.500000 -0.595331
O27   O     O_R   0.821200 0.269000 0.499980 -0.595139
O28   O     O_R   0.178800 0.269000 0.500020 -0.593716
O29   O     O_R   0.321200 0.769000 0.499980 -0.594258
O30   O     O_R   0.678800 0.769000 0.500020 -0.534060
O31   O     O_R   0.773830 0.276110 0.599860 -0.577662
O32   O     O_R   0.226170 0.276110 0.400140 -0.575759
O33   O     O_R   0.273830 0.776110 0.599860 -0.577841
O34   O     O_R   0.821180 0.731020 0.499980 -0.586833
O35   O     O_R   0.726170 0.776110 0.400140 -0.592461
O36   O     O_R   0.826050 0.223920 0.599850 -0.589386
O37   O     O_R   0.173950 0.223920 0.400150 -0.592301
O38   O     O_R   0.326050 0.723920 0.599850 -0.589898
O39   O     O_R   0.673950 0.723920 0.400150 -0.577261
O40   O     O_R   0.016230 0.454910 0.442200 -0.589087
O41   O     O_R   0.983770 0.454910 0.557800 -0.585591
O42   O     O_R   0.516230 0.954910 0.442200 -0.588522
O43   O     O_R   0.483770 0.954910 0.557800 -0.573175
O44   O     O_R   0.074030 0.454920 0.557790 -0.578741
O45   O     O_R   0.925970 0.454920 0.442210 -0.591963
O46   O     O_R   0.574030 0.954920 0.557790 -0.581556
O47   O     O_R   0.425970 0.954920 0.442210 -0.595661
O48   O     O_R   0.516200 0.045090 0.442190 -0.574881

loop_
_geom_bond_atom_site_label_1
_geom_bond_atom_site_label_2
_ccdc_geom_bond_type
Cu6   O25   S    
C21   C26   A    
C58   C62   A    
C106  H37   S    
C87   C91   A    
C26   H22   S    
C142  C146  A    
C90   C95   A    
C13   C60   S    
C128  N10   S    
Cu8   O9    S    
C40   C145  S    
C46   C79   A    
C95   C99   A    
C29   C33   A    
C117  H34   S    
H71   N14   S    
C89   C94   A    
C137  C141  A    
C18   C159  S    
C91   C96   A    
C123  C145  A    
H66   N13   S    
C1    O9    A    
C77   H86   S    
C73   H68   S    
C141  C145  A    
C108  H39   S    
C27   H24   S    
C160  O29   A    
C130  C134  A    
C158  N20   A    
Cu3   O47   S    
C153  H5    S    
C25   C29   A    
C29   H26   S    
C34   O40   A    
C161  O26   A    
C73   N13   S    
C13   N22   A    
C28   C32   A    
C149  N5    A    
C86   C90   A    
C135  N14   S    
Cu10  O20   S    
C21   F12   S    
Cu12  O8    S    
Cu3   O6    S    
C132  C137  A    
C98   C102  A    
Cu4   O46   S    
Cu10  O38   S    
C17   C21   A    
C47   O4    A    
C54   H20   S    
C88   H50   S    
C40   O32   A    
C16   C20   A    
N22   N23   A    
C72   H65   S    
C91   C118  A    
C109  O18   A    
C129  C133  A    
C45   C120  S    
Cu6   O23   S    
C22   C27   A    
C69   C147  A    
C138  N16   S    
Cu7   O34   S    
C48   C114  A    
C42   O39   A    
C157  O22   A    
C75   H79   S    
C84   C88   A    
Cu7   Cu11  S    
C53   C58   A    
Cu6   O16   S    
C35   C78   A    
C59   C63   A    
C30   C36   S    
C106  C115  A    
C60   C64   A    
C67   C136  A    
C52   C56   A    
C39   O36   A    
C49   C53   A    
C134  C151  S    
C23   F14   S    
Cu1   Cu8   S    
C51   C55   A    
C127  C131  A    
C73   H70   S    
C43   C118  S    
H75   N15   S    
C89   H51   S    
C48   C52   A    
C67   H33   S    
C94   C98   A    
Cu9   O10   S    
Cu8   O18   S    
C2    N21   A    
C142  H3    S    
Cu5   O12   S    
Cu9   O28   S    
C111  O16   A    
C74   H74   S    
C63   H29   S    
C81   C101  S    
C35   C96   A    
C159  O24   A    
H84   N17   S    
C105  C113  A    
C79   C84   A    
C111  C136  S    
C47   C121  S    
C75   H76   S    
C129  N11   S    
Cu4   O2    S    
C65   H31   S    
Cu9   O19   S    
C122  C127  A    
C139  C143  A    
H62   N11   S    
C41   C146  S    
Cu10  O29   S    
C38   O47   A    
C166  H9    S    
C62   H28   S    
Cu2   O41   S    
C17   C157  S    
C15   C155  A    
C127  N9    S    
C126  H78   S    
C39   O31   A    
C115  H12   S    
C14   C154  A    
C57   C80   A    
C152  N8    A    
C140  H88   S    
Cu5   O24   S    
C155  H7    S    
C87   H49   S    
C122  H45   S    
C54   C59   A    
C143  C148  A    
C6    C168  A    
C62   C66   A    
C105  H36   S    
C11   C33   A    
Cu3   O42   S    
C134  C139  A    
C88   C93   A    
Cu7   O17   S    
C23   C28   A    
C124  C146  A    
C116  C120  A    
C82   F8    S    
Cu5   O15   S    
C5    C9    A    
C61   C65   A    
Cu12  O3    S    
C8    C12   A    
Cu6   O33   S    
C52   H18   S    
C31   C34   S    
C102  C107  A    
C64   C69   A    
Cu10  O11   S    
C71   H59   S    
C51   C147  A    
C109  C114  S    
C2    N1    A    
C112  O21   A    
C34   O44   A    
C26   C30   A    
C115  C119  A    
C150  N6    A    
C74   N14   S    
C93   C97   A    
C51   F11   S    
C3    C165  A    
C101  C106  A    
Cu6   Cu10  S    
C83   H44   S    
C47   O8    A    
C18   C22   A    
C108  C117  A    
Cu7   O35   S    
C36   O45   A    
C92   C102  S    
C71   H61   S    
H53   N9    S    
C157  O27   A    
C112  C147  S    
C68   C82   A    
C24   N23   A    
C41   O38   A    
C109  O14   A    
C164  F3    S    
C2    C56   S    
Cu1   O1    S    
C24   C59   S    
C96   C100  A    
C75   N15   S    
C107  C116  A    
Cu12  O40   S    
C137  N15   S    
C112  O17   A    
C133  C138  A    
C39   C144  S    
C72   H63   S    
C150  N24   A    
C66   H32   S    
C93   C119  A    
C77   H85   S    
C110  O19   A    
Cu2   O7    S    
C3    H13   S    
C83   C87   A    
Cu1   O14   S    
C79   F6    S    
C149  N2    A    
C42   C148  S    
C55   H21   S    
C15   C19   A    
C143  H4    S    
C50   C54   A    
C76   H81   S    
N4    N8    A    
C3    C7    A    
C69   H35   S    
C48   F1    S    
C81   O10   A    
C20   C25   A    
C126  C130  A    
C1    C100  S    
C46   H41   S    
C45   O7    A    
Cu7   O26   S    
H80   N16   S    
C162  C166  A    
C78   C83   A    
C90   H52   S    
C12   C17   A    
C16   C156  A    
C22   F13   S    
C111  O20   A    
C41   O33   A    
C70   H54   S    
C24   N18   A    
C95   C121  A    
C99   C104  A    
C159  O28   A    
C53   H19   S    
C55   C60   A    
C132  C149  S    
C103  O34   A    
C133  C152  S    
Cu2   O44   S    
Cu8   O27   S    
C154  H6    S    
C37   O42   A    
C135  C140  A    
C5    H15   S    
N2    N6    A    
C167  H10   S    
Cu12  O45   S    
Cu11  O13   S    
C70   N9    S    
C126  C148  A    
C124  H67   S    
Cu2   O4    S    
C160  O25   A    
C82   C86   A    
C27   C31   A    
C33   C37   S    
C9    C14   A    
Cu8   O36   S    
C80   C85   A    
C161  O30   A    
C164  C168  A    
C168  H11   S    
C78   F5    S    
C77   H87   S    
C73   H69   S    
C46   C97   A    
C138  C142  A    
C40   O37   A    
C141  H2    S    
C19   C160  S    
C104  C108  A    
Cu3   O48   S    
C1    O1    A    
C85   C89   A    
C76   H83   S    
C165  F4    S    
C36   O41   A    
C140  C144  A    
C68   H43   S    
C6    C10   A    
C81   O12   A    
C49   C125  A    
C44   C119  S    
C153  C162  A    
C8    C30   A    
Cu1   O22   S    
C158  N12   A    
C92   O23   A    
C156  C165  A    
C57   C98   A    
N1    N12   A    
C124  C129  A    
C151  N7    A    
C50   F10   S    
C72   N11   S    
Cu5   O32   S    
C123  H56   S    
C6    H16   S    
C162  F16   S    
C103  C104  S    
C56   C61   A    
C131  C150  S    
Cu3   Cu4   S    
C65   C114  A    
C14   C18   A    
C19   C23   A    
C122  C144  A    
C12   C153  A    
C4    C8    A    
C151  N4    A    
C64   H30   S    
C152  N3    A    
Cu4   O43   S    
N5    N24   A    
C7    C11   A    
C100  C105  A    
C131  C135  A    
C10   C15   A    
C49   F9    S    
C85   H47   S    
C4    H14   S    
C11   C16   A    
C110  O15   A    
C117  C121  A    
C74   H72   S    
C28   H25   S    
C32   C38   S    
C57   H42   S    
C25   F15   S    
C163  F2    S    
C94   C120  A    
C128  C132  A    
C70   H57   S    
C74   H73   S    
C63   C67   A    
C139  N17   S    
C43   O5    A    
C130  N13   S    
Cu1   O31   S    
C44   O2    A    
C154  C163  A    
C45   O3    A    
C58   C158  S    
C76   N16   S    
C77   N17   S    
C42   O35   A    
Cu11  O39   S    
Cu2   Cu12  S    
C71   N10   S    
C163  C167  A    
C61   H27   S    
C92   O11   A    
Cu5   Cu9   S    
C116  H23   S    
C7    H17   S    
N20   N21   A    
C72   H64   S    
N3    N7    A    
C156  H8    S    
N18   N19   A    
C103  O13   A    
C107  H38   S    
C44   O6    A    
H58   N10   S    
C38   O43   A    
C155  C164  A    
C66   C125  A    
C76   H82   S    
Cu4   O5    S    
C68   C99   A    
C50   C136  A    
Cu11  O30   S    
C123  C128  A    
C20   C161  S    
C37   O46   A    
C80   F7    S    
C4    C166  A    
C5    C167  A    
C97   C101  A    
C71   H60   S    
C9    C31   A    
C110  C125  S    
C113  C118  A    
C10   C32   A    
C43   O48   A    
C86   H48   S    
C13   N19   A    
C113  H1    S    
C84   H46   S    
C35   H40   S    
C70   H55   S    
C75   H77   S    
Cu11  O21   S    
Cu9   O37   S    
