data_mof_unit_27394.cif
_audit_creation_date              2012-12-10T17:38:16-0500
_audit_creation_method            fapswitch 2.2
_symmetry_space_group_name_H-M    P1
_symmetry_Int_Tables_number       1
_space_group_crystal_system       triclinic
_cell_length_a                    12.363909
_cell_length_b                    13.364381
_cell_length_c                    19.372571
_cell_angle_alpha                 76.086554
_cell_angle_beta                  101.088587
_cell_angle_gamma                 117.219013
_cell_volume                      2750.45733479

loop_
_atom_site_label
_atom_site_type_symbol
_atom_type_description
_atom_site_fract_x
_atom_site_fract_y
_atom_site_fract_z
_atom_type_partial_charge
C1    C     C_R   0.855366 0.287499 0.505963 0.904900
C2    C     C_R   0.993557 0.490630 0.708403 -0.137202
C3    C     C_R   0.003846 0.499362 0.069310 0.464521
C4    C     C_R   0.002555 0.498209 0.929332 0.438682
C5    C     C_R   0.064859 0.447488 0.198483 -0.266957
C6    C     C_R   0.064242 0.446521 0.271079 0.364548
C7    C     C_R   0.999887 0.498345 0.290940 -0.114184
C8    C     C_R   0.935911 0.549114 0.237131 0.353046
C9    C     C_R   0.938585 0.549088 0.165082 -0.255387
C10   C     C_R   0.002781 0.498851 0.145367 -0.026685
C11   C     C_R   0.287605 0.996038 0.550022 0.317568
C12   C     C_R   0.997523 0.496318 0.632311 0.781680
C13   C     C_R   0.227251 0.833792 0.492907 -0.251470
C14   C     C_R   0.809274 0.132545 0.441877 0.381939
C15   C     C_R   0.718462 0.048806 0.405017 -0.271922
C16   C     C_R   0.596930 0.004279 0.417793 -0.112385
C17   C     C_R   0.562609 0.030167 0.474610 0.070795
C18   C     C_R   0.655620 0.113591 0.513440 -0.039097
C19   C     C_R   0.439103 0.980383 0.492488 0.011111
C20   C     C_R   0.410484 0.029266 0.539847 -0.116970
C21   C     C_R   0.504660 0.102636 0.581717 -0.245425
C22   C     C_R   0.626812 0.139505 0.571992 0.408432
C23   C     C_R   0.145064 0.713005 0.491186 0.860945
C24   C     C_R   0.344416 0.880650 0.468908 0.295782
C25   C     C_R   0.195910 0.895147 0.528612 0.357784
C26   C     C_R   0.775972 0.170806 0.492490 -0.092132
C27   C     C_R   0.342268 0.328352 0.619392 0.313568
C28   C     C_R   0.757580 0.641612 0.400344 0.519035
C29   C     C_R   0.648914 0.652423 0.369811 0.123217
C30   C     C_R   0.539308 0.578836 0.401183 0.437808
C31   C     C_R   0.544090 0.517623 0.471550 -0.070547
C32   C     C_R   0.651759 0.501786 0.496740 0.088712
C33   C     C_R   0.443719 0.465638 0.515716 -0.017218
C34   C     C_R   0.999912 0.499646 0.367462 0.848233
C35   C     C_R   0.445056 0.385048 0.578487 -0.063063
C36   C     C_R   0.550598 0.367306 0.599829 -0.244480
C37   C     C_R   0.649605 0.422397 0.559266 -0.084196
C38   C     C_R   0.346902 0.498543 0.502945 0.596420
C39   C     C_R   0.243009 0.354881 0.597381 0.048693
C40   C     C_R   0.023468 0.411746 0.762151 0.416663
C41   C     C_R   0.029172 0.417383 0.833820 -0.128733
C42   C     C_R   0.999807 0.495928 0.853351 -0.040708
C43   C     C_R   0.965564 0.570531 0.799835 -0.143712
C44   C     C_R   0.962898 0.568103 0.728097 -0.211146
Cu1   Cu    Cu3+1 0.098280 0.475420 0.516260 1.023077
Cu2   Cu    Cu3+1 0.901720 0.524580 0.483740 1.027904
H1    H     H_    0.483430 0.125604 0.625529 0.147553
H2    H     H_    0.939193 0.628640 0.687829 0.190918
N1    N     N_R   0.957816 0.561903 0.948879 -0.226266
N2    N     N_R   0.958352 0.562368 0.017496 -0.229095
N3    N     N_R   0.049182 0.436123 0.049751 -0.229766
N4    N     N_R   0.048403 0.435458 0.981121 -0.231932
N5    N     N_R   0.246290 0.438200 0.540910 -0.285664
N6    N     N_R   0.754310 0.561190 0.459520 -0.233519
O1    O     O_R   0.972510 0.318130 0.520450 -0.542533
O2    O     O_R   0.806530 0.359650 0.492990 -0.611244
O3    O     O_R   0.083010 0.479220 0.613590 -0.576873
O4    O     O_R   0.917030 0.520740 0.586130 -0.594279
O5    O     O_R   0.193470 0.640350 0.507010 -0.571314
O6    O     O_R   0.027490 0.681870 0.479550 -0.476480
O7    O     O_R   0.082970 0.479260 0.413870 -0.555891
O8    O     O_R   0.916990 0.520780 0.386410 -0.505166
O9    O     O_3   0.044743 0.326568 0.747460 -0.700988
H3    H     H_    0.000091 0.306581 0.700886 0.334436
O10   O     O_3   0.255861 0.058007 0.583115 -0.721835
H4    H     H_    0.311687 0.139641 0.569442 0.332056
O11   O     O_3   0.369184 0.821360 0.429826 -0.693211
H5    H     H_    0.295402 0.785034 0.397372 0.314555
O12   O     O_3   0.928478 0.185869 0.424273 -0.682792
H6    H     H_    0.935613 0.149938 0.387181 0.335162
H7    H     H_    0.532718 0.954970 0.379247 0.221903
H8    H     H_    0.740575 0.023840 0.362307 0.154798
O13   O     O_3   0.719337 0.197697 0.620335 -0.775158
H9    H     H_    0.683433 0.203305 0.660014 0.315130
H10   H     H_    0.163419 0.310821 0.627072 0.188588
H11   H     H_    0.561051 0.313200 0.649301 0.139962
O14   O     O_3   0.333532 0.247944 0.680766 -0.682082
H12   H     H_    0.385788 0.210261 0.680519 0.333358
H13   H     H_    0.053240 0.357351 0.874309 0.183421
O15   O     O_3   0.364660 0.602296 0.461065 -0.643820
H14   H     H_    0.286807 0.593327 0.432900 0.379534
O16   O     O_3   0.866321 0.704578 0.369565 -0.655770
H15   H     H_    0.851497 0.739594 0.319788 0.335872
O17   O     O_3   0.427276 0.558418 0.362155 -0.684640
H16   H     H_    0.438863 0.598961 0.312209 0.377078
O18   O     O_3   0.646039 0.731057 0.309359 -0.730719
H17   H     H_    0.720858 0.803150 0.313027 0.326908
H18   H     H_    0.722308 0.398379 0.578298 0.217076
H19   H     H_    0.942235 0.631937 0.813266 0.177906
H20   H     H_    0.114406 0.408037 0.183590 0.165569
O19   O     O_3   0.124358 0.393869 0.323083 -0.666342
H21   H     H_    0.164413 0.362446 0.300160 0.333379
O20   O     O_3   0.872245 0.599371 0.255601 -0.699360
H22   H     H_    0.832842 0.630361 0.211875 0.328432
H23   H     H_    0.889563 0.588268 0.124292 0.167037
O21   O     O_3   0.076855 0.850695 0.545507 -0.693966
H24   H     H_    0.068552 0.900752 0.572342 0.378631

loop_
_geom_bond_atom_site_label_1
_geom_bond_atom_site_label_2
_ccdc_geom_bond_type
C44   H2    S    
O20   H22   S    
O13   H9    S    
C37   H18   S    
C35   C36   A    
C18   C26   A    
C2    C12   S    
C7    C8    A    
O14   H12   S    
C23   O5    A    
C15   H8    S    
Cu1   O3    S    
C43   H19   S    
C40   O9    S    
C4    C42   S    
C4    N4    A    
C5    C6    A    
C28   C29   A    
C1    O2    A    
C30   C31   A    
C11   C25   A    
C6    O19   S    
C34   O8    A    
C13   C23   S    
C41   C42   A    
C36   H11   S    
C24   O11   S    
C17   C19   A    
Cu1   O5    S    
C19   C20   A    
C2    C44   A    
C8    C9    A    
C31   C33   A    
C39   H10   S    
C9    C10   A    
C9    H23   S    
C5    H20   S    
C12   O4    A    
Cu1   N5    S    
C21   C22   A    
Cu2   O4    S    
C13   C25   A    
C16   H7    S    
C32   N6    A    
C3    N2    A    
C23   O6    A    
C11   C20   A    
C15   C16   A    
C28   O16   S    
O11   H5    S    
O17   H16   S    
C27   C39   A    
O19   H21   S    
C3    N3    A    
O18   H17   S    
C16   C17   A    
C27   C35   A    
Cu1   Cu2   S    
O16   H15   S    
C34   O7    A    
N3    N4    A    
C13   C24   A    
C43   C44   A    
C29   C30   A    
C31   C32   A    
O21   H24   S    
Cu2   N6    S    
C17   C18   A    
C32   C37   A    
C14   C26   A    
C29   O18   S    
C12   O3    A    
C40   C41   A    
Cu2   O8    S    
N1    N2    A    
C1    C26   S    
C14   O12   S    
C42   C43   A    
C7    C34   S    
C36   C37   A    
C28   N6    A    
Cu2   O6    S    
C18   C22   A    
C8    O20   S    
O15   H14   S    
C27   O14   S    
C41   H13   S    
C6    C7    A    
C33   C38   A    
C4    N1    A    
C19   C24   A    
C1    O1    A    
C5    C10   A    
C3    C10   S    
C39   N5    A    
C38   N5    A    
C38   O15   S    
Cu1   O7    S    
C33   C35   A    
C30   O17   S    
O12   H6    S    
O9    H3    S    
C2    C40   A    
C20   C21   A    
Cu1   O1    S    
C25   O21   S    
O10   H4    S    
Cu2   O2    S    
C14   C15   A    
C22   O13   S    
C11   O10   S    
C21   H1    S    
