data_mof_unit_39011.cif
_audit_creation_date              2012-12-11T14:13:26-0500
_audit_creation_method            fapswitch 2.2
_symmetry_space_group_name_H-M    P1
_symmetry_Int_Tables_number       1
_space_group_crystal_system       triclinic
_cell_length_a                    17.176157
_cell_length_b                    17.192435
_cell_length_c                    17.344875
_cell_angle_alpha                 90.001952
_cell_angle_beta                  89.932951
_cell_angle_gamma                 89.899944
_cell_volume                      5121.92962149

loop_
_atom_site_label
_atom_site_type_symbol
_atom_type_description
_atom_site_fract_x
_atom_site_fract_y
_atom_site_fract_z
_atom_type_partial_charge
C1    C     C_R   0.606627 0.302835 0.100057 -0.144266
C2    C     C_R   0.196807 0.107459 0.600399 -0.188053
C3    C     C_3   0.054659 0.142007 0.169795 -0.883659
C4    C     C_3   0.610238 0.872299 0.307371 0.272738
C5    C     C_3   0.589868 0.956568 0.324923 -0.951129
C6    C     C_3   0.034226 0.855549 0.162672 0.262416
C7    C     C_3   0.945967 0.858860 0.169224 -0.886366
C8    C     C_3   0.145694 0.966510 0.837173 0.256987
C9    C     C_3   0.143482 0.054734 0.830988 -0.871797
C10   C     C_3   0.872185 0.610063 0.692023 0.271364
C11   C     C_3   0.956553 0.589715 0.674451 -0.948483
C12   C     C_3   0.836672 0.055085 0.890893 0.295878
C13   C     C_R   0.913331 0.178319 0.636113 -0.181621
C14   C     C_3   0.883036 0.979746 0.895185 -0.935274
C15   C     C_3   0.127831 0.384547 0.713620 0.301789
C16   C     C_3   0.039443 0.388898 0.714158 -0.974382
C17   C     C_R   0.802825 0.893094 0.599889 -0.156996
C18   C     C_R   0.107524 0.196804 0.399728 -0.187749
C19   C     C_R   0.176718 0.915574 0.362308 -0.183130
C20   C     C_R   0.893139 0.802954 0.400001 -0.179082
C21   C     C_R   0.823548 0.084218 0.362123 -0.184581
C22   C     C_R   0.583929 0.676179 0.138040 -0.079124
C23   C     C_R   0.302658 0.605814 0.100549 -0.111792
C24   C     C_R   0.416994 0.325427 0.139426 -0.082144
C25   C     C_R   0.677695 0.585219 0.136780 -0.181174
C26   C     C_R   0.697345 0.394244 0.100489 -0.114776
C27   C     C_R   0.606405 0.302709 0.900247 -0.105327
C28   C     C_R   0.325378 0.416973 0.860641 -0.080904
C29   C     C_R   0.394385 0.697199 0.899186 -0.110653
C30   C     C_R   0.676186 0.583895 0.861852 -0.079079
C31   C     C_R   0.104365 0.197437 0.600299 -0.098066
C32   C     C_R   0.822885 0.084319 0.637282 -0.076597
C33   C     C_R   0.894567 0.802512 0.599472 -0.110746
C34   C     C_R   0.175412 0.916690 0.638771 -0.073044
C35   C     C_R   0.083493 0.824464 0.361312 -0.072406
C36   C     C_R   0.393452 0.697154 0.100188 -0.160556
C37   C     C_R   0.802507 0.894660 0.400356 -0.117675
C38   C     C_R   0.916634 0.175489 0.361240 -0.075429
C39   C     C_R   0.197590 0.104506 0.399971 -0.105809
C40   C     C_R   0.684593 0.315954 0.113181 0.239332
C41   C     C_R   0.648103 0.647783 0.177302 0.257577
C42   C     C_R   0.315499 0.684038 0.113380 0.249688
C43   C     C_R   0.353629 0.355187 0.179451 0.252248
C44   C     C_R   0.647785 0.648025 0.822556 0.258502
C45   C     C_R   0.684669 0.315992 0.887319 0.222336
C46   C     C_R   0.355152 0.353618 0.820681 0.254568
C47   C     C_R   0.323513 0.416590 0.137988 -0.181243
C48   C     C_R   0.316132 0.684394 0.886245 0.249261
C49   C     C_R   0.146261 0.853290 0.678817 0.211206
C50   C     C_R   0.182351 0.185423 0.614208 0.219532
C51   C     C_R   0.850204 0.148879 0.676064 0.258588
C52   C     C_R   0.816355 0.815024 0.612641 0.212407
C53   C     C_R   0.185594 0.182441 0.386112 0.221669
C54   C     C_R   0.147071 0.853447 0.321360 0.211551
C55   C     C_R   0.815078 0.816542 0.387067 0.215916
C56   C     C_R   0.853172 0.146450 0.321194 0.214366
C57   C     C_2   0.710102 0.644172 0.696169 0.400258
C58   C     C_R   0.585238 0.677647 0.863157 -0.183799
C59   C     C_2   0.265848 0.817209 0.857852 0.477446
C60   C     C_2   0.288916 0.357415 0.696455 0.395330
C61   C     C_2   0.735353 0.184608 0.857124 0.407538
C62   C     C_2   0.817493 0.265494 0.141369 0.463186
C63   C     C_2   0.357611 0.289154 0.303826 0.395126
C64   C     C_2   0.182641 0.734638 0.141553 0.478829
C65   C     C_2   0.644245 0.710271 0.303495 0.400263
C66   C     C_2   0.317187 0.227455 0.348545 0.393985
C67   C     C_2   0.858266 0.213348 0.195701 0.468370
C68   C     C_2   0.683410 0.769056 0.353041 0.387194
C69   C     C_R   0.697369 0.393877 0.899918 -0.169126
C70   C     C_2   0.141952 0.786832 0.195897 0.466637
C71   C     C_2   0.213477 0.858166 0.803968 0.466224
C72   C     C_2   0.768880 0.683330 0.646449 0.390506
C73   C     C_2   0.792046 0.146242 0.804211 0.393814
C74   C     C_2   0.227231 0.316897 0.651882 0.396213
C75   C     C_2   0.684505 0.684766 0.757360 -0.409976
C76   C     C_2   0.254176 0.740938 0.872010 -0.522766
C77   C     C_2   0.320234 0.316726 0.754695 -0.404236
C78   C     C_2   0.747000 0.260349 0.871991 -0.403985
C79   C     C_2   0.741184 0.253852 0.127007 -0.473976
C80   C     C_R   0.416625 0.323542 0.862095 -0.183419
C81   C     C_2   0.316795 0.320335 0.245593 -0.398568
C82   C     C_2   0.259010 0.746115 0.127387 -0.524674
C83   C     C_2   0.684901 0.684553 0.242358 -0.408511
C84   C     C_2   0.244292 0.242596 0.373241 -0.368565
C85   C     C_2   0.817361 0.179641 0.253240 -0.455297
C86   C     C_2   0.757883 0.755332 0.372964 -0.353491
C87   C     C_2   0.182897 0.820246 0.253469 -0.455612
C88   C     C_2   0.179401 0.817442 0.746644 -0.454301
C89   C     C_2   0.755089 0.757759 0.626513 -0.358948
C90   C     C_2   0.811585 0.185605 0.740083 -0.413540
C91   C     C_R   0.302863 0.606541 0.899669 -0.161970
C92   C     C_2   0.242487 0.244068 0.627291 -0.369277
C93   C     C_3   0.684977 0.543034 0.612356 0.291523
C94   C     C_3   0.646227 0.463628 0.608779 -0.903302
C95   C     C_3   0.326017 0.878922 0.956470 0.278383
C96   C     C_3   0.399935 0.920629 0.981115 -0.924740
C97   C     C_3   0.299960 0.462709 0.614824 0.278603
C98   C     C_3   0.331819 0.545117 0.611031 -0.888876
C99   C     C_3   0.636651 0.096209 0.831594 0.263880
C100  C     C_3   0.556144 0.071931 0.859195 -0.935459
C101  C     C_3   0.879111 0.325226 0.042249 0.280332
C102  C     C_R   0.084111 0.823606 0.637905 -0.177736
C103  C     C_3   0.920232 0.399217 0.016828 -0.914701
C104  C     C_3   0.463030 0.300303 0.385285 0.279144
C105  C     C_3   0.545455 0.332288 0.388950 -0.892689
C106  C     C_3   0.121641 0.674843 0.042245 0.271924
C107  C     C_3   0.080418 0.600946 0.016813 -0.909924
C108  C     C_3   0.543048 0.685196 0.387494 0.286641
C109  C     C_3   0.463677 0.646268 0.391265 -0.892063
C110  C     C_3   0.384995 0.128295 0.286714 0.302047
C111  C     C_3   0.389582 0.040006 0.286216 -0.977301
C112  C     C_3   0.966447 0.145050 0.162747 0.261103
H1    H     H_    0.579560 0.246375 0.094085 0.100624
H2    H     H_    0.253759 0.081126 0.594545 0.113991
H3    H     H_    0.648909 0.871470 0.255663 0.083146
H4    H     H_    0.643486 0.990331 0.336770 0.246305
H5    H     H_    0.559885 0.982891 0.274614 0.220809
H6    H     H_    0.550917 0.959643 0.375978 0.266279
H7    H     H_    0.050369 0.857149 0.100465 0.053578
H8    H     H_    0.058223 0.908004 0.191978 0.095047
H9    H     H_    0.928387 0.858448 0.230884 0.259324
H10   H     H_    0.923921 0.913019 0.141935 0.196533
H11   H     H_    0.919710 0.807954 0.139693 0.256798
H12   H     H_    0.143733 0.950219 0.899311 0.054318
H13   H     H_    0.946339 0.230060 0.648954 0.109068
H14   H     H_    0.092988 0.943257 0.807705 0.100096
H15   H     H_    0.144272 0.072480 0.769406 0.259697
H16   H     H_    0.089476 0.077339 0.858295 0.206079
H17   H     H_    0.194683 0.080245 0.860694 0.252915
H18   H     H_    0.840978 0.555006 0.704951 0.136260
H19   H     H_    0.871305 0.648529 0.743809 0.082192
H20   H     H_    0.990388 0.643297 0.662665 0.246375
H21   H     H_    0.982828 0.559623 0.724728 0.219450
H22   H     H_    0.959680 0.550905 0.623358 0.267470
H23   H     H_    0.783503 0.048421 0.926908 0.118569
H24   H     H_    0.746175 0.920070 0.594116 0.102629
H25   H     H_    0.873643 0.102574 0.914905 0.063894
H26   H     H_    0.937090 0.984876 0.860312 0.257962
H27   H     H_    0.899097 0.967438 0.955992 0.204021
H28   H     H_    0.847641 0.930717 0.872740 0.260640
H29   H     H_    0.151048 0.444756 0.716865 0.132044
H30   H     H_    0.145978 0.351251 0.765839 0.082408
H31   H     H_    0.014735 0.329381 0.716182 0.251426
H32   H     H_    0.019314 0.421353 0.765840 0.217459
H33   H     H_    0.018307 0.418924 0.661509 0.271472
H34   H     H_    0.081131 0.253678 0.405627 0.115904
H35   H     H_    0.227180 0.950130 0.348402 0.110254
H36   H     H_    0.920126 0.746344 0.405721 0.117282
H37   H     H_    0.773391 0.049304 0.347865 0.105570
H38   H     H_    0.549189 0.726764 0.152013 0.109629
H39   H     H_    0.247391 0.576789 0.095333 0.149401
H40   H     H_    0.451901 0.275151 0.153959 0.112976
H41   H     H_    0.729006 0.551295 0.150019 0.119200
H42   H     H_    0.752578 0.423375 0.095310 0.150182
H43   H     H_    0.577809 0.247342 0.906207 0.154457
H44   H     H_    0.275041 0.451834 0.846133 0.113883
H45   H     H_    0.423573 0.752356 0.904261 0.148768
H46   H     H_    0.726782 0.549165 0.847804 0.109379
H47   H     H_    0.074990 0.252170 0.591733 0.166059
H48   H     H_    0.772233 0.049663 0.650902 0.104782
H49   H     H_    0.923659 0.747579 0.591652 0.162829
H50   H     H_    0.225531 0.951816 0.652874 0.143668
H51   H     H_    0.048398 0.774353 0.347189 0.144298
H52   H     H_    0.420550 0.753612 0.094211 0.096443
H53   H     H_    0.747495 0.923711 0.408072 0.163814
H54   H     H_    0.951785 0.225587 0.347108 0.145125
H55   H     H_    0.252394 0.075265 0.408772 0.167393
H56   H     H_    0.696392 0.746497 0.763641 0.119642
H57   H     H_    0.196852 0.716094 0.862635 0.120346
H58   H     H_    0.312581 0.254150 0.759296 0.123273
H59   H     H_    0.803133 0.286138 0.858132 0.107224
H60   H     H_    0.716297 0.196580 0.136422 0.125302
H61   H     H_    0.254173 0.312568 0.241110 0.124392
H62   H     H_    0.284001 0.803309 0.136978 0.121192
H63   H     H_    0.272688 0.451136 0.151564 0.119346
H64   H     H_    0.746691 0.696427 0.235972 0.124548
H65   H     H_    0.222595 0.302049 0.371214 0.115125
H66   H     H_    0.754256 0.179993 0.254321 0.137789
H67   H     H_    0.781911 0.697320 0.364746 0.115799
H68   H     H_    0.245993 0.819585 0.254680 0.142752
H69   H     H_    0.179574 0.754405 0.745458 0.140498
H70   H     H_    0.696987 0.781692 0.634737 0.112009
H71   H     H_    0.794207 0.245749 0.731277 0.125961
H72   H     H_    0.302006 0.222429 0.629374 0.112531
H73   H     H_    0.742977 0.538353 0.584214 0.129913
H74   H     H_    0.551333 0.728943 0.849911 0.116446
H75   H     H_    0.647839 0.584979 0.579801 0.074378
H76   H     H_    0.587663 0.466396 0.635897 0.265051
H77   H     H_    0.639779 0.445234 0.547738 0.210029
H78   H     H_    0.682255 0.419967 0.639748 0.256367
H79   H     H_    0.317462 0.828154 0.995346 0.088000
H80   H     H_    0.276178 0.919966 0.963139 0.091379
H81   H     H_    0.409873 0.972240 0.943882 0.274018
H82   H     H_    0.394326 0.940058 0.041937 0.206363
H83   H     H_    0.450680 0.880783 0.976354 0.243277
H84   H     H_    0.239548 0.463493 0.591873 0.126312
H85   H     H_    0.753717 0.421344 0.905533 0.097277
H86   H     H_    0.337318 0.424969 0.577706 0.076731
H87   H     H_    0.392568 0.546294 0.632901 0.262525
H88   H     H_    0.331386 0.565962 0.550427 0.209416
H89   H     H_    0.295312 0.584638 0.646655 0.257610
H90   H     H_    0.672237 0.042598 0.825016 0.138918
H91   H     H_    0.630084 0.125452 0.774571 0.086920
H92   H     H_    0.517637 0.123625 0.864252 0.245841
H93   H     H_    0.530016 0.030680 0.817334 0.229301
H94   H     H_    0.560432 0.042939 0.916273 0.263387
H95   H     H_    0.828217 0.316135 0.003670 0.092836
H96   H     H_    0.451273 0.272791 0.848563 0.106537
H97   H     H_    0.920477 0.275654 0.035706 0.093572
H98   H     H_    0.971986 0.409778 0.053682 0.274371
H99   H     H_    0.939459 0.393359 0.955943 0.205836
H100  H     H_    0.880005 0.449659 0.021397 0.242698
H101  H     H_    0.463947 0.239920 0.408224 0.124296
H102  H     H_    0.425201 0.337502 0.422472 0.077249
H103  H     H_    0.546503 0.393013 0.367094 0.263618
H104  H     H_    0.566352 0.331812 0.449519 0.207818
H105  H     H_    0.585067 0.295944 0.353252 0.257326
H106  H     H_    0.172926 0.683570 0.003984 0.088664
H107  H     H_    0.246309 0.579530 0.905561 0.096499
H108  H     H_    0.080563 0.724577 0.035279 0.091670
H109  H     H_    0.028251 0.590789 0.053322 0.273764
H110  H     H_    0.061829 0.606642 0.955768 0.203563
H111  H     H_    0.120344 0.550327 0.021876 0.242708
H112  H     H_    0.538212 0.743167 0.415500 0.130024
H113  H     H_    0.585130 0.648247 0.420094 0.074647
H114  H     H_    0.466608 0.587731 0.364285 0.264462
H115  H     H_    0.445291 0.639855 0.452344 0.208587
H116  H     H_    0.419873 0.682099 0.360263 0.259097
H117  H     H_    0.445201 0.151642 0.283373 0.132089
H118  H     H_    0.049194 0.773446 0.652173 0.104227
H119  H     H_    0.351598 0.146373 0.234540 0.081636
H120  H     H_    0.330089 0.015159 0.284229 0.249609
H121  H     H_    0.422137 0.020016 0.234520 0.217636
H122  H     H_    0.419651 0.018938 0.338862 0.271918
H123  H     H_    0.950782 0.143339 0.100460 0.057769
H124  H     H_    0.942391 0.092539 0.191958 0.095487
H125  H     H_    0.071740 0.142591 0.231548 0.259856
H126  H     H_    0.077082 0.087853 0.142750 0.196749
H127  H     H_    0.081010 0.192931 0.140317 0.256849
H128  H     H_    0.555161 0.841154 0.294328 0.136401
N1    N     N_R   0.574080 0.369570 0.076720 -0.042898
N2    N     N_R   0.130430 0.074080 0.576720 -0.044576
N3    N     N_R   0.925920 0.130430 0.576720 -0.047444
N4    N     N_R   0.869570 0.925920 0.576720 -0.040646
N5    N     N_R   0.074080 0.130430 0.423280 -0.045927
N6    N     N_R   0.130430 0.925920 0.423280 -0.045225
N7    N     N_R   0.925920 0.869570 0.423280 -0.046415
N8    N     N_R   0.869570 0.074080 0.423280 -0.045982
N9    N     N_R   0.574050 0.630410 0.076720 -0.057350
N10   N     N_R   0.369590 0.574050 0.076720 -0.052488
N11   N     N_R   0.425950 0.369590 0.076720 -0.057614
N12   N     N_R   0.630430 0.574080 0.076720 -0.049084
N13   N     N_R   0.630410 0.425950 0.076720 -0.052095
N14   N     N_R   0.574050 0.369590 0.923280 -0.052112
N15   N     N_R   0.369590 0.425950 0.923280 -0.057752
N16   N     N_R   0.425950 0.630410 0.923280 -0.052314
N17   N     N_R   0.630410 0.574050 0.923280 -0.057167
N18   N     N_R   0.074050 0.130410 0.576720 -0.055069
N19   N     N_R   0.869590 0.074050 0.576720 -0.056329
N20   N     N_R   0.925950 0.869590 0.576720 -0.053522
N21   N     N_R   0.130410 0.925950 0.576720 -0.058376
N22   N     N_R   0.074050 0.869590 0.423280 -0.059127
N23   N     N_R   0.425920 0.630430 0.076720 -0.040790
N24   N     N_R   0.869590 0.925950 0.423280 -0.055433
N25   N     N_R   0.925950 0.130410 0.423280 -0.059302
N26   N     N_R   0.130410 0.074050 0.423280 -0.056865
N27   N     N_R   0.369570 0.425920 0.076720 -0.048922
N28   N     N_R   0.574080 0.630430 0.923280 -0.048706
N29   N     N_R   0.630430 0.425920 0.923280 -0.038726
N30   N     N_R   0.425920 0.369570 0.923280 -0.048046
N31   N     N_R   0.369570 0.574080 0.923280 -0.040988
N32   N     N_R   0.074080 0.869570 0.576720 -0.044947
Ni1   Ni    Ni4+2 0.500000 0.370760 0.000000 0.215435
Ni2   Ni    Ni4+2 0.629240 0.500000 0.000000 0.211632
Ni3   Ni    Ni4+2 0.500000 0.629240 0.000000 0.209672
Ni4   Ni    Ni4+2 0.370760 0.500000 0.000000 0.209990
Ni5   Ni    Ni4+2 0.000000 0.870760 0.500000 0.212803
Ni6   Ni    Ni4+2 0.129240 0.000000 0.500000 0.210106
Ni7   Ni    Ni4+2 1.000000 0.129240 0.500000 0.210321
Ni8   Ni    Ni4+2 0.870760 0.000000 0.500000 0.211510
O1    O     O_3   0.693139 0.565206 0.690334 -0.629136
O2    O     O_3   0.938880 0.214328 0.196987 -0.603040
O3    O     O_3   0.647391 0.839018 0.372223 -0.640948
O4    O     O_3   0.061329 0.786241 0.197134 -0.603162
O5    O     O_3   0.214801 0.938701 0.802648 -0.605463
O6    O     O_3   0.838962 0.647415 0.627243 -0.640358
O7    O     O_3   0.816303 0.069511 0.813309 -0.627952
O8    O     O_3   0.152887 0.348504 0.644524 -0.647138
O9    O     O_3   0.333707 0.854654 0.879093 -0.601834
O10   O     O_3   0.300469 0.437442 0.692287 -0.630807
O11   O     O_3   0.670291 0.146533 0.886696 -0.640995
O12   O     O_3   0.855125 0.333136 0.119732 -0.601211
O13   O     O_3   0.437692 0.300864 0.307863 -0.630524
O14   O     O_3   0.144897 0.667094 0.119898 -0.598991
O15   O     O_3   0.565208 0.693322 0.309469 -0.628303
O16   O     O_3   0.348872 0.153189 0.355844 -0.647278

loop_
_geom_bond_atom_site_label_1
_geom_bond_atom_site_label_2
_ccdc_geom_bond_type
N3    N19   A    
C106  H108  S    
C24   N11   A    
C22   H38   S    
N32   Ni5   S    
C105  H103  S    
N11   N27   A    
C58   H74   S    
C30   N17   A    
C68   C86   D    
C48   C76   S    
C98   H89   S    
C36   C42   A    
C95   C96   S    
C42   C82   S    
C28   N15   A    
C63   O13   S    
C11   H20   S    
C4    O3    S    
C93   O1    S    
C97   C98   S    
C109  H115  S    
C39   N26   A    
C94   H78   S    
C39   C53   A    
N26   Ni6   S    
C33   C52   A    
C28   C46   A    
N17   Ni2   S    
C93   C94   S    
C23   C42   A    
C102  N32   A    
N29   Ni2   S    
C63   C81   D    
C53   C84   S    
C103  H99   S    
C97   H84   S    
C16   H32   S    
C38   N25   A    
C94   H76   S    
C73   C90   D    
C23   N10   A    
C91   N31   A    
N13   Ni2   S    
C67   O2    S    
C51   C90   S    
C54   C87   S    
C108  H112  S    
C25   N12   A    
C70   O4    S    
C65   C83   D    
C22   C41   A    
C62   C67   S    
C106  C107  S    
N1    Ni1   S    
C15   C16   S    
C41   C83   S    
N4    Ni8   S    
C111  H122  S    
C108  C109  S    
C17   C52   A    
C30   H46   S    
C97   O10   S    
C29   N16   A    
C74   C92   D    
N6    Ni6   S    
C10   O6    S    
C110  C111  S    
C57   C75   D    
N21   N32   A    
C78   H59   S    
C2    C50   A    
C1    C40   A    
N24   Ni8   S    
C87   H68   S    
C15   H29   S    
C57   O1    S    
C108  O15   S    
C96   H83   S    
C82   H62   S    
N21   Ni6   S    
N5    N26   A    
C17   N4    A    
C44   C58   A    
C8    C9    S    
N9    N12   A    
C48   C91   A    
N4    N20   A    
C20   H36   S    
N16   Ni3   S    
C45   C78   S    
N10   Ni4   S    
C101  H95   S    
C61   C78   D    
N7    N24   A    
C18   C53   A    
C91   H107  S    
C95   H79   S    
C68   O3    S    
C13   H13   S    
C27   C45   A    
C96   H82   S    
C63   C66   S    
C101  C103  S    
C105  H104  S    
C13   C51   A    
C83   H64   S    
C35   C54   A    
C69   H85   S    
C111  H120  S    
N2    N18   A    
N30   Ni1   S    
C30   C44   A    
C52   C89   S    
C76   H57   S    
N17   N28   A    
C1    H1    S    
C7    H11   S    
C7    H9    S    
C20   C55   A    
C99   O11   S    
C70   C87   D    
C106  O14   S    
C103  H98   S    
C6    H8    S    
C104  C105  S    
C109  H116  S    
C24   H40   S    
C66   O16   S    
C21   N8    A    
C107  H111  S    
C110  H119  S    
C20   N7    A    
C27   H43   S    
N31   Ni4   S    
C60   C77   D    
N16   N31   A    
C6    O4    S    
N27   Ni4   S    
C67   C85   D    
C9    H16   S    
N8    Ni8   S    
C29   C48   A    
C45   C69   A    
C58   N28   A    
C36   N23   A    
C14   H26   S    
C62   C79   D    
C2    H2    S    
C16   H31   S    
C72   O6    S    
C22   N9    A    
C92   H72   S    
C11   H22   S    
C25   C41   A    
C49   C102  A    
C100  H94   S    
C77   H58   S    
C29   H45   S    
N8    N25   A    
N14   Ni1   S    
C104  O13   S    
C112  H124  S    
N22   Ni5   S    
C110  O16   S    
C12   H23   S    
C35   H51   S    
C71   C88   D    
C5    H5    S    
C16   H33   S    
C66   C84   D    
C81   H61   S    
C79   H60   S    
N7    Ni5   S    
C44   C75   S    
C33   H49   S    
C64   C70   S    
C10   H18   S    
C32   C51   A    
C10   H19   S    
C110  H117  S    
C21   C56   A    
C15   H30   S    
C65   O15   S    
C99   C100  S    
C74   O8    S    
C3    C112  S    
C109  H114  S    
C65   C68   S    
N19   Ni8   S    
C17   H24   S    
N9    Ni3   S    
C4    H128  S    
C40   C79   S    
C15   O8    S    
N5    Ni7   S    
C112  O2    S    
C14   H27   S    
C2    N2    A    
C64   C82   D    
C75   H56   S    
C1    N1    A    
C95   H80   S    
C3    H125  S    
C8    O5    S    
C98   H87   S    
C19   C54   A    
C50   C92   S    
C96   H81   S    
C106  H106  S    
C12   C14   S    
N23   Ni3   S    
C5    H4    S    
C43   C81   S    
C26   H42   S    
N1    N13   A    
N2    Ni6   S    
C7    H10   S    
N3    Ni7   S    
C93   H75   S    
C6    H7    S    
C35   N22   A    
C102  H118  S    
C47   N27   A    
C38   H54   S    
C23   H39   S    
C28   H44   S    
C34   C49   A    
C19   H35   S    
C34   N21   A    
C80   H96   S    
C4    H3    S    
C3    H127  S    
C97   H86   S    
C32   N19   A    
N25   Ni7   S    
N11   Ni1   S    
C14   H28   S    
C4    C5    S    
C34   H50   S    
C26   N13   A    
N6    N22   A    
C103  H100  S    
C104  H101  S    
C46   C77   S    
C37   H53   S    
C100  H93   S    
C108  H113  S    
C9    H15   S    
C6    C7    S    
C59   O9    S    
C64   O14   S    
C9    H17   S    
C112  H123  S    
C49   C88   S    
C5    H6    S    
N14   N29   A    
C105  H105  S    
C98   H88   S    
N15   Ni4   S    
C101  H97   S    
C89   H70   S    
C107  H110  S    
C55   C86   S    
C11   H21   S    
C85   H66   S    
C94   H77   S    
C104  H102  S    
C61   C73   S    
C99   H90   S    
C25   H41   S    
C61   O11   S    
C60   O10   S    
C46   C80   A    
N20   Ni5   S    
C100  H92   S    
C18   N5    A    
C26   C40   A    
C56   C85   S    
C13   N3    A    
C43   C47   A    
C71   O5    S    
N28   Ni3   S    
C60   C74   S    
C86   H67   S    
C111  H121  S    
C8    H12   S    
C31   N18   A    
C80   N30   A    
C95   O9    S    
C57   C72   S    
C39   H55   S    
C84   H65   S    
C27   N14   A    
C62   O12   S    
N10   N23   A    
C37   N24   A    
C21   H37   S    
C10   C11   S    
C3    H126  S    
C69   N29   A    
C73   O7    S    
C37   C55   A    
C47   H63   S    
C12   O7    S    
C38   C56   A    
C90   H71   S    
C18   H34   S    
C33   N20   A    
C99   H91   S    
N18   Ni7   S    
C36   H52   S    
C24   C43   A    
C88   H69   S    
C12   H25   S    
C72   C89   D    
C31   C50   A    
C32   H48   S    
N12   Ni2   S    
C59   C76   D    
C101  O12   S    
C31   H47   S    
C8    H14   S    
C19   N6    A    
C59   C71   S    
C107  H109  S    
N15   N30   A    
C93   H73   S    
