data_mof_unit_26027.cif
_audit_creation_date              2012-12-11T14:13:29-0500
_audit_creation_method            fapswitch 2.2
_symmetry_space_group_name_H-M    P1
_symmetry_Int_Tables_number       1
_space_group_crystal_system       triclinic
_cell_length_a                    11.618901
_cell_length_b                    18.611137
_cell_length_c                    9.946505
_cell_angle_alpha                 89.99996
_cell_angle_beta                  110.79112
_cell_angle_gamma                 90.0
_cell_volume                      2010.78046551

loop_
_atom_site_label
_atom_site_type_symbol
_atom_type_description
_atom_site_fract_x
_atom_site_fract_y
_atom_site_fract_z
_atom_type_partial_charge
C1    C     C_R   0.071667 0.646956 0.139738 0.577377
C2    C     C_2   0.590589 0.077410 0.081992 -0.063161
C3    C     C_2   0.590513 0.422626 0.081657 -0.085426
C4    C     C_2   0.409411 0.577410 0.918008 -0.063152
C5    C     C_2   0.487815 0.964083 0.018111 -0.095276
C6    C     C_2   0.511632 0.036082 0.982566 -0.070262
C7    C     C_2   0.512186 0.464083 0.981888 -0.095323
C8    C     C_2   0.488370 0.536083 0.017433 -0.070270
C9    C     C_2   0.001571 0.919163 0.108006 0.206549
C10   C     C_2   0.999710 0.081219 0.891885 0.204974
C11   C     C_2   0.998428 0.419164 0.891994 0.206603
C12   C     C_R   0.928260 0.353057 0.860295 0.562783
C13   C     C_2   0.000290 0.581220 0.108117 0.204989
C14   C     C_2   0.035827 0.967528 0.029244 -0.144577
C15   C     C_2   0.967607 0.033132 0.973059 -0.136697
C16   C     C_2   0.964180 0.467526 0.970768 -0.144552
C17   C     C_2   0.032399 0.533130 0.026952 -0.136667
C18   C     C_R   0.468814 0.646762 0.442623 0.525130
C19   C     C_R   0.531105 0.353166 0.557230 0.518165
C20   C     C_R   0.531186 0.146762 0.557377 0.525130
C21   C     C_R   0.468895 0.853166 0.442770 0.518166
C22   C     C_R   0.376746 0.645711 0.962637 0.547983
C23   C     C_R   0.928333 0.146956 0.860262 0.577372
C24   C     C_R   0.623234 0.354286 0.037325 0.538308
C25   C     C_R   0.623254 0.145711 0.037363 0.547979
C26   C     C_R   0.376765 0.854286 0.962675 0.538318
C27   C     C_R   0.507927 0.424910 0.490089 -0.033282
C28   C     C_R   0.491762 0.574881 0.509259 -0.033585
C29   C     C_R   0.492073 0.924910 0.509911 -0.033282
C30   C     C_R   0.508238 0.074881 0.490740 -0.033590
C31   C     C_R   0.284764 0.415080 0.432282 -0.071327
C32   C     C_R   0.714976 0.584595 0.566816 -0.079925
C33   C     C_R   0.715236 0.915080 0.567718 -0.071353
C34   C     C_R   0.071740 0.853056 0.139704 0.562799
C35   C     C_R   0.285024 0.084595 0.433182 -0.079935
C36   C     C_R   0.174918 0.444804 0.432556 -0.057265
C37   C     C_R   0.824596 0.554878 0.565778 -0.058624
C38   C     C_R   0.825081 0.944804 0.567443 -0.057273
C39   C     C_R   0.175403 0.054878 0.434217 -0.058629
C40   C     C_R   0.172861 0.515494 0.476183 -0.042398
C41   C     C_R   0.826370 0.484271 0.521502 -0.042222
C42   C     C_R   0.827138 0.015494 0.523816 -0.042393
C43   C     C_R   0.173629 0.984271 0.478494 -0.042225
C44   C     C_R   0.278557 0.557712 0.511154 -0.081511
C45   C     C_R   0.393657 0.456697 0.471851 0.011769
C46   C     C_R   0.720737 0.442047 0.487191 -0.081841
C47   C     C_R   0.721443 0.057712 0.488846 -0.081509
C48   C     C_R   0.279262 0.942047 0.512806 -0.081838
C49   C     C_R   0.388299 0.530679 0.498068 -0.007180
C50   C     C_R   0.611256 0.469099 0.500914 -0.009123
C51   C     C_R   0.611700 0.030679 0.501932 -0.007178
C52   C     C_R   0.388744 0.969099 0.499085 -0.009121
C53   C     C_R   0.606007 0.543054 0.527343 0.001730
C54   C     C_R   0.606342 0.956697 0.528149 0.011766
C55   C     C_R   0.393993 0.043054 0.472657 0.001729
C56   C     C_2   0.409487 0.922626 0.918342 -0.085393
Cr1   Cr    Cr6+3 0.187610 0.750000 0.979860 1.043575
Cr2   Cr    Cr6+3 0.812390 0.250000 0.020140 1.043567
Cr3   Cr    Cr6+3 0.245810 0.750000 0.341640 1.038744
Cr4   Cr    Cr6+3 0.754190 0.250000 0.658360 1.038746
Cr5   Cr    Cr6+3 0.485760 0.750000 0.219910 1.104458
Cr6   Cr    Cr6+3 0.514240 0.250000 0.780090 1.104427
H1    H     H_    0.092398 0.412309 0.403405 0.155388
H2    H     H_    0.715317 0.640340 0.598293 0.128159
H3    H     H_    0.715371 0.859292 0.598851 0.121973
H4    H     H_    0.284683 0.140340 0.401705 0.128151
H5    H     H_    0.273743 0.610607 0.553479 0.148385
H6    H     H_    0.725296 0.389129 0.444791 0.148897
H7    H     H_    0.726257 0.110607 0.446520 0.148382
H8    H     H_    0.274702 0.889129 0.555207 0.148897
H9    H     H_    0.466995 0.054568 0.872289 0.190302
H10   H     H_    0.532066 0.945663 0.128495 0.184860
H11   H     H_    0.533007 0.554568 0.127710 0.190303
H12   H     H_    0.907119 0.587357 0.594718 0.159004
H13   H     H_    0.467936 0.445663 0.871503 0.184859
H14   H     H_    0.640440 0.057330 0.189426 0.137309
H15   H     H_    0.360277 0.942580 0.810685 0.143090
H16   H     H_    0.359559 0.557330 0.810574 0.137313
H17   H     H_    0.639722 0.442580 0.189316 0.143095
H18   H     H_    0.886148 0.043816 0.999250 0.203970
H19   H     H_    0.118375 0.956988 0.005493 0.164373
H20   H     H_    0.113863 0.543812 0.000769 0.203971
H21   H     H_    0.881638 0.456983 0.994530 0.164364
H22   H     H_    0.258431 0.053202 0.047096 0.321098
H23   H     H_    0.907601 0.912309 0.596593 0.155386
H24   H     H_    0.745689 0.882120 0.963864 0.339882
H25   H     H_    0.741547 0.553175 0.952913 0.321110
H26   H     H_    0.254380 0.382074 0.035997 0.339930
H27   H     H_    0.092879 0.087357 0.405275 0.158998
H28   H     H_    0.089215 0.537813 0.483280 0.181022
H29   H     H_    0.909748 0.461992 0.513545 0.178914
H30   H     H_    0.910784 0.037812 0.516717 0.181025
H31   H     H_    0.090250 0.961992 0.486449 0.178905
H32   H     H_    0.284629 0.359292 0.401149 0.121979
O1    O     O_R   0.267710 0.668200 0.902110 -0.507191
O2    O     O_R   0.883280 0.330790 0.732340 -0.485111
O3    O     O_R   0.883280 0.169210 0.732340 -0.482239
O4    O     O_R   0.116720 0.830790 0.267660 -0.485117
O5    O     O_R   0.366710 0.675440 0.427590 -0.523408
O6    O     O_R   0.633290 0.324560 0.572410 -0.523660
O7    O     O_R   0.633290 0.175440 0.572410 -0.523407
O8    O     O_R   0.366710 0.824560 0.427590 -0.523661
O9    O     O_R   0.534870 0.669390 0.371760 -0.493179
O10   O     O_R   0.465130 0.330610 0.628240 -0.496384
O11   O     O_R   0.465130 0.169390 0.628240 -0.493176
O12   O     O_R   0.732290 0.331800 0.097890 -0.505209
O13   O     O_R   0.534870 0.830610 0.371760 -0.496379
O14   O     O_R   0.453080 0.674480 0.075160 -0.479004
O15   O     O_R   0.546920 0.325520 0.924840 -0.484720
O16   O     O_R   0.546920 0.174480 0.924840 -0.479008
O17   O     O_R   0.453080 0.825520 0.075160 -0.484700
O18   O     O_3   0.306390 0.750000 0.180470 -0.268089
O19   O     O_3   0.693610 0.250000 0.819530 -0.268080
O20   O     O_2   0.129324 0.997386 0.775232 -0.354251
O21   O     O_2   0.115451 0.125356 0.715929 -0.244315
O22   O     O_3   0.257491 0.087846 0.971225 -0.517464
O23   O     O_R   0.732290 0.168200 0.097890 -0.507194
O24   O     O_2   0.864846 0.867993 0.256655 -0.262384
O25   O     O_2   0.879166 0.998689 0.237698 -0.331599
O26   O     O_3   0.743952 0.928635 0.011494 -0.538517
O27   O     O_2   0.870665 0.497394 0.224768 -0.354274
O28   O     O_2   0.884530 0.625367 0.284046 -0.244297
O29   O     O_3   0.742508 0.587846 0.028749 -0.517459
O30   O     O_2   0.135120 0.368010 0.743290 -0.262452
O31   O     O_2   0.120817 0.498704 0.762301 -0.331594
O32   O     O_3   0.256044 0.428629 0.988468 -0.538548
O33   O     O_R   0.267710 0.831800 0.902110 -0.505211
O34   O     O_R   0.099480 0.674460 0.038850 -0.523325
O35   O     O_R   0.900520 0.325540 0.961150 -0.522148
O36   O     O_R   0.900520 0.174460 0.961150 -0.523332
O37   O     O_R   0.099480 0.825540 0.038850 -0.522144
O38   O     O_R   0.116720 0.669210 0.267660 -0.482247
S1    S     S_3+6 0.126025 0.071721 0.832658 -0.022724
S2    S     S_3+6 0.871543 0.928674 0.159950 -0.029560
S3    S     S_3+6 0.873967 0.571726 0.167329 -0.022717
S4    S     S_3+6 0.128443 0.428681 0.840025 -0.029584

loop_
_geom_bond_atom_site_label_1
_geom_bond_atom_site_label_2
_ccdc_geom_bond_type
C44   C49   A    
C37   H12   S    
Cr3   O5    S    
C22   O1    A    
C5    C56   D    
C1    O34   A    
C4    C8    D    
C1    O38   A    
C3    H17   S    
Cr1   O34   S    
C3    C24   S    
C33   H3    S    
C7    C8    S    
Cr6   O11   S    
C20   C30   S    
C4    H16   S    
Cr5   O9    S    
C30   C51   A    
C38   C42   A    
C5    H10   S    
C3    C7    D    
C10   C15   D    
C5    C6    S    
Cr1   O18   S    
C29   C54   A    
Cr2   O35   S    
C17   H20   S    
C19   O10   A    
Cr5   O14   S    
C47   H7    S    
H26   O32   S    
C34   O4    A    
C47   C51   A    
C16   C17   S    
Cr2   O19   S    
C41   C46   A    
C10   S1    S    
C36   H1    S    
C19   C27   S    
C43   C48   A    
C40   C44   A    
C42   H30   S    
O24   S2    D    
C27   C50   A    
C42   C47   A    
C9    S2    S    
C27   C45   A    
O32   S4    S    
H22   O22   S    
C13   S3    S    
Cr4   O19   S    
C2    C6    D    
Cr6   O10   S    
C6    H9    S    
Cr3   O38   S    
O25   S2    D    
C12   O35   A    
O30   S4    D    
C38   H23   S    
C35   C55   A    
C50   C53   A    
C36   C40   A    
C18   C28   S    
C32   H2    S    
Cr6   O19   S    
Cr4   O3    S    
C39   C43   A    
C20   O7    A    
O21   S1    D    
C35   H4    S    
C21   C29   S    
Cr2   O23   S    
C56   H15   S    
C23   O36   A    
C25   O23   A    
Cr2   O12   S    
C35   C39   A    
C9    C14   D    
C46   H6    S    
C4    C22   S    
C28   C49   A    
C15   H18   S    
Cr6   O16   S    
C45   C49   A    
C28   C53   A    
Cr3   O18   S    
C32   C37   A    
O27   S3    D    
C21   O13   A    
C25   O16   A    
C21   O8    A    
Cr4   O2    S    
O31   S4    D    
C23   O3    A    
C34   O37   A    
Cr1   O1    S    
C9    C34   S    
C1    C13   S    
C18   O5    A    
Cr4   O7    S    
Cr5   O17   S    
C32   C53   A    
C2    H14   S    
C26   O33   A    
C20   O11   A    
C33   C54   A    
C41   H29   S    
C14   C15   S    
Cr3   O8    S    
Cr1   O37   S    
C24   O15   A    
C48   H8    S    
Cr4   O6    S    
C26   C56   S    
Cr1   O33   S    
C7    H13   S    
C19   O6    A    
C52   C55   A    
O22   S1    S    
C10   C23   S    
C31   H32   S    
C30   C55   A    
C46   C50   A    
C33   C38   A    
C13   C17   D    
C51   C54   A    
C11   S4    S    
H25   O29   S    
Cr6   O15   S    
Cr2   O36   S    
C22   O14   A    
C8    H11   S    
C43   H31   S    
O20   S1    D    
C2    C25   S    
O26   S2    S    
C18   O9    A    
C16   H21   S    
C37   C41   A    
Cr5   O13   S    
O28   S3    D    
C11   C16   D    
C48   C52   A    
C24   O12   A    
C31   C45   A    
O29   S3    S    
Cr3   O4    S    
C31   C36   A    
C12   O2    A    
C44   H5    S    
H24   O26   S    
C14   H19   S    
C40   H28   S    
Cr5   O18   S    
C26   O17   A    
C39   H27   S    
C11   C12   S    
C29   C52   A    
