data_mof_unit_12309.cif
_audit_creation_date              2012-12-10T17:33:53-0500
_audit_creation_method            fapswitch 2.2
_symmetry_space_group_name_H-M    P1
_symmetry_Int_Tables_number       1
_space_group_crystal_system       triclinic
_cell_length_a                    10.683169
_cell_length_b                    11.961545
_cell_length_c                    12.869411
_cell_angle_alpha                 92.939445
_cell_angle_beta                  89.076033
_cell_angle_gamma                 86.805906
_cell_volume                      1639.53373496

loop_
_atom_site_label
_atom_site_type_symbol
_atom_type_description
_atom_site_fract_x
_atom_site_fract_y
_atom_site_fract_z
_atom_type_partial_charge
C1    C     C_R   0.494185 0.521364 0.700769 0.900237
C2    C     C_3   0.121009 0.499862 0.496824 -0.046755
C3    C     C_3   0.076175 0.429928 0.399403 0.374736
C4    C     C_3   0.066220 0.623553 0.489416 -0.580774
C5    C     C_R   0.522225 0.465073 0.188527 -0.103796
C6    C     C_R   0.491561 0.532937 0.812897 -0.052880
C7    C     C_R   0.521153 0.647431 0.968399 -0.226913
C8    C     C_R   0.512098 0.637521 0.861562 -0.258981
C9    C     C_R   0.477234 0.437747 0.872210 0.080974
C10   C     C_R   0.518603 0.443376 0.974573 0.074505
C11   C     C_R   0.523965 0.550923 0.024884 0.143509
C12   C     C_R   0.742023 0.500848 0.497471 0.943468
C13   C     C_R   0.524974 0.560918 0.131680 -0.288496
C14   C     C_R   0.539938 0.358425 0.139216 -0.197875
C15   C     C_R   0.546663 0.346771 0.031174 0.149166
C16   C     C_R   0.405908 0.952685 0.388400 -0.340656
C17   C     C_R   0.411414 0.836837 0.401130 0.014068
C18   C     C_R   0.537948 0.859123 0.549767 -0.021408
C19   C     C_R   0.534369 0.976276 0.540527 0.095161
C20   C     C_R   0.467256 0.023505 0.458654 0.095043
C21   C     C_R   0.463408 0.140655 0.449508 -0.073162
C22   C     C_R   0.589646 0.163044 0.598316 0.001107
C23   C     C_R   0.506760 0.478265 0.299549 0.890495
C24   C     C_R   0.596375 0.047013 0.610435 -0.333512
C25   C     C_R   0.257522 0.499345 0.498545 0.915964
C26   C     C_3   0.926856 0.450871 0.597808 0.271076
C27   C     C_3   0.070628 0.456766 0.600135 -0.515730
C28   C     C_3   0.931407 0.427753 0.401412 -0.597486
C29   C     C_3   0.922633 0.625948 0.493357 0.375403
C30   C     C_3   0.877654 0.502784 0.496024 -0.057320
H1    H     H_    0.902599 0.361108 0.595443 0.080202
H2    H     H_    0.103168 0.661081 0.418878 0.176815
H3    H     H_    0.892173 0.456418 0.327445 0.167284
H4    H     H_    0.100135 0.479093 0.331701 0.096045
H5    H     H_    0.521265 0.643913 0.170196 0.168427
H6    H     H_    0.549962 0.284616 0.184472 0.166553
H7    H     H_    0.529467 0.729597 0.006439 0.145718
H8    H     H_    0.519504 0.711646 0.817392 0.170304
H9    H     H_    0.411756 0.178612 0.387438 0.148397
H10   H     H_    0.636858 0.217636 0.652622 0.118585
H11   H     H_    0.355038 0.986204 0.323855 0.142595
H12   H     H_    0.649039 0.013114 0.674000 0.141828
H13   H     H_    0.364486 0.782248 0.346656 0.128082
H14   H     H_    0.590273 0.821015 0.611403 0.125460
H15   H     H_    0.095454 0.515806 0.665220 0.209176
H16   H     H_    0.114963 0.373818 0.616885 0.144373
H17   H     H_    0.899787 0.341274 0.405088 0.202272
H18   H     H_    0.895997 0.666227 0.571079 0.168386
H19   H     H_    0.098300 0.677057 0.556244 0.192757
N1    N     N_R   0.523380 0.207800 0.519350 -0.101419
N2    N     N_R   0.476620 0.792180 0.480650 -0.098424
O1    O     O_R   0.506240 0.421700 0.658830 -0.633632
O2    O     O_R   0.491240 0.609310 0.646410 -0.632305
O3    O     O_R   0.692710 0.406190 0.506230 -0.650322
O4    O     O_R   0.677700 0.593810 0.493810 -0.566657
O5    O     O_R   0.508760 0.390690 0.353590 -0.623827
O6    O     O_R   0.493760 0.578300 0.341170 -0.636700
O7    O     O_R   0.322300 0.406190 0.506190 -0.602863
O8    O     O_R   0.307290 0.593810 0.493770 -0.639288
Zn1   Zn    Zn3+2 0.510020 0.374730 0.508290 0.936034
Zn2   Zn    Zn3+2 0.489980 0.625270 0.491710 0.955773
C31   C     C_3   0.592404 0.234168 0.980055 -0.456137
C32   C     C_3   0.724277 0.198440 0.014615 -0.865916
H20   H     H_    0.790394 0.264058 0.998207 0.257771
H21   H     H_    0.724936 0.183196 0.098966 0.258396
H22   H     H_    0.757179 0.119422 0.971068 0.244640
H23   H     H_    0.526706 0.169321 0.999924 0.205061
H24   H     H_    0.598030 0.237221 0.894171 0.203628
C33   C     C_3   0.393156 0.343665 0.837017 -0.407951
C34   C     C_3   0.263301 0.389618 0.807604 -0.864879
H25   H     H_    0.218433 0.441030 0.873822 0.260079
H26   H     H_    0.270367 0.441852 0.739688 0.251249
H27   H     H_    0.203382 0.319099 0.787210 0.234716
H28   H     H_    0.436613 0.289582 0.772281 0.224245
H29   H     H_    0.375702 0.287275 0.900772 0.203556
O9    O     O_3   0.871518 0.510775 0.686842 -0.626111
C35   C     C_3   0.861298 0.440049 0.770983 0.096431
H30   H     H_    0.945884 0.382042 0.777549 0.131393
H31   H     H_    0.777134 0.390069 0.761073 0.147128
C36   C     C_3   0.846718 0.511695 0.871939 -0.819125
H32   H     H_    0.767469 0.574833 0.866650 0.270608
H33   H     H_    0.828343 0.458067 0.937772 0.209361
H34   H     H_    0.933886 0.555853 0.886910 0.245292
O10   O     O_3   0.142030 0.324465 0.375188 -0.600931
C37   C     C_3   0.118935 0.237792 0.442714 0.158367
H35   H     H_    0.037892 0.254245 0.496380 0.110080
H36   H     H_    0.202878 0.222166 0.490623 0.166846
C38   C     C_3   0.096852 0.131195 0.377716 -0.875658
H37   H     H_    0.175014 0.112732 0.320530 0.255238
H38   H     H_    0.090828 0.059630 0.428906 0.214905
H39   H     H_    0.007814 0.141751 0.335003 0.253982
O11   O     O_3   0.858979 0.697883 0.423462 -0.592631
C39   C     C_3   0.901205 0.689826 0.318513 0.121700
H40   H     H_    0.966952 0.617903 0.297379 0.108324
H41   H     H_    0.949685 0.767020 0.302348 0.150062
C40   C     C_3   0.788656 0.682901 0.248177 -0.813311
H42   H     H_    0.721610 0.756170 0.265125 0.260777
H43   H     H_    0.819692 0.681818 0.165342 0.200529
H44   H     H_    0.740821 0.604807 0.261485 0.249484

loop_
_geom_bond_atom_site_label_1
_geom_bond_atom_site_label_2
_ccdc_geom_bond_type
C32   H21   S    
C28   H17   S    
C39   H40   S    
C24   H12   S    
C19   C20   A    
N2    Zn2   S    
C17   N2    A    
C6    C9    A    
C23   O5    A    
O3    Zn1   S    
C35   H30   S    
C7    C11   A    
C26   C27   S    
C31   C32   S    
C31   H23   S    
C3    C28   S    
C9    C33   S    
C13   H5    S    
C2    C3    S    
C10   C15   A    
C14   H6    S    
C35   C36   S    
O7    Zn1   S    
C40   H44   S    
C18   C19   A    
C1    O2    A    
O1    Zn1   S    
O2    Zn2   S    
C16   C17   A    
C40   H43   S    
C26   O9    S    
C2    C27   S    
C9    C10   A    
C5    C13   A    
C4    C29   S    
C22   N1    A    
C27   H15   S    
C37   H36   S    
C32   H22   S    
C26   H1    S    
C39   H41   S    
C8    H8    S    
C36   H34   S    
C21   N1    A    
C18   N2    A    
C35   H31   S    
O8    Zn2   S    
C29   H18   S    
C1    C6    S    
C7    C8    A    
O9    C35   S    
C36   H33   S    
C6    C8    A    
C3    H4    S    
C37   H35   S    
O5    Zn1   S    
C2    C4    S    
C17   H13   S    
C29   C30   S    
C18   H14   S    
C5    C23   S    
C38   H39   S    
C16   C20   A    
C22   H10   S    
C40   H42   S    
C20   C21   A    
C34   H27   S    
C7    H7    S    
C33   H28   S    
O10   C37   S    
C5    C14   A    
C4    H2    S    
C27   H16   S    
C38   H38   S    
C28   H3    S    
C26   C30   S    
C39   C40   S    
C22   C24   A    
C25   O7    A    
C34   H25   S    
C37   C38   S    
C23   O6    A    
C12   C30   S    
C21   H9    S    
C36   H32   S    
O6    Zn2   S    
C31   H24   S    
C4    H19   S    
N1    Zn1   S    
C28   C30   S    
C19   C24   A    
C11   C13   A    
O4    Zn2   S    
O11   C39   S    
C15   C31   S    
C33   H29   S    
C2    C25   S    
C33   C34   S    
C1    O1    A    
C12   O4    A    
C10   C11   A    
C32   H20   S    
C38   H37   S    
C3    O10   S    
C14   C15   A    
C34   H26   S    
C25   O8    A    
C16   H11   S    
C29   O11   S    
C12   O3    A    
