data_mof_unit_56960.cif
_audit_creation_date              2012-12-10T17:16:49-0500
_audit_creation_method            fapswitch 2.2
_symmetry_space_group_name_H-M    P1
_symmetry_Int_Tables_number       1
_space_group_crystal_system       triclinic
_cell_length_a                    23.44455
_cell_length_b                    13.073446
_cell_length_c                    11.691301
_cell_angle_alpha                 99.595112
_cell_angle_beta                  93.853721
_cell_angle_gamma                 90.782818
_cell_volume                      3524.15005225

loop_
_atom_site_label
_atom_site_type_symbol
_atom_type_description
_atom_site_fract_x
_atom_site_fract_y
_atom_site_fract_z
_atom_type_partial_charge
C1    C     C_R   0.501568 0.299480 0.479615 0.775269
C2    C     C_R   0.704821 0.581849 0.492243 0.406197
C3    C     C_R   0.242401 0.433528 0.578843 -0.251310
C4    C     C_R   0.764169 0.572822 0.494858 -0.267805
C5    C     C_R   0.208804 0.478668 0.497974 0.191781
C6    C     C_R   0.789444 0.477157 0.501342 0.227574
C7    C     C_R   0.493337 0.813243 0.528370 -0.145884
C8    C     C_R   0.505322 0.186785 0.470579 -0.157306
C9    C     C_R   0.510033 0.019352 0.348351 -0.217636
C10   C     C_R   0.487430 0.980822 0.649650 -0.221238
C11   C     C_R   0.511457 0.126552 0.361643 -0.285891
C12   C     C_R   0.498111 0.700558 0.520214 0.827587
C13   C     C_R   0.486620 0.873696 0.636659 -0.297565
C14   C     C_R   0.502847 0.138208 0.569934 0.397254
C15   C     C_R   0.494337 0.861327 0.428528 0.405382
C16   C     C_R   0.390996 0.497091 0.499975 0.827092
C17   C     C_R   0.608778 0.501316 0.499989 0.879037
C18   C     C_R   0.497041 0.030003 0.554857 0.038031
C19   C     C_R   0.500368 0.969987 0.443195 0.012554
C20   C     C_R   0.434033 0.429438 0.025676 -0.035941
C21   C     C_R   0.567936 0.562002 0.972873 -0.042758
C22   C     C_R   0.443572 0.427346 0.146398 0.622282
C23   C     C_R   0.235016 0.529488 0.417529 0.521004
C24   C     C_R   0.556593 0.571380 0.853829 0.624043
C25   C     C_R   0.530470 0.523787 0.153879 -0.027299
C26   C     C_R   0.470530 0.472401 0.844779 -0.065367
C27   C     C_R   0.525465 0.519284 0.031405 -0.023511
C28   C     C_R   0.475999 0.473972 0.966812 -0.094488
C29   C     C_R   0.882917 0.522346 0.598718 0.560702
C30   C     C_R   0.115432 0.419102 0.407738 0.604370
C31   C     C_R   0.875477 0.417541 0.409923 0.582639
C32   C     C_R   0.122628 0.527251 0.594560 0.515921
C33   C     C_R   0.935261 0.415074 0.408368 -0.027954
C34   C     C_R   0.755299 0.388636 0.505649 0.533713
C35   C     C_R   0.062962 0.525756 0.598258 -0.017913
C36   C     C_R   0.969053 0.469320 0.504105 -0.014983
C37   C     C_R   0.029238 0.470378 0.503166 -0.017503
C38   C     C_R   0.942797 0.523180 0.600428 -0.027383
C39   C     C_R   0.055539 0.416427 0.406959 -0.040633
C40   C     C_R   0.961939 0.361079 0.313077 -0.160300
C41   C     C_R   0.036332 0.578733 0.694157 -0.158992
C42   C     C_R   0.021457 0.361524 0.312514 -0.158685
C43   C     C_R   0.976874 0.577260 0.695348 -0.162326
C44   C     C_3   0.599148 0.734966 0.846252 0.072722
C45   C     C_R   0.294765 0.530373 0.416144 -0.375830
C46   C     C_3   0.548647 0.785512 0.912421 -0.434606
C47   C     C_3   0.555704 0.903521 0.937613 -0.926130
C48   C     C_3   0.406757 0.268693 0.167327 0.085139
C49   C     C_3   0.373525 0.213886 0.248708 -0.296422
C50   C     C_3   0.368516 0.097020 0.205624 -0.945733
C51   C     C_3   0.209228 0.680700 0.352866 0.030576
C52   C     C_3   0.172998 0.733353 0.449250 -0.352784
C53   C     C_3   0.176335 0.851239 0.459842 -0.886761
C54   C     C_3   0.751888 0.207500 0.456688 0.106297
C55   C     C_3   0.719900 0.152924 0.541078 -0.372217
C56   C     C_R   0.695544 0.399518 0.507296 -0.426804
C57   C     C_3   0.666777 0.093611 0.480378 -0.939412
C58   C     C_3   0.355168 0.296484 0.612233 0.069809
C59   C     C_3   0.311882 0.207573 0.611684 -0.376459
C60   C     C_3   0.338602 0.102432 0.574504 -0.890371
C61   C     C_3   0.673486 0.699415 0.381543 0.039363
C62   C     C_3   0.649208 0.807587 0.386398 -0.293301
C63   C     C_3   0.632434 0.830708 0.265118 -0.908959
C64   C     C_3   0.440508 0.811989 0.254809 0.024515
C65   C     C_3   0.400550 0.719019 0.257196 -0.298181
C66   C     C_3   0.345260 0.724818 0.182064 -0.937295
C67   C     C_R   0.328508 0.488136 0.499289 -0.196558
C68   C     C_3   0.559046 0.226278 0.725366 0.112016
C69   C     C_3   0.583262 0.152250 0.803864 -0.416457
C70   C     C_3   0.639121 0.195121 0.870069 -0.877016
C71   C     C_R   0.670650 0.494668 0.499272 -0.145530
C72   C     C_R   0.301958 0.436419 0.579412 0.432758
Cu1   Cu    Cu3+1 0.504210 0.507730 0.615930 0.978920
Cu2   Cu    Cu3+1 0.495790 0.492270 0.384070 0.963156
H1    H     H_    0.936945 0.318604 0.238495 0.186864
H2    H     H_    0.790871 0.640682 0.492813 0.172161
H3    H     H_    0.480197 0.838067 0.711582 0.189639
H4    H     H_    0.517215 0.162272 0.286024 0.174284
H5    H     H_    0.515222 0.975582 0.262725 0.173935
H6    H     H_    0.481490 0.024736 0.734844 0.186669
H7    H     H_    0.605094 0.776503 0.772191 0.195119
H8    H     H_    0.639626 0.749068 0.901887 0.140865
H9    H     H_    0.507575 0.763001 0.861314 0.222560
H10   H     H_    0.546309 0.759257 0.997398 0.214195
H11   H     H_    0.594982 0.926673 0.995217 0.263705
H12   H     H_    0.061305 0.621726 0.768452 0.189225
H13   H     H_    0.518249 0.937720 0.981872 0.250255
H14   H     H_    0.558817 0.934744 0.855682 0.259463
H15   H     H_    0.451691 0.242053 0.169408 0.112543
H16   H     H_    0.386722 0.245161 0.077921 0.164287
H17   H     H_    0.395698 0.228214 0.336811 0.209241
H18   H     H_    0.329898 0.245741 0.254743 0.237851
H19   H     H_    0.343439 0.080602 0.120281 0.263764
H20   H     H_    0.346312 0.058964 0.268844 0.256318
H21   H     H_    0.411523 0.063531 0.196077 0.253418
H22   H     H_    0.360832 0.448459 0.929581 0.261027
H23   H     H_    0.434469 0.433668 0.792566 0.191496
H24   H     H_    0.389071 0.328478 0.899994 0.218924
H25   H     H_    0.627377 0.670644 0.052256 0.215653
H26   H     H_    0.654729 0.561456 0.978159 0.250938
H27   H     H_    0.194698 0.706694 0.270195 0.187314
H28   H     H_    0.254809 0.706898 0.371422 0.127789
H29   H     H_    0.127687 0.706219 0.429987 0.234226
H30   H     H_    0.188667 0.712088 0.533726 0.239939
H31   H     H_    0.221273 0.879977 0.480636 0.250905
H32   H     H_    0.150059 0.887053 0.530740 0.265300
H33   H     H_    0.159714 0.875156 0.377315 0.259225
H34   H     H_    0.566670 0.563457 0.205073 0.178386
H35   H     H_    0.783436 0.152833 0.415845 0.163086
H36   H     H_    0.723093 0.224380 0.382436 0.141601
H37   H     H_    0.748925 0.098142 0.577701 0.220875
H38   H     H_    0.706678 0.210230 0.615104 0.229417
H39   H     H_    0.634803 0.148547 0.453769 0.257243
H40   H     H_    0.647175 0.048073 0.540420 0.262299
H41   H     H_    0.678471 0.040310 0.401862 0.264033
H42   H     H_    0.394080 0.282248 0.666219 0.195954
H43   H     H_    0.368939 0.296174 0.522949 0.106275
H44   H     H_    0.296670 0.210986 0.700229 0.235800
H45   H     H_    0.040619 0.319320 0.237541 0.188058
H46   H     H_    0.274552 0.215615 0.550352 0.218853
H47   H     H_    0.355629 0.098215 0.487513 0.254346
H48   H     H_    0.305776 0.039610 0.570091 0.254089
H49   H     H_    0.373949 0.090083 0.638508 0.268001
H50   H     H_    0.643095 0.641778 0.327958 0.160117
H51   H     H_    0.715005 0.697746 0.340056 0.141871
H52   H     H_    0.611019 0.814114 0.438091 0.236086
H53   H     H_    0.681964 0.865516 0.430747 0.217011
H54   H     H_    0.669775 0.822831 0.210940 0.244912
H55   H     H_    0.617020 0.911156 0.271640 0.259467
H56   H     H_    0.957732 0.619228 0.770480 0.188242
H57   H     H_    0.597364 0.776807 0.222628 0.281974
H58   H     H_    0.449788 0.813724 0.163161 0.159881
H59   H     H_    0.417834 0.885001 0.285237 0.135506
H60   H     H_    0.422247 0.646455 0.223746 0.247265
H61   H     H_    0.390040 0.717048 0.348096 0.200397
H62   H     H_    0.321501 0.795012 0.216323 0.252557
H63   H     H_    0.317803 0.655137 0.182805 0.268658
H64   H     H_    0.354793 0.727349 0.090761 0.265860
H65   H     H_    0.557042 0.304758 0.778579 0.183961
H66   H     H_    0.588982 0.233685 0.656596 0.123065
H67   H     H_    0.314920 0.565980 0.351490 0.187489
H68   H     H_    0.551773 0.140332 0.867679 0.228182
H69   H     H_    0.591484 0.076301 0.749944 0.219328
H70   H     H_    0.671605 0.207126 0.808447 0.256403
H71   H     H_    0.655714 0.139113 0.925129 0.259338
H72   H     H_    0.631925 0.270040 0.927128 0.259809
H73   H     H_    0.667828 0.334773 0.515392 0.156302
H74   H     H_    0.222030 0.395209 0.641246 0.183203
N1    N     N_R   0.850611 0.470908 0.503997 -0.436397
N2    N     N_R   0.147604 0.474970 0.499980 -0.441912
N3    N     N_R   0.510550 0.519360 0.790130 -0.236991
N4    N     N_R   0.489450 0.480640 0.209870 -0.256226
N5    N     N_3   0.380755 0.389390 0.966380 -0.575253
N6    N     N_3   0.622881 0.590232 0.032405 -0.617715
O1    O     O_R   0.502990 0.354470 0.582000 -0.572330
O2    O     O_2   0.141363 0.365924 0.317422 -0.517195
O3    O     O_2   0.842444 0.368355 0.317597 -0.550351
O4    O     O_2   0.155449 0.581323 0.684274 -0.550535
O5    O     O_3   0.593141 0.627385 0.797708 -0.582574
O6    O     O_3   0.404287 0.377430 0.202784 -0.566241
O7    O     O_3   0.201429 0.571422 0.335684 -0.575942
O8    O     O_3   0.782462 0.296447 0.517890 -0.594160
O9    O     O_3   0.333303 0.392772 0.662874 -0.618534
O10   O     O_3   0.680934 0.678156 0.495865 -0.609860
O11   O     O_3   0.493421 0.801908 0.318187 -0.608151
O12   O     O_R   0.497010 0.645530 0.418000 -0.548960
O13   O     O_3   0.502389 0.195508 0.681098 -0.635088
O14   O     O_R   0.495870 0.341410 0.386200 -0.578508
O15   O     O_R   0.504130 0.658590 0.613800 -0.570034
O16   O     O_R   0.421440 0.506500 0.597920 -0.567527
O17   O     O_R   0.578560 0.493500 0.402080 -0.609795
O18   O     O_R   0.414320 0.493440 0.402120 -0.544500
O19   O     O_R   0.585680 0.506560 0.597880 -0.528062
O20   O     O_2   0.857090 0.572686 0.690815 -0.531660

loop_
_geom_bond_atom_site_label_1
_geom_bond_atom_site_label_2
_ccdc_geom_bond_type
C58   H42   S    
C52   H29   S    
C34   C56   A    
C59   H46   S    
C23   C45   A    
C55   H38   S    
C61   O10   S    
Cu1   Cu2   S    
C14   C18   A    
C29   O20   S    
Cu2   O14   S    
C50   H21   S    
C24   O5    S    
C57   H41   S    
C51   H28   S    
C15   C19   A    
C41   H12   S    
C48   O6    S    
C62   C63   S    
C61   H50   S    
C47   H11   S    
C26   N3    A    
C35   C37   A    
C18   C19   A    
C44   H8    S    
C12   O12   A    
C62   H53   S    
C31   N1    A    
C42   H45   S    
C30   N2    A    
C1    C8    S    
H25   N6    S    
C33   C36   A    
C54   H36   S    
C67   C72   A    
C9    H5    S    
C1    O1    A    
C16   O18   A    
C64   H59   S    
C6    N1    S    
C53   H32   S    
C9    C19   A    
C64   H58   S    
C17   O19   A    
C68   C69   S    
C5    C23   A    
C29   C38   A    
C45   C67   A    
C21   N6    S    
C31   C33   A    
C70   H72   S    
C63   H57   S    
Cu2   O18   S    
C65   H60   S    
C30   O2    S    
C21   C27   A    
H24   N5    S    
C3    H74   S    
C48   H16   S    
Cu1   N3    S    
C45   H67   S    
C41   C43   A    
Cu2   N4    S    
C69   C70   S    
C49   H17   S    
C58   O9    S    
C44   C46   S    
C39   C42   A    
C32   O4    S    
C60   H47   S    
C7    C12   S    
C22   N4    A    
C33   C40   A    
C20   N5    S    
C51   C52   S    
C32   C35   A    
C4    C6    A    
C44   H7    S    
C2    O10   S    
C62   H52   S    
C10   H6    S    
C50   H20   S    
C57   H39   S    
C20   C28   A    
C1    O14   A    
C3    C5    A    
C69   H68   S    
C58   H43   S    
C5    N2    S    
C6    C34   A    
C54   H35   S    
C47   H13   S    
C60   H49   S    
C2    C4    A    
C64   O11   S    
C24   N3    A    
C16   O16   A    
C53   H33   S    
H22   N5    S    
C66   H64   S    
C7    C13   A    
C56   C71   A    
Cu1   O1    S    
C16   C67   S    
C31   O3    S    
C54   O8    S    
C60   H48   S    
C9    C11   A    
Cu2   O17   S    
C65   H61   S    
C70   H71   S    
C66   H62   S    
C11   H4    S    
C48   C49   S    
C20   C22   A    
C17   C71   S    
C59   H44   S    
C48   H15   S    
C25   N4    A    
C13   H3    S    
C46   H10   S    
C68   H66   S    
C69   H69   S    
C65   C66   S    
C49   H18   S    
Cu1   O15   S    
C2    C71   A    
C14   O13   S    
Cu2   O12   S    
C52   C53   S    
H26   N6    S    
C54   C55   S    
C52   H30   S    
C8    C14   A    
C55   H37   S    
C70   H70   S    
C43   H56   S    
C63   H54   S    
C40   C42   A    
C34   O8    S    
C10   C13   A    
C17   O17   A    
C50   H19   S    
C12   O15   A    
C25   C27   A    
C26   C28   A    
C40   H1    S    
C47   H14   S    
C56   H73   S    
C55   C57   S    
C3    C72   A    
C58   C59   S    
C38   C43   A    
C37   C39   A    
C64   C65   S    
C36   C38   A    
C57   H40   S    
C22   O6    S    
C10   C18   A    
C8    C11   A    
C7    C15   A    
C72   O9    S    
C30   C39   A    
C51   O7    S    
C63   H55   S    
Cu1   O19   S    
C61   C62   S    
C35   C41   A    
C4    H2    S    
C46   C47   S    
C26   H23   S    
C29   N1    A    
C46   H9    S    
C68   O13   S    
C53   H31   S    
C59   C60   S    
C32   N2    A    
C36   C37   A    
C49   C50   S    
C68   H65   S    
C21   C24   A    
C27   C28   A    
C44   O5    S    
C15   O11   S    
C66   H63   S    
C61   H51   S    
Cu1   O16   S    
C51   H27   S    
C25   H34   S    
C23   O7    S    
