data_mof_unit_12413.cif
_audit_creation_date              2012-12-10T20:49:10-0500
_audit_creation_method            fapswitch 2.2
_symmetry_space_group_name_H-M    P1
_symmetry_Int_Tables_number       1
_space_group_crystal_system       triclinic
_cell_length_a                    8.927698
_cell_length_b                    8.125622
_cell_length_c                    10.545935
_cell_angle_alpha                 90.285975
_cell_angle_beta                  89.984714
_cell_angle_gamma                 89.959481
_cell_volume                      765.025061129

loop_
_atom_site_label
_atom_site_type_symbol
_atom_type_description
_atom_site_fract_x
_atom_site_fract_y
_atom_site_fract_z
_atom_type_partial_charge
C1    C     C_R   0.218079 0.500039 0.499829 0.963925
C2    C     C_3   0.628098 0.565359 0.039915 0.048597
C3    C     C_3   0.497945 0.501343 0.877512 0.007677
C4    C     C_3   0.502055 0.498657 0.122488 0.007677
C5    C     C_1   0.065219 0.500057 0.499933 -0.143325
C6    C     C_1   0.934781 0.499943 0.500067 -0.143324
C7    C     C_2   0.225767 0.361820 0.918327 0.358234
C8    C     C_2   0.774233 0.638180 0.081673 0.358234
C9    C     C_R   0.781921 0.499960 0.500170 0.963926
C10   C     C_R   0.500994 0.499517 0.256873 0.922896
C11   C     C_R   0.499006 0.500483 0.743127 0.922896
C12   C     C_3   0.383551 0.589230 0.044235 -0.265428
C13   C     C_3   0.616449 0.410769 0.955764 -0.265427
C14   C     C_3   0.511280 0.656993 0.959651 -0.220800
C15   C     C_3   0.488720 0.343007 0.040349 -0.220799
C16   C     C_3   0.371902 0.434641 0.960085 0.048597
H1    H     H_    0.147417 0.317408 0.988898 0.064446
H2    H     H_    0.852582 0.682594 0.011102 0.064445
H3    H     H_    0.288419 0.660910 0.084031 0.154779
H4    H     H_    0.711581 0.339090 0.915969 0.154779
H5    H     H_    0.521035 0.784836 0.923853 0.160637
H6    H     H_    0.478965 0.215164 0.076147 0.160637
N1    N     N_1   0.500000 0.073640 0.500000 -0.027458
N2    N     N_1   0.500000 0.926360 0.500000 -0.027458
O1    O     O_R   0.285350 0.636850 0.500000 -0.625361
O2    O     O_2   0.806326 0.647517 0.193894 -0.575332
O3    O     O_R   0.714650 0.363150 0.500000 -0.625362
O4    O     O_R   0.714650 0.636850 0.500000 -0.598726
O5    O     O_R   0.285350 0.363150 0.500000 -0.598725
O6    O     O_R   0.499970 0.636850 0.313950 -0.600104
O7    O     O_R   0.500030 0.363150 0.686050 -0.600103
O8    O     O_R   0.500030 0.636850 0.686050 -0.642222
O9    O     O_R   0.499970 0.363150 0.313950 -0.642222
O10   O     O_2   0.193675 0.352481 0.806105 -0.575332
Zn1   Zn    Zn3+2 0.500000 0.682780 0.500000 1.017562
Zn2   Zn    Zn3+2 0.500000 0.317220 0.500000 1.017563

loop_
_geom_bond_atom_site_label_1
_geom_bond_atom_site_label_2
_ccdc_geom_bond_type
C2    C4    S    
N1    N2    T    
O3    Zn2   S    
C4    C12   S    
C8    O2    D    
C10   O6    A    
C3    C13   S    
C6    C9    S    
C1    O5    A    
C11   O7    A    
C1    O1    A    
O5    Zn2   S    
C9    O3    A    
C3    C14   S    
O6    Zn1   S    
O1    Zn1   S    
C1    C5    S    
C12   H3    S    
C7    C16   S    
C12   C14   S    
C11   O8    A    
C10   O9    A    
C13   C15   S    
C4    C15   S    
C5    C6    T    
C2    C14   S    
C7    O10   D    
C2    C8    S    
N2    Zn1   S    
C3    C11   S    
C4    C10   S    
C15   C16   S    
O8    Zn1   S    
O9    Zn2   S    
C14   H5    S    
N1    Zn2   S    
O4    Zn1   S    
C2    C13   S    
O7    Zn2   S    
C13   H4    S    
C15   H6    S    
C8    H2    S    
C3    C16   S    
C12   C16   S    
C9    O4    A    
C7    H1    S    
