data_mof_unit_42101.cif
_audit_creation_date              2012-12-10T20:49:10-0500
_audit_creation_method            fapswitch 2.2
_symmetry_space_group_name_H-M    P1
_symmetry_Int_Tables_number       1
_space_group_crystal_system       triclinic
_cell_length_a                    8.928157
_cell_length_b                    8.125972
_cell_length_c                    10.5388
_cell_angle_alpha                 90.377763
_cell_angle_beta                  90.063999
_cell_angle_gamma                 89.949068
_cell_volume                      764.572060519

loop_
_atom_site_label
_atom_site_type_symbol
_atom_type_description
_atom_site_fract_x
_atom_site_fract_y
_atom_site_fract_z
_atom_type_partial_charge
C1    C     C_R   0.218079 0.500045 0.500063 0.935422
C2    C     C_R   0.781921 0.499955 0.499937 0.935422
C3    C     C_R   0.499629 0.499358 0.256854 0.876333
C4    C     C_R   0.500371 0.500641 0.743146 0.876334
C5    C     C_3   0.380948 0.586758 0.042909 -0.221109
C6    C     C_3   0.619052 0.413242 0.957091 -0.221109
C7    C     C_3   0.509047 0.657728 0.960518 -0.182993
C8    C     C_3   0.490953 0.342272 0.039482 -0.182993
C9    C     C_3   0.374211 0.432285 0.958117 0.037161
C10   C     C_3   0.625789 0.567715 0.041883 0.037161
C11   C     C_3   0.500254 0.501949 0.877608 -0.033491
C12   C     C_3   0.499746 0.498051 0.122392 -0.033491
C13   C     C_1   0.065219 0.500064 0.500026 -0.174148
C14   C     C_1   0.934781 0.499936 0.499974 -0.174148
N1    N     N_1   0.500000 0.073640 0.500000 -0.030950
N2    N     N_1   0.500000 0.926360 0.500000 -0.030950
O1    O     O_R   0.285350 0.636850 0.500000 -0.615674
O2    O     O_R   0.714650 0.363150 0.500000 -0.615674
O3    O     O_R   0.714650 0.636850 0.500000 -0.612425
O4    O     O_R   0.285350 0.363150 0.500000 -0.612425
O5    O     O_R   0.499970 0.636850 0.313950 -0.620014
O6    O     O_R   0.500030 0.363150 0.686050 -0.620014
O7    O     O_R   0.500030 0.636850 0.686050 -0.627367
O8    O     O_R   0.499970 0.363150 0.313950 -0.627367
Zn1   Zn    Zn3+2 0.500000 0.682780 0.500000 0.996946
Zn2   Zn    Zn3+2 0.500000 0.317220 0.500000 0.996946
C15   C     C_1   0.235772 0.359034 0.908201 0.156369
N3    N     N_1   0.126626 0.301459 0.868730 -0.204673
C16   C     C_1   0.764228 0.640966 0.091799 0.156369
N4    N     N_1   0.873373 0.698541 0.131270 -0.204673
H1    H     H_    0.283696 0.655589 0.081992 0.160079
H2    H     H_    0.716304 0.344411 0.918008 0.160079
H3    H     H_    0.517689 0.785731 0.925006 0.160534
H4    H     H_    0.482311 0.214269 0.074994 0.160534

loop_
_geom_bond_atom_site_label_1
_geom_bond_atom_site_label_2
_ccdc_geom_bond_type
C6    C10   S    
C7    C10   S    
C6    H2    S    
C5    C9    S    
C16   N4    T    
C2    O2    A    
C7    H3    S    
C1    O1    A    
O2    Zn2   S    
C8    C12   S    
O1    Zn1   S    
O4    Zn2   S    
C8    H4    S    
C13   C14   T    
C4    C11   S    
C7    C11   S    
C9    C11   S    
C10   C16   S    
C3    O8    A    
C10   C12   S    
O3    Zn1   S    
O8    Zn2   S    
O7    Zn1   S    
C2    C14   S    
C3    O5    A    
C1    C13   S    
C6    C11   S    
N1    N2    T    
N2    Zn1   S    
C4    O6    A    
C9    C15   S    
C5    C12   S    
O6    Zn2   S    
C15   N3    T    
C5    C7    S    
C4    O7    A    
O5    Zn1   S    
N1    Zn2   S    
C6    C8    S    
C3    C12   S    
C5    H1    S    
C2    O3    A    
C8    C9    S    
C1    O4    A    
