data_mof_unit_35236.cif
_audit_creation_date              2012-12-10T20:21:36-0500
_audit_creation_method            fapswitch 2.2
_symmetry_space_group_name_H-M    P1
_symmetry_Int_Tables_number       1
_space_group_crystal_system       triclinic
_cell_length_a                    18.478368
_cell_length_b                    18.471421
_cell_length_c                    8.870618
_cell_angle_alpha                 89.992632
_cell_angle_beta                  90.140721
_cell_angle_gamma                 88.791248
_cell_volume                      3027.05161407

loop_
_atom_site_label
_atom_site_type_symbol
_atom_type_description
_atom_site_fract_x
_atom_site_fract_y
_atom_site_fract_z
_atom_type_partial_charge
C1    C     C_R   0.363918 0.500804 0.493127 1.007508
C2    C     C_R   0.636378 0.499126 0.504487 0.967614
C3    C     C_R   0.502991 0.726188 0.632806 -0.130049
C4    C     C_R   0.499111 0.273907 0.366796 -0.134732
C5    C     C_R   0.497117 0.726002 0.366684 -0.094647
C6    C     C_R   0.500717 0.273824 0.633125 -0.113688
C7    C     C_R   0.504677 0.802387 0.635614 0.378995
C8    C     C_R   0.497242 0.197431 0.363162 0.389123
C9    C     C_R   0.495242 0.802748 0.362510 0.387777
C10   C     C_R   0.502360 0.197487 0.636465 0.375228
C11   C     C_R   0.500185 0.841585 0.499194 -0.113838
C12   C     C_R   0.499994 0.158316 0.499928 -0.116701
C13   C     C_R   0.551268 0.960881 0.414920 -0.150466
C14   C     C_R   0.449264 0.038924 0.585239 -0.151781
C15   C     C_R   0.449352 0.962862 0.585129 -0.142363
C16   C     C_R   0.551273 0.036934 0.415250 -0.144461
C17   C     C_R   0.500182 0.077022 0.500178 0.198088
C18   C     C_R   0.500253 0.922827 0.499704 0.202140
C19   C     C_R   0.500475 0.499987 0.218494 0.921813
C20   C     C_R   0.500111 0.499994 0.781517 0.919173
C21   C     C_1   0.500555 0.499977 0.065415 -0.228905
C22   C     C_1   0.500395 0.499983 0.934587 -0.220669
C23   C     C_R   0.753513 0.428670 0.523166 0.355807
C24   C     C_R   0.258708 0.558449 0.359732 0.322547
C25   C     C_R   0.241618 0.446562 0.497582 0.310910
C26   C     C_R   0.757216 0.558244 0.480910 0.351192
C27   C     C_R   0.825710 0.421683 0.477160 0.424884
C28   C     C_R   0.186378 0.557677 0.310924 0.370400
C29   C     C_R   0.168665 0.447408 0.451968 0.439210
C30   C     C_R   0.829922 0.550608 0.438644 0.463409
C31   C     C_R   0.859130 0.480649 0.404043 -0.240829
C32   C     C_R   0.143381 0.496256 0.338229 -0.191339
C33   C     C_R   0.716252 0.495753 0.504272 -0.486189
C34   C     C_R   0.286598 0.502674 0.452839 -0.415146
C35   C     C_R   0.950317 0.531462 0.218351 0.431964
C36   C     C_R   0.041184 0.413012 0.264632 0.444852
C37   C     C_R   0.025087 0.537564 0.198763 0.399633
C38   C     C_R   0.966373 0.407478 0.285768 0.423887
C39   C     C_R   0.071334 0.483020 0.261949 -0.244656
C40   C     C_R   0.924646 0.472323 0.303015 -0.265533
H1    H     H_    0.591699 0.931634 0.349421 0.163538
H2    H     H_    0.408751 0.068117 0.650608 0.160073
H3    H     H_    0.408994 0.935186 0.650583 0.160158
H4    H     H_    0.591777 0.064548 0.350085 0.165505
N1    N     N_R   0.500000 0.689440 0.500000 -0.116444
N2    N     N_R   0.500000 0.310560 0.500000 -0.121481
O1    O     O_R   0.398180 0.560840 0.499960 -0.562419
O2    O     O_R   0.601820 0.439160 0.500040 -0.560554
O3    O     O_R   0.601820 0.560840 0.500040 -0.565604
O4    O     O_R   0.398180 0.439160 0.499960 -0.590471
O5    O     O_R   0.500000 0.560800 0.285330 -0.622561
O6    O     O_R   0.500000 0.439200 0.714670 -0.624773
O7    O     O_R   0.500000 0.560800 0.714670 -0.637528
O8    O     O_R   0.500000 0.439200 0.285330 -0.632754
Zn1   Zn    Zn3+2 0.500000 0.581210 0.500000 0.966749
Zn2   Zn    Zn3+2 0.500000 0.418790 0.500000 0.954530
O9    O     O_3   0.719030 0.367516 0.574391 -0.529535
C41   C     C_3   0.708252 0.373419 0.731493 -0.224813
H5    H     H_    0.679910 0.324567 0.770769 0.172408
H6    H     H_    0.673704 0.421254 0.761585 0.126206
H7    H     H_    0.760560 0.375561 0.793016 0.126740
O10   O     O_3   0.301550 0.615969 0.319651 -0.562439
C42   C     C_3   0.325842 0.605426 0.170398 -0.207009
H8    H     H_    0.351503 0.550881 0.154556 0.118011
H9    H     H_    0.367401 0.646178 0.145406 0.162930
H10   H     H_    0.280874 0.613550 0.088278 0.182446
O11   O     O_3   0.267173 0.394688 0.598434 -0.583617
C43   C     C_3   0.275189 0.327785 0.522599 -0.186080
H11   H     H_    0.304635 0.289198 0.597803 0.164152
H12   H     H_    0.307693 0.332718 0.417581 0.135695
H13   H     H_    0.221770 0.304273 0.496345 0.205471
O12   O     O_3   0.725853 0.626863 0.486415 -0.529782
C44   C     C_3   0.723516 0.649863 0.638055 -0.214429
H14   H     H_    0.694183 0.611311 0.711232 0.123837
H15   H     H_    0.693823 0.702639 0.643329 0.173948
H16   H     H_    0.778900 0.658215 0.682929 0.151762
O13   O     O_3   0.861999 0.357464 0.509600 -0.497216
C45   C     C_3   0.910494 0.369525 0.629764 -0.205970
H17   H     H_    0.940601 0.318265 0.654164 0.203562
H18   H     H_    0.881419 0.386180 0.734033 0.086475
H19   H     H_    0.950736 0.410990 0.600505 0.142415
O14   O     O_3   0.159422 0.618689 0.239565 -0.538283
C46   C     C_3   0.132835 0.667137 0.350425 -0.143497
H20   H     H_    0.177137 0.686251 0.424698 0.150132
H21   H     H_    0.089496 0.642368 0.419239 0.120430
H22   H     H_    0.108696 0.715271 0.293092 0.193278
O15   O     O_3   0.121803 0.401258 0.523548 -0.533096
C47   C     C_3   0.099429 0.433801 0.660015 -0.336840
H23   H     H_    0.146056 0.446445 0.734494 0.179087
H24   H     H_    0.065625 0.395116 0.722515 0.172245
H25   H     H_    0.066214 0.483655 0.638023 0.121866
O16   O     O_3   0.870725 0.612511 0.431194 -0.501471
C48   C     C_3   0.922570 0.610624 0.548571 -0.296521
H26   H     H_    0.897256 0.601445 0.660584 0.122432
H27   H     H_    0.949365 0.663749 0.552849 0.196542
H28   H     H_    0.965345 0.568666 0.527873 0.133194
O17   O     O_3   0.904534 0.583375 0.154227 -0.491030
C49   C     C_3   0.859111 0.550082 0.047728 -0.272992
H29   H     H_    0.890756 0.517143 0.964683 0.103320
H30   H     H_    0.829452 0.593024 0.983855 0.181107
H31   H     H_    0.818117 0.516252 0.104011 0.147615
O18   O     O_3   0.083195 0.350004 0.257302 -0.515458
C50   C     C_3   0.123425 0.349272 0.122237 -0.290076
H32   H     H_    0.088274 0.359986 0.022076 0.129710
H33   H     H_    0.148480 0.294626 0.107885 0.193261
H34   H     H_    0.168058 0.388599 0.126660 0.147941
O19   O     O_3   0.048764 0.590683 0.102180 -0.497970
C51   C     C_3   0.074251 0.557753 0.968360 -0.234028
H35   H     H_    0.032099 0.523710 0.915509 0.095544
H36   H     H_    0.124529 0.525056 0.989226 0.153527
H37   H     H_    0.087660 0.600860 0.886619 0.180345
O20   O     O_3   0.936435 0.339583 0.279063 -0.492640
C52   C     C_3   0.891904 0.335656 0.149942 -0.211249
H38   H     H_    0.922059 0.349611 0.045605 0.096816
H39   H     H_    0.842777 0.371025 0.161314 0.143507
H40   H     H_    0.873530 0.279185 0.137663 0.194519
H41   H     H_    0.504643 0.696541 0.737800 0.159387
H42   H     H_    0.499889 0.303956 0.262462 0.162152
H43   H     H_    0.496420 0.695499 0.263035 0.152913
H44   H     H_    0.500503 0.303563 0.737977 0.162589
O21   O     O_3   0.507430 0.838652 0.771782 -0.617857
C53   C     C_3   0.578511 0.832934 0.829295 -0.285410
H45   H     H_    0.618624 0.854229 0.747831 0.157336
H46   H     H_    0.592842 0.776127 0.860870 0.148214
H47   H     H_    0.581684 0.866202 0.933120 0.225211
O22   O     O_3   0.496432 0.160144 0.227527 -0.612746
C54   C     C_3   0.433920 0.179816 0.144094 -0.272266
H48   H     H_    0.440878 0.232692 0.086842 0.165465
H49   H     H_    0.384198 0.181012 0.215060 0.137486
H50   H     H_    0.425930 0.138613 0.054968 0.227759
O23   O     O_3   0.492540 0.841026 0.227547 -0.610942
C55   C     C_3   0.438048 0.814837 0.131222 -0.260907
H51   H     H_    0.387558 0.801625 0.193036 0.151528
H52   H     H_    0.458463 0.767229 0.066388 0.166541
H53   H     H_    0.423721 0.857824 0.048398 0.225324
O24   O     O_3   0.503062 0.161155 0.772824 -0.621839
C56   C     C_3   0.572433 0.166208 0.838052 -0.266363
H54   H     H_    0.583089 0.222479 0.875278 0.149191
H55   H     H_    0.615571 0.146591 0.759605 0.160164
H56   H     H_    0.574796 0.131133 0.939530 0.224509

loop_
_geom_bond_atom_site_label_1
_geom_bond_atom_site_label_2
_ccdc_geom_bond_type
C15   C18   A    
O15   C47   S    
C42   H9    S    
C11   C18   S    
C48   H26   S    
C26   O12   S    
C44   H14   S    
C25   O11   S    
O2    Zn2   S    
C4    C8    A    
C13   H1    S    
O17   C49   S    
C4    N2    A    
O13   C45   S    
C51   H35   S    
C7    C11   A    
C56   H55   S    
O22   C54   S    
C13   C18   A    
C5    H43   S    
C35   C37   A    
C10   O24   S    
C37   O19   S    
C29   C32   A    
C3    C7    A    
C43   H13   S    
C30   C31   A    
C45   H18   S    
C41   H6    S    
C49   H29   S    
C31   C40   S    
C36   O18   S    
C32   C39   S    
C3    H41   S    
C43   H11   S    
C16   C17   A    
C23   C33   A    
C12   C17   S    
O19   C51   S    
C23   C27   A    
C1    O4    A    
C16   H4    S    
C25   C34   A    
C14   H2    S    
C52   H40   S    
C41   H7    S    
O7    Zn1   S    
C42   H10   S    
C48   H27   S    
C21   C22   T    
C44   H15   S    
C14   C17   A    
C4    H42   S    
C7    O21   S    
C6    H44   S    
O20   C52   S    
C1    C34   S    
C9    O23   S    
C25   C29   A    
C37   C39   A    
C56   H56   S    
O8    Zn2   S    
C28   O14   S    
O11   C43   S    
C28   C32   A    
C30   O16   S    
C45   H17   S    
C1    O1    A    
C2    O2    A    
C41   H5    S    
O3    Zn1   S    
C27   C31   A    
C3    N1    A    
C24   C34   A    
C54   H49   S    
C5    C9    A    
O10   C42   S    
C2    O3    A    
C26   C33   A    
C46   H20   S    
C47   H25   S    
C8    C12   A    
C50   H33   S    
C9    C11   A    
O21   C53   S    
C10   C12   A    
C20   O7    A    
C2    C33   S    
C8    O22   S    
C46   H21   S    
C47   H24   S    
C26   C30   A    
C48   H28   S    
C49   H30   S    
C44   H16   S    
C38   O20   S    
C54   H48   S    
C19   O8    A    
O1    Zn1   S    
C52   H38   S    
C23   O9    S    
C24   O10   S    
C6    N2    A    
C19   C21   S    
C36   C39   A    
C24   C28   A    
C20   C22   S    
O12   C44   S    
C27   O13   S    
C6    C10   A    
C49   H31   S    
C56   H54   S    
C51   H37   S    
C53   H47   S    
C36   C38   A    
C35   C40   A    
C54   H50   S    
C15   H3    S    
C20   O6    A    
O23   C55   S    
C38   C40   A    
C45   H19   S    
O9    C41   S    
C5    N1    A    
C55   H53   S    
O16   C48   S    
C51   H36   S    
C55   H51   S    
C50   H34   S    
O5    Zn1   S    
O18   C50   S    
O4    Zn2   S    
C29   O15   S    
C42   H8    S    
C19   O5    A    
C46   H22   S    
C47   H23   S    
N1    Zn1   S    
C55   H52   S    
O14   C46   S    
C13   C16   A    
N2    Zn2   S    
C50   H32   S    
C43   H12   S    
C14   C15   A    
O24   C56   S    
C53   H45   S    
C35   O17   S    
C53   H46   S    
O6    Zn2   S    
C52   H39   S    
