data_mof_unit_65955.cif
_audit_creation_date              2012-12-10T19:17:16-0500
_audit_creation_method            fapswitch 2.2
_symmetry_space_group_name_H-M    P1
_symmetry_Int_Tables_number       1
_space_group_crystal_system       triclinic
_cell_length_a                    22.276185
_cell_length_b                    22.315105
_cell_length_c                    14.972655
_cell_angle_alpha                 89.99903
_cell_angle_beta                  89.999134
_cell_angle_gamma                 89.999986
_cell_volume                      7442.83803329

loop_
_atom_site_label
_atom_site_type_symbol
_atom_type_description
_atom_site_fract_x
_atom_site_fract_y
_atom_site_fract_z
_atom_type_partial_charge
C1    C     C_R   0.081104 0.419018 0.500000 0.881193
C2    C     C_1   0.836749 0.662815 0.499997 0.173454
C3    C     C_1   0.336750 0.837184 0.500004 0.173463
C4    C     C_1   0.336749 0.162815 0.500003 0.173454
C5    C     C_1   0.874444 0.374701 0.500003 -0.118148
C6    C     C_1   0.874444 0.625300 0.499999 -0.118157
C7    C     C_1   0.374444 0.874701 0.500003 -0.118147
C8    C     C_1   0.374444 0.125300 0.500000 -0.118157
C9    C     C_3   0.030981 0.443076 0.052169 -0.345658
C10   C     C_3   0.030981 0.443076 0.947832 -0.345295
C11   C     C_3   0.033623 0.555403 0.052166 -0.345364
C12   C     C_R   0.081106 0.580980 0.499999 0.881204
C13   C     C_3   0.033622 0.555402 0.947829 -0.345523
C14   C     C_3   0.530881 0.943021 0.052169 -0.345313
C15   C     C_3   0.530880 0.943021 0.947832 -0.345649
C16   C     C_3   0.533720 0.055343 0.052166 -0.345542
C17   C     C_3   0.533720 0.055343 0.947829 -0.345353
C18   C     C_3   0.999819 0.500001 0.089789 0.186163
C19   C     C_3   0.999819 0.500000 0.910211 0.185993
C20   C     C_3   0.499819 0.000001 0.089789 0.186012
C21   C     C_3   0.499819 0.000000 0.910210 0.186165
C22   C     C_3   0.934854 0.501523 0.947832 -0.347253
C23   C     C_R   0.581104 0.919018 0.500000 0.881192
C24   C     C_3   0.934854 0.501523 0.052171 -0.347331
C25   C     C_3   0.434856 0.001637 0.947832 -0.347348
C26   C     C_3   0.434856 0.001637 0.052171 -0.347236
C27   C     C_1   0.999827 0.500000 0.809378 0.061727
C28   C     C_1   0.999827 0.500000 0.190622 0.061499
C29   C     C_1   0.499827 0.000000 0.809378 0.061518
C30   C     C_1   0.499827 0.000000 0.190622 0.061710
C31   C     C_R   0.918922 0.419011 0.500001 0.893353
C32   C     C_R   0.918923 0.580990 0.500000 0.893366
C33   C     C_R   0.418922 0.919011 0.500001 0.893353
C34   C     C_R   0.581106 0.080980 0.499999 0.881204
C35   C     C_R   0.418923 0.080991 0.500000 0.893367
C36   C     C_3   0.797544 0.251658 0.584287 0.385796
C37   C     C_3   0.797416 0.251793 0.415557 0.385706
C38   C     C_3   0.796451 0.747251 0.585565 0.385635
C39   C     C_3   0.798482 0.749275 0.416888 0.385867
C40   C     C_3   0.297485 0.751717 0.584359 0.385716
C41   C     C_3   0.297475 0.751734 0.415628 0.385787
C42   C     C_3   0.298504 0.249297 0.583081 0.385867
C43   C     C_3   0.296429 0.247229 0.414407 0.385639
C44   C     C_3   0.248679 0.702328 0.416007 0.336377
C45   C     C_1   0.162780 0.663297 0.499996 0.219037
C46   C     C_3   0.248688 0.702311 0.583974 0.336417
C47   C     C_3   0.247633 0.296636 0.414772 0.336480
C48   C     C_3   0.249701 0.298696 0.582682 0.336315
C49   C     C_3   0.748620 0.202386 0.415935 0.336426
C50   C     C_3   0.748747 0.202252 0.583902 0.336370
C51   C     C_3   0.749679 0.798674 0.417287 0.336311
C52   C     C_3   0.747655 0.796658 0.585200 0.336483
C53   C     C_1   0.125354 0.625515 0.499997 -0.097873
C54   C     C_1   0.125347 0.374477 0.500002 -0.097892
C55   C     C_1   0.625354 0.125515 0.499997 -0.097874
C56   C     C_1   0.162770 0.336693 0.500008 0.219038
C57   C     C_1   0.625347 0.874477 0.499999 -0.097891
C58   C     C_3   0.790948 0.291606 0.500003 -0.266265
C59   C     C_3   0.790944 0.708389 0.499991 -0.266254
C60   C     C_3   0.290948 0.791607 0.500002 -0.266265
C61   C     C_3   0.290944 0.208389 0.500009 -0.266255
C62   C     C_3   0.208260 0.709242 0.499998 -0.326978
C63   C     C_3   0.208252 0.290749 0.500019 -0.326973
C64   C     C_3   0.708260 0.209242 0.499999 -0.326979
C65   C     C_3   0.708251 0.790749 0.499982 -0.326972
C66   C     C_3   0.178651 0.772498 0.500015 1.214016
C67   C     C_1   0.662780 0.163297 0.499997 0.219038
C68   C     C_3   0.178661 0.227507 0.502551 1.214020
C69   C     C_3   0.678651 0.272498 0.500159 1.214016
C70   C     C_3   0.678660 0.727506 0.497508 1.214019
C71   C     C_3   0.728026 0.321217 0.500161 -0.413374
C72   C     C_3   0.728038 0.678790 0.497527 -0.413384
C73   C     C_3   0.228026 0.821217 0.500017 -0.413374
C74   C     C_3   0.228039 0.178791 0.502530 -0.413385
C75   C     C_1   0.662770 0.836693 0.499993 0.219037
C76   C     C_1   0.836750 0.337184 0.500004 0.173463
F1    F     F_    0.792959 0.286421 0.338821 -0.539264
F2    F     F_    0.214675 0.704823 0.661548 -0.507808
F3    F     F_    0.212666 0.293167 0.338226 -0.507787
F4    F     F_    0.216645 0.297132 0.661222 -0.507839
F5    F     F_    0.714544 0.204968 0.338429 -0.507806
F6    F     F_    0.714788 0.204711 0.661532 -0.507810
F7    F     F_    0.716602 0.797090 0.338769 -0.507845
F8    F     F_    0.712709 0.793209 0.661770 -0.507780
F9    F     F_    0.142596 0.779522 0.574837 -0.578084
F10   F     F_    0.142588 0.779538 0.425206 -0.577761
F11   F     F_    0.143532 0.221397 0.578518 -0.577829
F12   F     F_    0.793203 0.286164 0.661158 -0.539179
F13   F     F_    0.141687 0.219563 0.428937 -0.578036
F14   F     F_    0.642648 0.279470 0.575048 -0.577752
F15   F     F_    0.642536 0.279589 0.425417 -0.578093
F16   F     F_    0.641707 0.719581 0.571151 -0.578025
F17   F     F_    0.643511 0.721377 0.421568 -0.577841
F18   F     F_    0.795015 0.715636 0.339072 -0.539153
F19   F     F_    0.791136 0.711768 0.661307 -0.539322
F20   F     F_    0.293071 0.786309 0.338832 -0.539185
F21   F     F_    0.293090 0.786276 0.661169 -0.539257
F22   F     F_    0.291095 0.211727 0.338691 -0.539323
F23   F     F_    0.295057 0.215677 0.660920 -0.539153
F24   F     F_    0.214657 0.704856 0.338444 -0.507808
H1    H     H_    0.012069 0.597224 0.076864 0.194051
H2    H     H_    0.271026 0.657694 0.417371 0.048941
H3    H     H_    0.272018 0.343302 0.579480 0.049043
H4    H     H_    0.269982 0.341277 0.414319 0.049073
H5    H     H_    0.771093 0.157620 0.582410 0.048941
H6    H     H_    0.770969 0.157751 0.417196 0.049181
H7    H     H_    0.770005 0.841299 0.585610 0.049078
H8    H     H_    0.771996 0.843282 0.420447 0.049039
H9    H     H_    0.842627 0.230099 0.584381 0.062245
H10   H     H_    0.842499 0.230234 0.415234 0.062358
H11   H     H_    0.841519 0.768800 0.587547 0.062103
H12   H     H_    0.012069 0.597223 0.923130 0.193848
H13   H     H_    0.843556 0.770829 0.418454 0.062497
H14   H     H_    0.342567 0.730158 0.584556 0.062371
H15   H     H_    0.342558 0.730175 0.415409 0.062231
H16   H     H_    0.343577 0.270849 0.581474 0.062502
H17   H     H_    0.341496 0.268778 0.412384 0.062097
H18   H     H_    0.722990 0.350515 0.559873 0.240018
H19   H     H_    0.722900 0.350610 0.440570 0.239873
H20   H     H_    0.722246 0.648734 0.556244 0.239934
H21   H     H_    0.723683 0.650165 0.436978 0.239948
H22   H     H_    0.222948 0.850557 0.559676 0.239873
H23   H     H_    0.007485 0.402311 0.076869 0.193847
H24   H     H_    0.222941 0.850569 0.440373 0.240017
H25   H     H_    0.223700 0.150181 0.563099 0.239945
H26   H     H_    0.222231 0.148720 0.443836 0.239936
H27   H     H_    0.078039 0.440798 0.923133 0.192370
H28   H     H_    0.078039 0.440798 0.076867 0.192078
H29   H     H_    0.080736 0.555474 0.923129 0.191978
H30   H     H_    0.080736 0.555474 0.076863 0.191840
H31   H     H_    0.577935 0.940660 0.923133 0.192098
H32   H     H_    0.577935 0.940661 0.076866 0.192375
H33   H     H_    0.580833 0.055332 0.923130 0.191840
H34   H     H_    0.007485 0.402311 0.923136 0.193831
H35   H     H_    0.580834 0.055332 0.076863 0.191954
H36   H     H_    0.909350 0.461979 0.076872 0.193305
H37   H     H_    0.909350 0.461978 0.923135 0.193374
H38   H     H_    0.911237 0.542219 0.076869 0.193435
H39   H     H_    0.911236 0.542218 0.923133 0.193451
H40   H     H_    0.409282 0.962138 0.076871 0.193371
H41   H     H_    0.409281 0.962138 0.923136 0.193298
H42   H     H_    0.411310 0.042374 0.076869 0.193455
H43   H     H_    0.411310 0.042374 0.923133 0.193436
H44   H     H_    0.512241 0.097203 0.076863 0.193851
H45   H     H_    0.512241 0.097203 0.923130 0.194058
H46   H     H_    0.507314 0.902297 0.076869 0.193822
H47   H     H_    0.507314 0.902297 0.923136 0.193849
H48   H     H_    0.271035 0.657677 0.582586 0.049182
N1    N     N_1   0.999850 0.500000 0.731150 -0.066407
N2    N     N_1   0.999850 0.500000 0.268850 -0.066471
N3    N     N_1   0.499850 0.000000 0.731150 -0.066467
N4    N     N_1   0.499850 0.000000 0.268850 -0.066412
O1    O     O_R   0.061440 0.438650 0.574260 -0.598761
O2    O     O_R   0.938580 0.438650 0.425740 -0.598748
O3    O     O_R   0.938580 0.561350 0.574260 -0.598820
O4    O     O_R   0.938580 0.561350 0.425740 -0.598577
O5    O     O_R   0.438580 0.938650 0.574260 -0.598750
O6    O     O_R   0.438580 0.938650 0.425740 -0.598634
O7    O     O_R   0.438580 0.061350 0.574260 -0.598585
O8    O     O_R   0.438580 0.061350 0.425740 -0.598813
O9    O     O_R   0.061440 0.438650 0.425740 -0.599546
O10   O     O_R   0.061440 0.561350 0.574260 -0.599151
O11   O     O_R   0.061440 0.561350 0.425740 -0.599145
O12   O     O_R   0.561440 0.938650 0.574260 -0.599525
O13   O     O_R   0.561440 0.938650 0.425740 -0.598782
O14   O     O_R   0.561440 0.061350 0.574260 -0.599110
O15   O     O_R   0.561440 0.061350 0.425740 -0.599186
O16   O     O_R   0.938580 0.438650 0.574260 -0.598637
Zn1   Zn    Zn3+2 0.000010 0.500000 0.599130 1.038723
Zn2   Zn    Zn3+2 0.000010 0.500000 0.400870 1.038390
Zn3   Zn    Zn3+2 0.500010 1.000000 0.599130 1.038414
Zn4   Zn    Zn3+2 0.500010 0.000000 0.400870 1.038700

loop_
_geom_bond_atom_site_label_1
_geom_bond_atom_site_label_2
_ccdc_geom_bond_type
C6    C32   S    
C11   C18   S    
C28   N2    T    
C40   C60   S    
C72   H21   S    
C50   C64   S    
C60   C73   S    
C39   C51   S    
C43   F22   S    
C47   F3    S    
C69   F14   S    
C4    C8    T    
O6    Zn4   S    
C66   F9    S    
C58   C76   S    
C20   C30   S    
C36   F12   S    
C40   C46   S    
C22   H37   S    
C50   F6    S    
O7    Zn3   S    
C46   C62   S    
N1    Zn1   S    
C16   H44   S    
C13   H12   S    
C26   H40   S    
C47   C63   S    
N4    Zn4   S    
C58   C71   S    
C41   F20   S    
C38   C52   S    
C68   C74   S    
C65   C70   S    
C45   C62   S    
N3    Zn3   S    
O2    Zn2   S    
C69   C71   S    
C51   C65   S    
C49   F5    S    
C52   F8    S    
O11   Zn2   S    
C35   O8    A    
C23   O13   A    
C34   O14   A    
C46   H48   S    
C52   H7    S    
C16   C17   S    
C39   H13   S    
C38   F19   S    
C50   H5    S    
C19   C27   S    
C9    C10   S    
C37   C58   S    
C59   C72   S    
C3    C60   S    
C24   H36   S    
O13   Zn4   S    
C1    O9    A    
C34   C55   S    
C27   N1    T    
C49   C64   S    
C32   O4    A    
C7    C33   S    
C72   H20   S    
C25   H43   S    
C41   H15   S    
C33   O5    A    
C54   C56   T    
C40   H14   S    
C9    H28   S    
C62   C66   S    
C36   C58   S    
C64   C67   S    
C14   C20   S    
C70   F17   S    
C18   C28   S    
C40   F21   S    
C46   F2    S    
C13   C19   S    
C2    C59   S    
C51   H8    S    
C48   C63   S    
C14   H32   S    
C24   H38   S    
C25   C26   S    
C48   H3    S    
C21   C29   S    
C4    C61   S    
C45   C53   T    
C17   C21   S    
C2    C6    T    
C8    C35   S    
C17   H45   S    
C1    C54   S    
C39   F18   S    
C29   N3    T    
C32   O3    A    
C37   C49   S    
O3    Zn1   S    
C30   N4    T    
C15   C21   S    
C10   C19   S    
C16   C20   S    
C73   H24   S    
C39   C59   S    
C19   C22   S    
C68   F13   S    
O8    Zn4   S    
C56   C63   S    
C25   H41   S    
C11   H1    S    
C42   C48   S    
C64   C69   S    
C1    O1    A    
C42   C61   S    
C37   H10   S    
C49   H6    S    
C43   H17   S    
O9    Zn2   S    
C42   H16   S    
O16   Zn1   S    
C17   H33   S    
C41   C44   S    
C18   C24   S    
N2    Zn2   S    
C10   H27   S    
C11   H30   S    
C51   F7    S    
C31   O2    A    
C36   C50   S    
C33   O6    A    
C43   C61   S    
C23   O12   A    
C23   C57   S    
C21   C25   S    
C63   C68   S    
C44   H2    S    
C47   H4    S    
C71   H18   S    
C70   F16   S    
C12   C53   S    
C41   C60   S    
C66   F10   S    
C55   C67   T    
O15   Zn4   S    
C61   C74   S    
C14   H46   S    
C3    C7    T    
C65   C75   S    
C71   H19   S    
C66   C73   S    
C44   C62   S    
C48   F4    S    
C5    C76   T    
C69   F15   S    
C42   F23   S    
O5    Zn3   S    
C12   O11   A    
C15   H47   S    
C11   C13   S    
C57   C75   T    
C74   H26   S    
O10   Zn1   S    
C20   C26   S    
C22   H39   S    
O4    Zn2   S    
C9    H23   S    
C44   F24   S    
C22   C24   S    
C35   O7    A    
C12   O10   A    
C38   C59   S    
C74   H25   S    
C9    C18   S    
O14   Zn3   S    
C10   H34   S    
C15   H31   S    
C31   O16   A    
C73   H22   S    
O1    Zn1   S    
C36   H9    S    
C68   F11   S    
C13   H29   S    
C14   C15   S    
O12   Zn3   S    
C70   C72   S    
C38   H11   S    
C26   H42   S    
C16   H35   S    
C43   C47   S    
C52   C65   S    
C34   O15   A    
C5    C31   S    
C37   F1    S    
