data_mof_unit_10519.cif
_audit_creation_date              2013-03-05T15:50:33-0500
_audit_creation_method            fapswitch 2.2
_symmetry_space_group_name_H-M    P1
_symmetry_Int_Tables_number       1
_space_group_crystal_system       triclinic
_cell_length_a                    9.599188
_cell_length_b                    10.859098
_cell_length_c                    13.541916
_cell_angle_alpha                 93.821368
_cell_angle_beta                  74.317644
_cell_angle_gamma                 89.933755
_cell_volume                      1355.75132066

loop_
_atom_site_label
_atom_site_type_symbol
_atom_site_description
_atom_site_fract_x
_atom_site_fract_y
_atom_site_fract_z
_atom_type_partial_charge
O1    O     O_R   0.381190 0.680360 0.500010 -0.599886
O2    O     O_R   0.618760 0.680340 0.500000 -0.571425
C1    C     C_R   0.500720 0.737365 0.494316 0.812492
O3    O     O_R   0.323240 0.499990 0.650990 -0.562733
O4    O     O_R   0.560820 0.499960 0.650980 -0.590782
C2    C     C_R   0.424482 0.500034 0.699068 0.784907
Cu1   Cu    Cu3+1 0.359340 0.500010 0.500010 0.932338
Cu2   Cu    Cu3+1 0.640660 0.499990 0.499990 0.961303
O5    O     O_R   0.381240 0.319660 0.500000 -0.614098
O6    O     O_R   0.618810 0.319640 0.499990 -0.618180
O7    O     O_R   0.439180 0.500040 0.349020 -0.606818
O8    O     O_R   0.676760 0.500010 0.349010 -0.540167
C3    C     C_R   0.496572 0.263355 0.507823 0.768230
C4    C     C_R   0.577455 0.495448 0.299648 0.829909
C5    C     C_R   0.807311 0.430905 0.021809 0.251033
H1    H     H_    0.816747 0.336928 0.826149 0.194772
C6    C     C_R   0.623181 0.481185 0.184572 -0.260657
C7    C     C_R   0.264276 0.584923 0.863858 -0.104421
C8    C     C_R   0.236342 0.617422 0.968543 -0.074274
C9    C     C_R   0.333423 0.582951 0.021973 -0.160922
C10   C     C_R   0.459092 0.512643 0.971339 0.099997
C11   C     C_R   0.485855 0.475575 0.865948 0.073923
C12   C     C_R   0.559487 0.478383 0.024208 0.035764
C13   C     C_R   0.698489 0.434599 0.969649 -0.039052
C14   C     C_R   0.719546 0.388165 0.867599 -0.141226
C15   C     C_R   0.610477 0.401209 0.818892 -0.214580
C16   C     C_R   0.517658 0.463596 0.129622 0.010383
C17   C     C_R   0.771940 0.472006 0.127460 0.220990
C18   C     C_R   0.387371 0.513578 0.811685 -0.093592
H2    H     H_    0.191574 0.619282 0.822713 0.167787
H3    H     H_    0.311419 0.613451 0.102566 0.161450
H4    H     H_    0.141031 0.672584 0.007820 0.173275
H5    H     H_    0.627115 0.353516 0.743957 0.171700
H6    H     H_    0.724915 0.887705 0.481591 0.166512
C19   C     C_R   0.240042 0.886024 0.477501 -0.166850
H7    H     H_    0.242713 0.798750 0.434065 0.175478
C20   C     C_R   0.106916 0.948808 0.508118 -0.165324
H8    H     H_    0.011621 0.906085 0.493978 0.137178
C21   C     C_R   0.096126 0.065170 0.558878 -0.128779
H9    H     H_    0.991812 0.111915 0.587072 0.136718
C22   C     C_R   0.220850 0.123697 0.569356 -0.136272
H10   H     H_    0.207079 0.213388 0.610769 0.176820
C23   C     C_R   0.358899 0.065795 0.528863 0.088353
C24   C     C_R   0.365450 0.938992 0.498088 0.095098
C25   C     C_R   0.496791 0.871939 0.489693 -0.114265
C26   C     C_R   0.623174 0.936065 0.489880 -0.195605
H11   H     H_    0.722939 0.110144 0.491451 0.164310
C27   C     C_R   0.621311 0.063550 0.498636 -0.221500
C28   C     C_R   0.490660 0.129793 0.516544 -0.106597
H12   H     H_    0.830883 0.655164 0.604878 0.137152
C29   C     C_R   0.902000 0.320849 0.375278 -0.076510
H13   H     H_    0.800256 0.324130 0.358303 0.191001
C30   C     C_R   0.991043 0.221917 0.326123 -0.169101
H14   H     H_    0.952007 0.151576 0.280279 0.161872
C31   C     C_R   0.131905 0.216615 0.332026 -0.190134
H15   H     H_    0.203164 0.141317 0.291741 0.155047
C32   C     C_R   0.185012 0.313005 0.383019 -0.164797
H16   H     H_    0.297974 0.312424 0.369539 0.193376
C33   C     C_R   0.095678 0.409026 0.441683 0.196639
C34   C     C_R   0.947375 0.410849 0.439814 0.220818
N1    N     N_R   0.852480 0.498790 0.499000 -0.202554
C35   C     C_R   0.904131 0.585349 0.557571 -0.047352
H17   H     H_    0.089604 0.655974 0.603869 0.142902
C36   C     C_R   0.052296 0.585778 0.557057 -0.055883
N2    N     N_R   0.148360 0.498710 0.498970 -0.203437
N3    N     N_R   0.884675 0.509611 0.173860 0.138764
O9    O     O_R   0.883170 0.621828 0.214416 -0.372993
O10   O     O_R   0.996664 0.438373 0.165856 -0.346114
N4    N     N_R   0.952144 0.391242 0.967829 0.140612
O11   O     O_R   0.008774 0.295014 0.995720 -0.341036
O12   O     O_R   0.015322 0.434427 0.879929 -0.406749
C37   C     C_3   0.390094 0.380670 0.170415 -0.357111
C38   C     C_3   0.346478 0.292352 0.090414 -0.712612
H18   H     H_    0.279963 0.340442 0.049035 0.302337
H19   H     H_    0.443507 0.248445 0.034790 0.236162
H20   H     H_    0.279322 0.217439 0.128809 0.236587
H21   H     H_    0.426524 0.317265 0.219314 0.184217
H22   H     H_    0.294873 0.437537 0.214878 0.246180

loop_
_geom_bond_atom_site_label_1
_geom_bond_atom_site_label_2
_geom_bond_distance
_ccdc_geom_bond_type
N3    O10   1.299894 A    
C31   H15   1.082407 S    
C11   C18   1.420939 A    
C38   H19   1.110876 S    
C22   H10   1.080475 S    
C8    C9    1.389921 A    
C32   H16   1.049750 S    
Cu1   Cu2   2.700370 S    
C21   C22   1.392489 A    
C30   H14   1.082812 S    
Cu1   O7    1.980169 S    
C20   H8    1.082815 S    
C19   C20   1.394145 A    
O4    C2    1.294620 A    
O7    C4    1.314137 A    
C32   C33   1.404611 A    
C7    C8    1.390586 A    
C38   H18   1.107252 S    
N4    O12   1.299766 A    
O5    C3    1.296605 A    
C35   C36   1.420408 A    
C19   H7    1.078097 S    
C37   H22   1.109484 S    
C12   C13   1.403945 A    
H6    C26   1.083466 S    
C12   C16   1.394851 A    
Cu2   N1    2.029738 S    
N3    O9    1.301245 A    
C33   C34   1.430783 A    
C10   C11   1.410628 A    
C22   C23   1.418226 A    
C4    C6    1.497660 S    
N4    O11   1.300915 A    
O3    Cu1   1.979228 S    
C8    H4    1.082569 S    
C30   C31   1.377281 A    
C5    N4    1.435260 S    
C26   C27   1.381224 A    
C29   H13   1.063180 S    
C6    C16   1.416060 A    
C13   C14   1.400273 A    
O3    C2    1.307820 A    
C21   H9    1.082785 S    
C23   C28   1.419134 A    
C14   C15   1.391663 A    
C25   C26   1.400025 A    
C1    C25   1.467722 S    
C34   N1    1.373089 A    
C29   C30   1.386645 A    
C17   N3    1.437723 S    
C23   C24   1.408132 A    
C37   H21   1.104641 S    
Cu1   N2    2.029149 S    
C15   H5    1.079630 S    
H11   C27   1.083305 S    
Cu2   O8    1.979228 S    
C7    C18   1.403288 A    
C19   C24   1.421048 A    
C3    C28   1.462908 S    
C27   C28   1.399772 A    
O8    C4    1.303127 A    
C31   C32   1.388356 A    
C7    H2    1.083522 S    
H12   C35   1.081696 S    
C38   H20   1.106375 S    
C24   C25   1.428988 A    
H1    C14   1.081321 S    
Cu1   O5    1.969434 S    
C5    C13   1.412191 A    
O1    Cu1   1.969880 S    
C6    C17   1.428123 A    
O2    Cu2   1.969435 S    
C37   C38   1.541560 S    
O6    C3    1.305633 A    
O4    Cu2   1.980169 S    
C36   N2    1.367379 A    
C10   C12   1.409756 A    
O2    C1    1.313454 A    
C20   C21   1.387558 A    
C33   N2    1.385110 A    
C5    C17   1.418930 A    
N1    C35   1.368483 A    
H17   C36   1.081724 S    
C2    C18   1.466493 S    
C9    C10   1.410387 A    
Cu2   O6    1.969879 S    
C11   C15   1.416454 A    
C29   C34   1.414768 A    
O1    C1    1.290666 A    
C16   C37   1.522717 S    
C9    H3    1.082810 S    
