data_mof_unit_9245.cif
_audit_creation_date              2012-12-10T18:43:06-0500
_audit_creation_method            fapswitch 2.2
_symmetry_space_group_name_H-M    P1
_symmetry_Int_Tables_number       1
_space_group_crystal_system       triclinic
_cell_length_a                    10.688734
_cell_length_b                    9.843076
_cell_length_c                    10.644575
_cell_angle_alpha                 90.733183
_cell_angle_beta                  89.94503
_cell_angle_gamma                 89.485018
_cell_volume                      1119.7783894

loop_
_atom_site_label
_atom_site_type_symbol
_atom_type_description
_atom_site_fract_x
_atom_site_fract_y
_atom_site_fract_z
_atom_type_partial_charge
C1    C     C_R   0.259909 0.500694 0.498099 0.912765
C2    C     C_R   0.739789 0.499323 0.497235 0.918174
C3    C     C_R   0.498754 0.498930 0.262071 0.988696
C4    C     C_R   0.490199 0.500893 0.737603 0.980368
C5    C     C_2   0.423780 0.395649 0.932928 0.470720
C6    C     C_2   0.415299 0.408416 0.069201 0.494802
C7    C     C_2   0.456158 0.505884 0.867610 -0.567175
C8    C     C_2   0.492373 0.495170 0.129016 -0.520410
C9    C     C_R   0.064632 0.396446 0.552562 -0.281475
C10   C     C_R   0.936676 0.395670 0.552701 -0.265970
C11   C     C_R   0.871912 0.497952 0.490424 -0.196371
C12   C     C_R   0.127258 0.502139 0.494012 -0.199634
C13   C     C_R   0.933649 0.598953 0.422995 0.420207
C14   C     C_R   0.062819 0.606730 0.431674 0.401342
C15   C     C_R   0.560690 0.072609 0.591956 -0.050324
C16   C     C_R   0.439424 0.071256 0.407977 -0.083276
C17   C     C_R   0.560585 0.928756 0.592020 -0.060385
C18   C     C_R   0.439908 0.927404 0.407696 -0.075539
H1    H     H_    0.452802 0.606552 0.910749 0.134339
H2    H     H_    0.555227 0.562804 0.080520 0.109685
H3    H     H_    0.114542 0.316255 0.600703 0.172804
H4    H     H_    0.888327 0.316561 0.602830 0.181100
H5    H     H_    0.609380 0.127558 0.665423 0.147722
H6    H     H_    0.390723 0.125114 0.334523 0.179109
H7    H     H_    0.609183 0.874862 0.665527 0.130657
H8    H     H_    0.392153 0.872400 0.333669 0.156663
N1    N     N_R   0.500000 0.857200 0.500000 -0.079505
N2    N     N_R   0.500000 0.142810 0.500000 -0.087649
O1    O     O_R   0.316770 0.614620 0.499990 -0.594038
O2    O     O_R   0.683230 0.614620 0.500010 -0.575694
O3    O     O_R   0.316800 0.385290 0.500000 -0.633612
O4    O     O_R   0.683200 0.385290 0.500000 -0.637596
O5    O     O_R   0.500000 0.614630 0.319080 -0.617642
O6    O     O_R   0.500000 0.614630 0.680920 -0.640920
O7    O     O_R   0.500030 0.385300 0.319080 -0.572876
O8    O     O_R   0.499970 0.385300 0.680920 -0.571295
Zn1   Zn    Zn3+2 0.500000 0.653120 0.500000 0.970169
Zn2   Zn    Zn3+2 0.500000 0.346880 0.500000 0.967624
O9    O     O_3   0.416693 0.267519 0.877971 -0.565938
C19   C     C_3   0.293045 0.246516 0.836486 -0.232967
H9    H     H_    0.257151 0.332515 0.779415 0.129338
H10   H     H_    0.229805 0.228529 0.917289 0.172514
H11   H     H_    0.291808 0.154165 0.775659 0.174052
O10   O     O_3   0.340142 0.319442 0.134432 -0.582001
C20   C     C_3   0.224257 0.384528 0.158227 -0.337964
H12   H     H_    0.175623 0.410983 0.069300 0.137865
H13   H     H_    0.235748 0.477280 0.217758 0.180305
H14   H     H_    0.163529 0.313847 0.210360 0.194248
O11   O     O_3   0.868084 0.692211 0.351748 -0.587035
C21   C     C_3   0.852847 0.637203 0.229815 -0.261143
H15   H     H_    0.944858 0.618738 0.183210 0.165359
H16   H     H_    0.797683 0.541827 0.231255 0.127687
H17   H     H_    0.800086 0.711558 0.172512 0.188072
O12   O     O_3   0.126426 0.706659 0.367826 -0.604712
C22   C     C_3   0.114646 0.830496 0.435510 -0.232315
H18   H     H_    0.165995 0.910019 0.384357 0.167122
H19   H     H_    0.156393 0.822609 0.530915 0.151639
H20   H     H_    0.015717 0.865386 0.442893 0.190313

loop_
_geom_bond_atom_site_label_1
_geom_bond_atom_site_label_2
_ccdc_geom_bond_type
C16   N2    A    
C21   H16   S    
C22   H18   S    
C4    O8    A    
C15   C17   A    
C3    O7    A    
O6    Zn1   S    
C9    C10   A    
C18   H8    S    
O3    Zn2   S    
N2    Zn2   S    
C2    O2    A    
C17   H7    S    
O8    Zn2   S    
C21   H15   S    
C16   H6    S    
C16   C18   A    
C6    O10   S    
C13   C14   A    
C10   H4    S    
C11   C13   A    
C9    H3    S    
C15   N2    A    
C8    H2    S    
C1    C12   S    
N1    Zn1   S    
C4    C7    S    
C13   O11   S    
C2    C11   S    
C15   H5    S    
C19   H9    S    
C14   O12   S    
C12   C14   A    
C3    C8    S    
C7    H1    S    
O4    Zn2   S    
C22   H19   S    
C5    C6    S    
C9    C12   A    
C4    O6    A    
C20   H14   S    
C21   H17   S    
C10   C11   A    
C3    O5    A    
C17   N1    A    
C1    O3    A    
O7    Zn2   S    
C20   H13   S    
O10   C20   S    
C2    O4    A    
O11   C21   S    
C22   H20   S    
O1    Zn1   S    
O9    C19   S    
C5    C7    D    
C5    O9    S    
O12   C22   S    
C6    C8    D    
C1    O1    A    
C20   H12   S    
C19   H11   S    
O5    Zn1   S    
C18   N1    A    
O2    Zn1   S    
C19   H10   S    
