data_mof_unit_15338.cif
_audit_creation_date              2012-12-10T20:37:25-0500
_audit_creation_method            fapswitch 2.2
_symmetry_space_group_name_H-M    P1
_symmetry_Int_Tables_number       1
_space_group_crystal_system       triclinic
_cell_length_a                    15.718799
_cell_length_b                    10.677652
_cell_length_c                    9.856167
_cell_angle_alpha                 89.978766
_cell_angle_beta                  89.552155
_cell_angle_gamma                 90.044155
_cell_volume                      1654.20660216

loop_
_atom_site_label
_atom_site_type_symbol
_atom_type_description
_atom_site_fract_x
_atom_site_fract_y
_atom_site_fract_z
_atom_type_partial_charge
C1    C     C_R   0.502501 0.259909 0.500033 0.877502
C2    C     C_3   0.082876 0.500432 0.503610 0.078258
C3    C     C_3   0.970377 0.546405 0.614122 0.582330
C4    C     C_3   0.917299 0.498371 0.496095 0.076089
C5    C     C_3   0.027556 0.619264 0.514006 -0.317085
C6    C     C_3   0.973654 0.570326 0.393684 -0.329525
C7    C     C_1   0.173717 0.500452 0.503492 0.001744
C8    C     C_1   0.826408 0.498629 0.496378 0.004610
C9    C     C_R   0.514780 0.063795 0.623148 0.143179
C10   C     C_R   0.515942 0.128544 0.500557 -0.103940
C11   C     C_R   0.533423 0.064838 0.379064 -0.227111
C12   C     C_R   0.337895 0.499993 0.500541 0.906071
C13   C     C_R   0.533595 0.935317 0.379052 -0.225662
C14   C     C_R   0.516246 0.871423 0.500523 -0.101739
C15   C     C_R   0.515000 0.936056 0.623150 0.130717
C16   C     C_3   0.453404 0.928573 0.739265 -0.476384
C17   C     C_3   0.453021 0.070537 0.739066 -0.492173
C18   C     C_R   0.458944 0.407505 0.071797 0.205206
C19   C     C_R   0.546668 0.584709 0.071385 -0.128793
C20   C     C_R   0.546652 0.584749 0.927339 -0.124507
C21   C     C_R   0.458902 0.407563 0.929183 0.215284
C22   C     C_3   0.366166 0.378478 0.924761 -0.520351
C23   C     C_R   0.502675 0.740068 0.499956 0.877232
C24   C     C_3   0.366270 0.378148 0.078783 -0.482914
C25   C     C_R   0.662141 0.499926 0.499460 0.898059
C26   C     C_3   0.972657 0.379501 0.485623 -0.315606
C27   C     C_3   0.029876 0.452383 0.385548 0.580810
C28   C     C_1   0.249002 0.500249 0.502134 -0.194408
C29   C     C_1   0.751092 0.499214 0.497841 -0.177726
C30   C     C_3   0.026567 0.428446 0.605954 -0.330479
H1    H     H_    0.482761 0.887798 0.831539 0.202764
H2    H     H_    0.390757 0.111285 0.709505 0.198847
H3    H     H_    0.481971 0.111895 0.831363 0.204586
H4    H     H_    0.582998 0.654609 0.125318 0.143293
H5    H     H_    0.582947 0.654705 0.872462 0.150504
H6    H     H_    0.328048 0.456097 0.881011 0.222112
H7    H     H_    0.353447 0.284724 0.880503 0.198077
H8    H     H_    0.328048 0.455443 0.123846 0.231590
H9    H     H_    0.353946 0.284105 0.123205 0.204050
H10   H     H_    0.948206 0.282814 0.471860 0.154849
H11   H     H_    0.949960 0.626395 0.306969 0.153086
H12   H     H_    0.052030 0.715950 0.527688 0.153964
H13   H     H_    0.050308 0.372359 0.692624 0.152473
H14   H     H_    0.541045 0.113929 0.283513 0.170955
H15   H     H_    0.541325 0.886334 0.283505 0.166780
H16   H     H_    0.391321 0.886775 0.710208 0.203805
N1    N     N_R   0.499430 0.499140 0.142800 -0.106611
N2    N     N_R   0.499430 0.499180 0.857150 -0.106120
O1    O     O_R   0.500010 0.316790 0.614690 -0.615899
O2    O     O_R   0.500000 0.316760 0.385350 -0.623935
O3    O     O_R   0.376780 0.500010 0.614650 -0.621237
O4    O     O_R   0.376770 0.499970 0.385310 -0.607112
O5    O     O_R   0.500000 0.683240 0.614650 -0.621390
O6    O     O_R   0.499990 0.683210 0.385310 -0.626158
O7    O     O_R   0.623230 0.500030 0.614690 -0.605458
O8    O     O_R   0.623220 0.499990 0.385350 -0.620037
Zn1   Zn    Zn3+2 0.500010 0.500020 0.653130 0.948699
Zn2   Zn    Zn3+2 0.499990 0.499980 0.346870 0.946510
O9    O     O_3   0.069428 0.402928 0.268313 -0.607239
C31   C     C_3   0.006977 0.371846 0.172176 0.100455
H17   H     H_    0.972314 0.456983 0.138595 0.140232
H18   H     H_    0.960789 0.302614 0.214296 0.136156
C32   C     C_3   0.050073 0.313806 0.048628 -0.824674
H19   H     H_    0.082236 0.225300 0.077701 0.257336
H20   H     H_    0.001938 0.293153 0.969818 0.207117
H21   H     H_    0.098121 0.379495 0.005899 0.250551
O10   O     O_3   0.931340 0.596024 0.731719 -0.604679
C33   C     C_3   0.994308 0.627055 0.827088 0.100647
H22   H     H_    0.040587 0.695769 0.784224 0.134118
H23   H     H_    0.028817 0.541796 0.860701 0.139260
C34   C     C_3   0.952019 0.685947 0.950836 -0.825148
H24   H     H_    0.904007 0.620766 0.994538 0.250647
H25   H     H_    0.000621 0.706621 0.028908 0.206558
H26   H     H_    0.920009 0.774550 0.921694 0.256991

loop_
_geom_bond_atom_site_label_1
_geom_bond_atom_site_label_2
_ccdc_geom_bond_type
C5    H12   S    
C32   H20   S    
C18   C21   A    
C2    C7    S    
C25   O8    A    
C4    C8    S    
C18   N1    A    
N2    Zn1   S    
C16   H1    S    
C26   C27   S    
C12   C28   S    
C31   C32   S    
C18   C24   S    
C8    C29   T    
O6    Zn2   S    
C5    C6    S    
C19   N1    A    
C15   C16   S    
C24   H9    S    
O1    Zn1   S    
C31   H18   S    
C20   H5    S    
C19   C20   A    
C16   C17   S    
C6    H11   S    
C24   H8    S    
C2    C27   S    
O3    Zn1   S    
C1    O2    A    
C21   N2    A    
C32   H21   S    
O9    C31   S    
C13   C14   A    
C17   H3    S    
C12   O4    A    
C23   O5    A    
C25   C29   S    
O10   C33   S    
O2    Zn2   S    
C4    C6    S    
C16   H16   S    
C34   H25   S    
O5    Zn1   S    
C33   H22   S    
C22   H7    S    
C7    C28   T    
C31   H17   S    
C14   C23   S    
C3    C30   S    
C6    C27   S    
C11   H14   S    
C20   N2    A    
O4    Zn2   S    
C9    C17   S    
C26   C30   S    
O7    Zn1   S    
C22   C24   S    
C30   H13   S    
C2    C5    S    
C3    C4    S    
C12   O3    A    
C23   O6    A    
C9    C10   A    
C3    O10   S    
C1    C10   S    
C25   O7    A    
C3    C5    S    
C19   H4    S    
C34   H26   S    
C4    C26   S    
C22   H6    S    
C2    C30   S    
C9    C15   A    
C34   H24   S    
C27   O9    S    
N1    Zn2   S    
C13   H15   S    
C11   C13   A    
C26   H10   S    
C33   C34   S    
O8    Zn2   S    
C10   C11   A    
C32   H19   S    
C33   H23   S    
C17   H2    S    
C14   C15   A    
C21   C22   S    
C1    O1    A    
