data_mof_unit_65869.cif
_audit_creation_date              2012-10-26T19:16:48-0400
_audit_creation_method            fapswitch 2.2
_symmetry_space_group_name_H-M    P1
_symmetry_Int_Tables_number       1
_space_group_crystal_system       triclinic
_cell_length_a                    13.90235
_cell_length_b                    14.773019
_cell_length_c                    15.998155
_cell_angle_alpha                 89.978618
_cell_angle_beta                  89.96359
_cell_angle_gamma                 84.843635
_cell_volume                      3272.39836635

loop_
_atom_site_label
_atom_site_type_symbol
_atom_type_description
_atom_site_fract_x
_atom_site_fract_y
_atom_site_fract_z
_atom_type_partial_charge
C1    C     C_R   0.499981 0.500008 0.659161 0.549460
C2    C     C_R   0.444561 0.956133 0.442513 -0.109637
C3    C     C_1   0.499848 0.197352 0.499790 0.175134
C4    C     C_1   0.500152 0.802648 0.500210 0.175134
C5    C     C_R   0.683472 0.485448 0.499978 0.547292
C6    C     C_R   0.316528 0.514552 0.500022 0.547292
C7    C     C_1   0.213501 0.523473 0.500047 0.002765
C8    C     C_1   0.786499 0.476527 0.499953 0.002764
C9    C     C_2   0.023270 0.537535 0.500115 -0.111066
C10   C     C_2   0.976729 0.462465 0.499885 -0.111066
C11   C     C_1   0.873234 0.469470 0.499924 -0.032516
C12   C     C_R   0.500019 0.499992 0.340839 0.549461
C13   C     C_1   0.126766 0.530530 0.500076 -0.032516
C14   C     C_R   0.495692 0.418309 0.043659 -0.096071
C15   C     C_R   0.504308 0.581691 0.956341 -0.096071
C16   C     C_R   0.499991 0.500009 0.087212 0.037378
C17   C     C_R   0.500009 0.499991 0.912788 0.037378
C18   C     C_R   0.504298 0.581701 0.043582 -0.099429
C19   C     C_R   0.495702 0.418299 0.956418 -0.099429
C20   C     C_1   0.499995 0.500016 0.176667 -0.044765
C21   C     C_1   0.500004 0.499984 0.823333 -0.044765
C22   C     C_1   0.499994 0.499986 0.748286 -0.008967
C23   C     C_1   0.500006 0.500014 0.251714 -0.008967
C24   C     C_R   0.443686 0.051974 0.441565 0.099028
C25   C     C_R   0.556313 0.948026 0.558435 0.099028
C26   C     C_R   0.499426 0.097229 0.499367 -0.010453
C27   C     C_R   0.500574 0.902770 0.500633 -0.010453
C28   C     C_R   0.555439 0.043867 0.557487 -0.109637
Cu1   Cu    Cu3+1 0.499970 0.410780 0.500000 1.029113
Cu2   Cu    Cu3+1 0.500030 0.589220 0.500000 1.029113
H1    H     H_    0.016045 0.395472 0.499662 0.149430
H2    H     H_    0.983955 0.604528 0.500338 0.149430
H3    H     H_    0.492363 0.354841 0.923054 0.123716
H4    H     H_    0.507637 0.645158 0.076946 0.123716
H5    H     H_    0.492346 0.354858 0.077082 0.130277
H6    H     H_    0.507654 0.645142 0.922918 0.130277
H7    H     H_    0.401131 0.923242 0.397482 0.141597
H8    H     H_    0.598868 0.076758 0.602518 0.141597
I1    I     I_    0.356567 0.125123 0.351137 -0.347429
I2    I     I_    0.643432 0.874877 0.648863 -0.347429
N1    N     N_1   0.499970 0.723290 0.500020 -0.175769
N2    N     N_1   0.500030 0.276710 0.499980 -0.175769
O1    O     O_R   0.499950 0.424680 0.619690 -0.495339
O2    O     O_R   0.500050 0.575320 0.380310 -0.495339
O3    O     O_R   0.500000 0.575360 0.619690 -0.478986
O4    O     O_R   0.500000 0.424640 0.380310 -0.478985
O5    O     O_R   0.637820 0.414010 0.499980 -0.493328
O6    O     O_R   0.362180 0.585990 0.500020 -0.493329
O7    O     O_R   0.637870 0.564690 0.499980 -0.481436
O8    O     O_R   0.362130 0.435310 0.500020 -0.481437

loop_
_geom_bond_atom_site_label_1
_geom_bond_atom_site_label_2
_ccdc_geom_bond_type
C5    C8    S    
Cu2   N1    S    
C2    C27   A    
Cu1   N2    S    
C25   C27   A    
C18   H4    S    
C9    C10   D    
C15   C18   A    
C26   C28   A    
C12   C23   S    
C20   C23   T    
C28   H8    S    
Cu1   O4    S    
C16   C20   S    
Cu2   O2    S    
C4    C27   S    
C1    C22   S    
C3    N2    T    
C21   C22   T    
Cu1   O1    S    
C25   C28   A    
C5    O5    A    
C2    H7    S    
C1    O3    A    
Cu1   Cu2   S    
C6    O6    A    
Cu1   O5    S    
C8    C11   T    
C10   H1    S    
Cu2   O6    S    
C17   C19   A    
Cu2   O7    S    
C24   C26   A    
C6    C7    S    
Cu1   O8    S    
C25   I2    S    
C2    C24   A    
C14   C16   A    
C5    O7    A    
C10   C11   S    
C15   H6    S    
C7    C13   T    
C24   I1    S    
C16   C18   A    
C4    N1    T    
C14   H5    S    
C15   C17   A    
C9    C13   S    
C12   O2    A    
Cu2   O3    S    
C9    H2    S    
C14   C19   A    
C1    O1    A    
C3    C26   S    
C6    O8    A    
C19   H3    S    
C12   O4    A    
C17   C21   S    
