data_mof_unit_68509.cif
_audit_creation_date              2012-12-11T16:58:02-0500
_audit_creation_method            fapswitch 2.2
_symmetry_space_group_name_H-M    P1
_symmetry_Int_Tables_number       1
_space_group_crystal_system       triclinic
_cell_length_a                    8.610459
_cell_length_b                    14.490864
_cell_length_c                    16.547811
_cell_angle_alpha                 94.639495
_cell_angle_beta                  92.71342
_cell_angle_gamma                 91.843737
_cell_volume                      2054.30266704

loop_
_atom_site_label
_atom_site_type_symbol
_atom_type_description
_atom_site_fract_x
_atom_site_fract_y
_atom_site_fract_z
_atom_type_partial_charge
Ba1   Ba    Ba6+2 0.152520 0.545410 0.458840 0.922082
Ba2   Ba    Ba6+2 0.657660 0.454590 0.541090 1.133803
C1    C     C_3   0.421210 0.804314 0.156491 0.818703
C2    C     C_3   0.396868 0.760633 0.236663 0.491624
C3    C     C_3   0.520974 0.741050 0.652269 0.914115
C4    C     C_3   0.572228 0.840266 0.681010 -0.265372
C5    C     C_3   0.894662 0.224449 0.794761 0.776641
C6    C     C_3   0.944423 0.186525 0.875676 1.096001
C7    C     C_3   0.348189 0.204521 0.754773 0.791710
C8    C     C_3   0.389306 0.203728 0.846759 1.194268
C9    C     C_R   0.004758 0.940376 0.542264 0.663399
C10   C     C_R   0.818299 0.802807 0.505488 0.014146
C11   C     C_R   0.669833 0.772039 0.472596 0.157207
C12   C     C_3   0.959614 0.762158 0.198801 1.173510
C13   C     C_R   0.566814 0.834294 0.442076 0.083508
C14   C     C_R   0.612582 0.926853 0.439734 -0.175689
C15   C     C_R   0.759919 0.961212 0.469631 -0.113918
C16   C     C_R   0.863195 0.900420 0.506418 -0.147704
C17   C     C_R   0.947917 0.094216 0.493772 -0.123083
C18   C     C_R   0.051049 0.033909 0.532845 -0.143702
C19   C     C_R   0.995067 0.190496 0.488970 0.074602
C20   C     C_R   0.147913 0.217007 0.515661 -0.408180
C21   C     C_R   0.246129 0.160251 0.557388 0.067417
C22   C     C_R   0.198877 0.068594 0.564600 0.670880
C23   C     C_3   0.984348 0.813245 0.121808 0.867128
C24   C     C_R   0.802894 0.055715 0.462839 0.074046
C25   C     C_R   0.622957 0.490916 0.245234 0.076883
C26   C     C_R   0.462263 0.485923 0.238623 -0.062105
C27   C     C_R   0.391011 0.501367 0.161684 0.290368
C28   C     C_R   0.483173 0.542425 0.103151 0.175476
C29   C     C_R   0.635979 0.576102 0.127821 0.240061
C30   C     C_R   0.700947 0.556619 0.204290 -0.028889
C31   C     C_R   0.377039 0.529701 0.853181 -0.246907
C32   C     C_R   0.331950 0.521755 0.770224 0.005410
C33   C     C_R   0.277475 0.494065 0.910008 0.339946
C34   C     C_3   0.977771 0.276021 0.300088 0.206626
C35   C     C_R   0.189759 0.478009 0.743749 0.148869
C36   C     C_R   0.091288 0.441504 0.798533 -0.027146
C37   C     C_R   0.134964 0.449770 0.881558 -0.207126
C38   C     C_3   0.011011 0.180945 0.258670 0.926912
C39   C     C_3   0.010567 0.669006 0.699551 0.293294
C40   C     C_3   0.003908 0.691742 0.791595 0.291099
C41   C     C_3   0.366071 0.249594 0.358470 0.857567
C42   C     C_3   0.456467 0.164828 0.334293 0.839603
H1    H     H_    0.300124 0.707643 0.228041 0.096529
H2    H     H_    0.122863 0.184948 0.228459 0.026024
H3    H     H_    0.133470 0.662045 0.683539 0.054268
H4    H     H_    0.942891 0.603038 0.683409 0.066292
H5    H     H_    0.083985 0.648118 0.825415 -0.058365
H6    H     H_    0.884897 0.672641 0.809185 0.069037
H7    H     H_    0.250205 0.222420 0.370286 -0.046837
H8    H     H_    0.582204 0.184507 0.338845 0.002814
H9    H     H_    0.504471 0.725270 0.254141 -0.884336
H10   H     H_    0.543694 0.830996 0.156687 0.039214
H11   H     H_    0.624619 0.704612 0.630796 -0.005286
H12   H     H_    0.662726 0.840683 0.731169 0.075255
H13   H     H_    0.620895 0.875816 0.630464 0.069106
H14   H     H_    0.471258 0.878962 0.702845 0.124566
H15   H     H_    0.002859 0.236580 0.762122 -0.118742
H16   H     H_    0.006084 0.241967 0.916258 -0.039727
H17   H     H_    0.320546 0.277085 0.745498 -0.103481
H18   H     H_    0.533960 0.970332 0.410594 0.181584
H19   H     H_    0.192887 0.282913 0.501150 0.099951
H20   H     H_    0.722938 0.098679 0.432326 0.132267
H21   H     H_    0.487043 0.564563 0.872876 0.126794
H22   H     H_    0.056883 0.423295 0.924343 0.084001
H23   H     H_    0.089470 0.786197 0.092856 0.025063
H24   H     H_    0.966106 0.324334 0.252159 0.064532
H25   H     H_    0.075344 0.306922 0.339018 -0.009693
N1    N     N_2   0.434567 0.546644 0.019230 -0.170555
N2    N     N_2   0.317237 0.497379 0.995066 -0.204721
O1    O     O_2   0.106830 0.727750 0.529310 -0.300733
O2    O     O_3   0.356272 0.306276 0.293322 -0.707160
O3    O     O_3   0.993071 0.668052 0.179474 -0.606685
O4    O     O_2   0.703470 0.272190 0.470670 -0.353757
O5    O     O_3   0.946880 0.388430 0.463740 -0.477233
O6    O     O_3   0.457930 0.329380 0.613970 -0.463700
O7    O     O_3   0.838511 0.272351 0.340670 -0.555497
O8    O     O_3   0.367050 0.547540 0.594170 -0.385503
O9    O     O_3   0.869040 0.376330 0.652460 -0.441173
O10   O     O_2   0.788935 0.476836 0.786916 -0.474889
O11   O     O_3   0.816843 0.307236 0.811487 -0.613614
O12   O     O_3   0.863420 0.611560 0.536200 -0.463247
O13   O     O_3   0.443250 0.452450 0.405760 -0.388075
O14   O     O_2   0.617170 0.545280 0.694550 -0.431895
O15   O     O_3   0.457032 0.698998 0.716965 -0.696067
O16   O     O_2   0.572784 0.168416 0.562130 -0.408303
O17   O     O_3   0.471425 0.176138 0.706693 -0.602680
O18   O     O_3   0.352370 0.670610 0.385960 -0.435276
O19   O     O_2   0.240837 0.834253 0.437285 -0.324120
O20   O     O_3   0.945478 0.740599 0.659421 -0.579682
O21   O     O_3   0.359821 0.830731 0.295960 -0.531747
O22   O     O_2   0.193140 0.454660 0.305430 -0.412368
O23   O     O_3   0.941260 0.623660 0.347470 -0.464809
O24   O     O_2   0.985353 0.502591 0.222303 -0.396945
P1    P     P_3+3 0.934880 0.713230 0.554140 1.146523
P2    P     P_3+3 0.367500 0.426600 0.319160 1.106383
P3    P     P_3+3 0.901002 0.592605 0.241630 1.130217
P4    P     P_3+3 0.875420 0.286760 0.445790 1.051428
P5    P     P_3+3 0.895148 0.397819 0.760234 1.003885
P6    P     P_3+3 0.378887 0.791419 0.393067 1.202170
P7    P     P_3+3 0.443709 0.578696 0.694864 1.054676
P8    P     P_3+3 0.434020 0.208247 0.607463 1.190809
F1    F     F_    0.895522 0.153857 0.199979 -0.735468
F2    F     F_    0.019556 0.115156 0.314503 -0.679562
O25   O     O_3   0.030417 0.787366 0.814990 -0.574928
C43   C     C_3   0.189330 0.812807 0.811516 0.133562
H26   H     H_    0.266295 0.765995 0.843652 0.006671
H27   H     H_    0.209416 0.883565 0.841857 0.136062
H28   H     H_    0.221220 0.815312 0.747499 0.162453
F3    F     F_    0.429603 0.292193 0.430138 -0.699937
O26   O     O_3   0.387026 0.737662 0.090512 -0.658534
C44   C     C_3   0.429935 0.773447 0.017608 0.181497
H29   H     H_    0.557289 0.788967 0.018360 0.149261
H30   H     H_    0.364271 0.836015 0.005154 0.073989
H31   H     H_    0.401059 0.720237 0.966738 0.080332
F4    F     F_    0.422680 0.100967 0.388761 -0.746198
O27   O     O_3   0.408631 0.129120 0.254675 -0.670046
C45   C     C_3   0.508217 0.058766 0.228124 0.225270
H32   H     H_    0.476226 0.036761 0.163602 0.137831
H33   H     H_    0.494677 0.997542 0.263726 0.122784
H34   H     H_    0.631887 0.083705 0.231210 0.080347
F5    F     F_    0.409393 0.742664 0.589635 -0.643285
F6    F     F_    0.325079 0.878518 0.150847 -0.721649
O28   O     O_3   0.003830 0.909798 0.142080 -0.609131
C46   C     C_3   0.024296 0.956427 0.071459 0.370703
H35   H     H_    0.913393 0.956144 0.034188 0.107064
H36   H     H_    0.117883 0.926555 0.034438 0.047882
H37   H     H_    0.059173 0.029729 0.090002 0.119896
O29   O     O_3   0.787161 0.160157 0.751931 -0.615071
C47   C     C_3   0.857284 0.109168 0.688642 0.211178
H38   H     H_    0.949346 0.065295 0.712599 0.145130
H39   H     H_    0.904525 0.156562 0.645763 0.011055
H40   H     H_    0.767570 0.062386 0.655027 0.081240
F7    F     F_    0.817336 0.155103 0.914673 -0.727296
F8    F     F_    0.041923 0.113509 0.862583 -0.653548
F9    F     F_    0.219321 0.146789 0.734431 -0.740220
F10   F     F_    0.278959 0.257584 0.884530 -0.791630
O30   O     O_3   0.540228 0.244399 0.865583 -0.647857
C48   C     C_3   0.558860 0.277239 0.948497 0.329868
H41   H     H_    0.682142 0.299689 0.962586 0.061375
H42   H     H_    0.528900 0.222464 0.989120 0.080357
H43   H     H_    0.489325 0.339409 0.961518 0.046302
F11   F     F_    0.065945 0.796964 0.260165 -0.702339
O31   O     O_3   0.374798 0.114033 0.875666 -0.576694
C49   C     C_3   0.472196 0.049303 0.837260 0.088389
H44   H     H_    0.592564 0.077016 0.833486 0.192686
H45   H     H_    0.422044 0.024397 0.776118 0.154516
H46   H     H_    0.478333 0.988311 0.873550 0.060217
O32   O     O_3   0.619597 0.680699 0.474704 -0.619139
C50   C     C_3   0.655538 0.630443 0.401862 0.399105
H47   H     H_    0.735551 0.574978 0.413829 0.126447
H48   H     H_    0.686911 0.674004 0.352287 -0.086953
H49   H     H_    0.557093 0.588487 0.376920 0.054539
F12   F     F_    0.299337 0.013478 0.602223 -0.643382
F13   F     F_    0.094880 0.891252 0.591117 -0.628328
O33   O     O_3   0.723693 0.622410 0.075010 -0.542575
C51   C     C_3   0.804042 0.557080 0.026278 0.213940
H50   H     H_    0.722555 0.510314 0.986608 0.018412
H51   H     H_    0.881609 0.515386 0.063474 0.045669
H52   H     H_    0.878601 0.594968 0.986154 0.105366
O34   O     O_3   0.236530 0.476313 0.142955 -0.577073
C52   C     C_3   0.220913 0.380530 0.118003 0.364635
H53   H     H_    0.322113 0.352762 0.085548 -0.018867
H54   H     H_    0.117221 0.369069 0.075525 0.045903
H55   H     H_    0.199155 0.340060 0.170296 0.017004
O35   O     O_3   0.803105 0.772675 0.221143 -0.696184
C53   C     C_3   0.790459 0.849902 0.277953 0.111992
H56   H     H_    0.666563 0.862594 0.285922 0.012206
H57   H     H_    0.842121 0.914635 0.257642 0.179460
H58   H     H_    0.844191 0.835566 0.337618 0.112252
O36   O     O_3   0.698293 0.412288 0.264237 -0.605323
C54   C     C_3   0.684794 0.347480 0.194317 0.288006
H59   H     H_    0.778762 0.361198 0.152637 0.006199
H60   H     H_    0.571117 0.346129 0.159430 -0.080835
H61   H     H_    0.693053 0.276262 0.212818 0.140651
O37   O     O_3   0.136015 0.482623 0.664888 -0.677484
C55   C     C_3   0.167459 0.399623 0.620712 0.437269
H62   H     H_    0.255240 0.409293 0.576643 0.119192
H63   H     H_    0.181483 0.338671 0.656259 -0.171621
H64   H     H_    0.070690 0.381436 0.579978 0.091668
F14   F     F_    0.857619 0.794174 0.067410 -0.740250

loop_
_geom_bond_atom_site_label_1
_geom_bond_atom_site_label_2
_ccdc_geom_bond_type
C26   P2    S    
C41   O2    S    
C9    C16   A    
O33   C51   S    
C2    H9    S    
C6    F8    S    
C32   C35   A    
C39   C40   S    
C4    H14   S    
Ba2   O13   S    
C17   C18   A    
C23   H23   S    
C48   H43   S    
C47   H40   S    
C55   H62   S    
O24   P3    D    
C31   H21   S    
C5    C6    S    
O3    P3    S    
C54   H59   S    
O36   C54   S    
O5    P4    S    
C38   H2    S    
C32   P7    S    
C14   H18   S    
C46   H35   S    
C7    H17   S    
C15   C24   A    
C12   O3    S    
C26   C27   A    
C52   H54   S    
C35   C36   A    
C48   H42   S    
C11   O32   S    
O34   C52   S    
C7    O17   S    
C3    C4    S    
C19   P4    S    
C1    H10   S    
C45   H34   S    
O25   C43   S    
O23   P3    S    
C13   C14   A    
Ba2   O14   S    
C15   C16   A    
Ba1   Ba2   S    
C50   H49   S    
C17   C24   A    
C23   O28   S    
O27   C45   S    
C5    O29   S    
C24   H20   S    
Ba2   O8    S    
C51   H52   S    
C20   H19   S    
C7    F9    S    
C53   H58   S    
C21   P8    S    
C18   C22   A    
C14   C15   A    
Ba1   O18   S    
C21   C22   A    
O8    P7    S    
N1    N2    D    
C7    C8    S    
C22   F12   S    
C44   H31   S    
O18   P6    S    
C42   H8    S    
C53   H57   S    
O28   C46   S    
O20   P1    S    
C33   N2    S    
C19   C20   A    
O9    P5    S    
C6    F7    S    
C51   H51   S    
C43   H27   S    
C4    H13   S    
Ba2   O12   S    
C41   F3    S    
C5    H15   S    
O26   C44   S    
C28   N1    S    
O31   C49   S    
C49   H45   S    
C2    H1    S    
C54   H60   S    
C12   F11   S    
C9    C18   A    
Ba1   O1    S    
C49   H44   S    
C55   H64   S    
C34   C38   S    
C52   H55   S    
C48   H41   S    
C36   P5    S    
Ba1   P2    S    
O35   C53   S    
Ba1   O23   S    
C8    O31   S    
C46   H37   S    
C1    F6    S    
Ba1   O13   S    
C33   C37   A    
C41   C42   S    
O19   P6    D    
C27   C28   A    
C38   F1    S    
C49   H46   S    
C29   C30   A    
C42   O27   S    
C1    O26   S    
C50   H47   S    
O4    P4    D    
C31   C32   A    
C39   H3    S    
C13   P6    S    
C45   H32   S    
C40   O25   S    
C29   O33   S    
C45   H33   S    
O21   P6    S    
C40   H6    S    
O16   P8    D    
C3    O15   S    
C9    F13   S    
C53   H56   S    
C39   O20   S    
Ba2   P4    S    
O2    P2    S    
C11   C13   A    
C51   H50   S    
Ba1   O8    S    
C37   H22   S    
O6    P8    S    
C8    O30   S    
O13   P2    S    
C43   H26   S    
C1    C2    S    
O15   P7    S    
O22   P2    D    
O7    P4    S    
O17   P8    S    
Ba2   O5    S    
C23   F14   S    
C44   H29   S    
C54   H61   S    
C46   H36   S    
C17   C19   A    
C25   C30   A    
O32   C50   S    
Ba1   O5    S    
O11   P5    S    
C27   O34   S    
C3    H11   S    
C4    H12   S    
C47   H39   S    
C55   H63   S    
O30   C48   S    
C34   H24   S    
O10   P5    D    
Ba1   O12   S    
C35   O37   S    
C3    F5    S    
C43   H28   S    
O29   C47   S    
Ba2   O6    S    
C34   O7    S    
C6    H16   S    
C28   C29   A    
C41   H7    S    
C36   C37   A    
C42   F4    S    
Ba1   P1    S    
O12   P1    S    
C31   C33   A    
C39   H4    S    
C30   P3    S    
C50   H48   S    
C12   C23   S    
C34   H25   S    
C52   H53   S    
Ba2   O9    S    
Ba2   O4    S    
C40   H5    S    
O1    P1    D    
C5    O11   S    
C10   C11   A    
Ba1   O22   S    
O37   C55   S    
C10   C16   A    
C25   C26   A    
C20   C21   A    
C10   P1    S    
C8    F10   S    
C44   H30   S    
C12   O35   S    
C25   O36   S    
O14   P7    D    
C47   H38   S    
C38   F2    S    
C2    O21   S    
