data_mof_unit_41370.cif
_audit_creation_date              2012-12-11T15:21:28-0500
_audit_creation_method            fapswitch 2.2
_symmetry_space_group_name_H-M    P1
_symmetry_Int_Tables_number       1
_space_group_crystal_system       triclinic
_cell_length_a                    8.370644
_cell_length_b                    12.954243
_cell_length_c                    18.909755
_cell_angle_alpha                 96.210997
_cell_angle_beta                  94.026959
_cell_angle_gamma                 97.839378
_cell_volume                      2011.86706006

loop_
_atom_site_label
_atom_site_type_symbol
_atom_type_description
_atom_site_fract_x
_atom_site_fract_y
_atom_site_fract_z
_atom_type_partial_charge
Ba1   Ba    Ba6+2 0.160910 0.552960 0.466220 1.588142
Ba2   Ba    Ba6+2 0.649260 0.447030 0.533730 1.602171
C1    C     C_3   0.363305 0.785742 0.194684 -0.391977
C2    C     C_3   0.412295 0.767771 0.271067 0.337024
C3    C     C_3   0.556213 0.780247 0.668826 0.301366
C4    C     C_3   0.549627 0.888881 0.707609 -0.215643
C5    C     C_3   0.939829 0.171178 0.703050 0.328707
C6    C     C_3   0.005475 0.104237 0.756327 -0.409679
C7    C     C_3   0.416860 0.225409 0.730981 0.378361
C8    C     C_3   0.476095 0.212092 0.807866 -0.189948
C9    C     C_R   0.071302 0.182658 0.529232 -0.270000
C10   C     C_R   0.740470 0.817682 0.471810 -0.271200
C11   C     C_R   0.705598 0.994688 0.448717 -0.098535
C12   C     C_3   0.932706 0.830596 0.302644 0.356104
C13   C     C_R   0.644990 0.887026 0.444400 -0.002711
C14   C     C_R   0.891282 0.851909 0.509528 0.058181
C15   C     C_R   0.952592 0.963897 0.516551 -0.048558
C16   C     C_R   0.858543 0.036554 0.484817 -0.049342
C17   C     C_R   0.919745 0.148604 0.491562 0.067580
C18   C     C_R   0.166520 0.113077 0.557014 -0.018479
C19   C     C_R   0.105777 0.005455 0.552533 -0.098393
C20   C     C_R   0.634240 0.515236 0.297529 -0.201015
C21   C     C_R   0.468972 0.479892 0.277761 0.074971
C22   C     C_R   0.406269 0.481707 0.207330 -0.149544
C23   C     C_3   0.917430 0.930334 0.268253 -0.211283
C24   C     C_R   0.505635 0.521679 0.156580 -0.025698
C25   C     C_R   0.666326 0.566643 0.178987 -0.150398
C26   C     C_R   0.729777 0.564307 0.249106 0.052320
C27   C     C_R   0.490268 0.590450 0.036977 -0.081425
C28   C     C_R   0.439120 0.577698 0.964180 -0.080860
C29   C     C_R   0.342786 0.484847 0.932201 0.061125
C30   C     C_R   0.295854 0.406077 0.975163 -0.082674
C31   C     C_R   0.346098 0.419082 0.048044 -0.079859
C32   C     C_R   0.444793 0.511151 0.079849 0.066218
C33   C     C_R   0.136769 0.420746 0.827804 -0.139695
C34   C     C_3   0.844041 0.269550 0.303612 0.451763
C35   C     C_R   0.091729 0.406849 0.754304 0.020180
C36   C     C_R   0.354830 0.491863 0.732197 0.066797
C37   C     C_R   0.401441 0.506430 0.805516 -0.131497
C38   C     C_R   0.293956 0.469006 0.854171 -0.022251
C39   C     C_R   0.205499 0.434305 0.706578 -0.267726
C40   C     C_3   0.952874 0.206071 0.259914 -0.303262
C41   C     C_3   0.969007 0.717663 0.691093 0.300056
C42   C     C_3   0.943613 0.777454 0.764017 -0.001985
C43   C     C_3   0.290968 0.232624 0.384961 0.319683
C44   C     C_3   0.287693 0.113349 0.367258 -0.198601
H1    H     H_    0.334510 0.695805 0.281941 0.106349
H2    H     H_    0.881288 0.141472 0.223382 0.095044
H3    H     H_    0.030843 0.257626 0.228848 0.089142
H4    H     H_    0.029723 0.169048 0.295740 0.100984
H5    H     H_    0.854375 0.673450 0.667208 0.064206
H6    H     H_    0.884439 0.721831 0.798723 0.055597
H7    H     H_    0.858769 0.834330 0.755427 0.069407
H8    H     H_    0.179331 0.248174 0.409759 -0.061731
H9    H     H_    0.394634 0.263050 0.423953 0.101359
H10   H     H_    0.229799 0.779797 0.185733 0.162582
H11   H     H_    0.161668 0.073179 0.365022 0.054077
H12   H     H_    0.354098 0.083291 0.411654 0.118262
H13   H     H_    0.541098 0.755110 0.275425 -0.052610
H14   H     H_    0.404175 0.725335 0.156815 0.078789
H15   H     H_    0.681846 0.771157 0.662356 -0.002257
H16   H     H_    0.590051 0.889994 0.764917 0.115462
H17   H     H_    0.423894 0.907481 0.704114 0.130272
H18   H     H_    0.417392 0.864616 0.183209 0.106425
H19   H     H_    0.876533 0.122098 0.655273 0.048675
H20   H     H_    0.044054 0.216280 0.681741 -0.052519
H21   H     H_    0.073034 0.046778 0.728049 0.087995
H22   H     H_    0.086128 0.155504 0.798769 0.110572
H23   H     H_    0.906822 0.061276 0.782579 0.128731
H24   H     H_    0.289736 0.237782 0.730470 -0.061756
H25   H     H_    0.489423 0.297381 0.717527 0.085226
H26   H     H_    0.425008 0.269279 0.844642 0.062725
H27   H     H_    0.609238 0.232828 0.816266 0.147527
H28   H     H_    0.029559 0.848991 0.347277 0.072207
H29   H     H_    0.630703 0.045113 0.424671 0.113056
H30   H     H_    0.181247 0.954766 0.576106 0.116289
H31   H     H_    0.120172 0.265092 0.534097 0.063539
H32   H     H_    0.693311 0.735004 0.465762 0.050165
H33   H     H_    0.518967 0.550212 0.824386 0.084189
H34   H     H_    0.474504 0.641001 0.933051 0.056542
H35   H     H_    0.564948 0.662788 0.059691 0.056620
H36   H     H_    0.281202 0.449017 0.191687 0.094195
H37   H     H_    0.223614 0.333062 0.952039 0.060142
H38   H     H_    0.815748 0.804080 0.324274 -0.049795
H39   H     H_    0.311570 0.355464 0.079049 0.051245
H40   H     H_    0.047834 0.397676 0.864169 0.071649
H41   H     H_    0.744357 0.600467 0.141658 0.073947
H42   H     H_    0.169896 0.423343 0.649808 0.061435
H43   H     H_    0.909199 0.995208 0.310526 0.069084
H44   H     H_    0.026457 0.951715 0.239673 0.119298
H45   H     H_    0.922041 0.339723 0.330085 0.060302
O1    O     O_2   0.160820 0.763040 0.533820 -0.464119
O2    O     O_3   0.299505 0.281324 0.322388 -0.656180
O3    O     O_3   0.975688 0.754947 0.251289 -0.611878
O4    O     O_2   0.649470 0.236890 0.466160 -0.466471
O5    O     O_3   0.919320 0.371390 0.464540 -0.512564
O6    O     O_3   0.424350 0.301430 0.591880 -0.488617
O7    O     O_3   0.775149 0.207440 0.353440 -0.656926
O8    O     O_3   0.382770 0.553920 0.582990 -0.487140
O9    O     O_3   0.848220 0.355290 0.626830 -0.458971
O10   O     O_2   0.755639 0.422085 0.754443 -0.509519
O11   O     O_3   0.830944 0.231242 0.735962 -0.599214
O12   O     O_3   0.890970 0.628600 0.535400 -0.504145
O13   O     O_3   0.427530 0.446070 0.416950 -0.504733
O14   O     O_2   0.637430 0.550200 0.669460 -0.470917
O15   O     O_3   0.485738 0.707459 0.712043 -0.663135
O16   O     O_2   0.498747 0.115689 0.548660 -0.485519
O17   O     O_3   0.431716 0.138376 0.681686 -0.605137
O18   O     O_3   0.385950 0.698560 0.408070 -0.486708
O19   O     O_2   0.308355 0.884731 0.448061 -0.483317
O20   O     O_3   0.033842 0.789111 0.646477 -0.651803
O21   O     O_3   0.389805 0.855551 0.317953 -0.615918
O22   O     O_2   0.172860 0.449730 0.330520 -0.468729
O23   O     O_3   0.962080 0.644700 0.373110 -0.500435
O24   O     O_2   0.065572 0.569794 0.249427 -0.492739
P1    P     P_3+3 0.986780 0.745970 0.554690 0.951872
P2    P     P_3+3 0.341450 0.417130 0.341310 0.957436
P3    P     P_3+3 0.934710 0.631099 0.279793 0.936608
P4    P     P_3+3 0.823520 0.254020 0.445250 0.946866
P5    P     P_3+3 0.881032 0.360332 0.719112 0.957664
P6    P     P_3+3 0.435097 0.833249 0.406129 0.934901
P7    P     P_3+3 0.461654 0.575789 0.673582 0.918424
P8    P     P_3+3 0.377547 0.165936 0.594672 0.934648
C45   C     C_3   0.081101 0.638826 0.701238 -0.288192
H46   H     H_    0.204640 0.680900 0.715265 0.118564
H47   H     H_    0.043352 0.593966 0.745639 0.034652
H48   H     H_    0.077882 0.586255 0.650716 0.080394
N1    N     N_2   0.093063 0.837010 0.799930 -0.418960
H49   H     H_    0.165239 0.882116 0.769137 0.220743
C46   C     C_3   0.178789 0.791475 0.855716 -0.232954
H50   H     H_    0.260139 0.737850 0.832562 0.112964
H51   H     H_    0.092610 0.747838 0.888457 0.110202
H52   H     H_    0.255240 0.855691 0.891555 0.106581
C47   C     C_3   0.360903 0.081845 0.296979 -0.350858
H53   H     H_    0.330242 0.128366 0.252742 0.137168
H54   H     H_    0.495118 0.088171 0.306185 0.149920
H55   H     H_    0.308216 0.000739 0.275973 0.156132
C48   C     C_3   0.468696 0.769269 0.595290 -0.232580
H56   H     H_    0.526561 0.718507 0.556853 0.075118
H57   H     H_    0.349793 0.730529 0.604329 0.172032
H58   H     H_    0.457786 0.844050 0.573140 0.074472
C49   C     C_3   0.660106 0.972370 0.677506 -0.463009
H59   H     H_    0.783428 0.950583 0.676346 0.101711
H60   H     H_    0.617132 0.984381 0.622835 0.169254
H61   H     H_    0.663184 0.046674 0.712345 0.203696
C50   C     C_3   0.767056 0.916175 0.215956 -0.408710
H62   H     H_    0.749070 0.837472 0.184184 0.145832
H63   H     H_    0.660476 0.926009 0.246568 0.136033
H64   H     H_    0.778079 0.976257 0.178079 0.112045
C51   C     C_3   0.429197 0.102388 0.829389 -0.387393
H65   H     H_    0.522361 0.052665 0.815348 0.131186
H66   H     H_    0.423079 0.107607 0.888211 0.108632
H67   H     H_    0.310710 0.063927 0.803126 0.136018
C52   C     C_3   0.712382 0.489797 0.366645 -0.221406
H68   H     H_    0.839541 0.480839 0.363364 0.131422
H69   H     H_    0.699005 0.550419 0.411074 0.130445
H70   H     H_    0.665039 0.410330 0.378069 0.095421
N2    N     N_2   0.711833 0.299953 0.258877 -0.449501
H71   H     H_    0.598956 0.284639 0.277844 0.205224
C53   C     C_3   0.703668 0.286011 0.180675 -0.287100
H72   H     H_    0.604489 0.325134 0.158309 0.115514
H73   H     H_    0.673773 0.201062 0.160096 0.107396
H74   H     H_    0.819355 0.322257 0.161536 0.117153

loop_
_geom_bond_atom_site_label_1
_geom_bond_atom_site_label_2
_ccdc_geom_bond_type
O5    P4    S    
C34   C40   S    
C36   P7    S    
O16   P8    D    
C43   O2    S    
N1    H49   S    
Ba1   O8    S    
C47   H55   S    
O7    P4    S    
C1    H18   S    
C7    O17   S    
C19   H30   S    
C9    C17   A    
C23   H44   S    
Ba1   O22   S    
C11   C16   A    
C12   H28   S    
Ba2   O4    S    
C33   C35   A    
C22   C24   A    
Ba1   Ba2   S    
O19   P6    D    
C3    C4    S    
C8    H27   S    
C5    H19   S    
C29   C38   S    
C16   C17   A    
C30   H37   S    
C31   H39   S    
C18   P8    S    
C22   H36   S    
C9    H31   S    
Ba1   O18   S    
C42   H7    S    
C24   C32   S    
C11   H29   S    
Ba2   O6    S    
C14   C15   A    
C51   H67   S    
C10   H32   S    
C21   C22   A    
O20   P1    S    
O9    P5    S    
Ba1   P1    S    
C12   H38   S    
C4    C49   S    
C7    C8    S    
Ba1   O12   S    
C52   H69   S    
C34   N2    S    
C28   H34   S    
C1    H14   S    
C42   H6    S    
C2    O21   S    
Ba2   O9    S    
C20   C26   A    
C44   H12   S    
N2    C53   S    
C49   H61   S    
C41   O20   S    
C14   P1    S    
C31   C32   A    
C50   H63   S    
C3    O15   S    
C9    C18   A    
C33   C38   A    
O18   P6    S    
C53   H74   S    
C10   C14   A    
C3    C48   S    
C7    H24   S    
C52   H70   S    
C37   C38   A    
C47   H54   S    
O4    P4    D    
C43   C44   S    
C27   C32   A    
C5    O11   S    
C15   C19   A    
C53   H73   S    
C4    H17   S    
C46   H51   S    
C41   C42   S    
C27   H35   S    
C27   C28   A    
C44   C47   S    
C50   H64   S    
C1    H10   S    
C29   C30   A    
C10   C13   A    
Ba2   O13   S    
C28   C29   A    
O24   P3    D    
O15   P7    S    
C15   C16   A    
C6    H23   S    
C3    H15   S    
C40   H2    S    
C25   H41   S    
O1    P1    D    
Ba1   O13   S    
C52   H68   S    
O23   P3    S    
C48   H57   S    
C36   C39   A    
O8    P7    S    
O22   P2    D    
C34   H45   S    
C40   H4    S    
Ba2   O8    S    
C6    H22   S    
Ba1   O1    S    
C11   C13   A    
C44   H11   S    
C24   C25   A    
N2    H71   S    
C51   H66   S    
C46   H52   S    
C21   P2    S    
Ba1   O23   S    
O17   P8    S    
C1    C2    S    
O11   P5    S    
C45   H47   S    
C50   H62   S    
C20   C52   S    
C39   H42   S    
C42   N1    S    
C13   P6    S    
C51   H65   S    
O10   P5    D    
C7    H25   S    
C48   H58   S    
N1    C46   S    
C43   H8    S    
Ba2   P4    S    
C47   H53   S    
O13   P2    S    
Ba2   O14   S    
C23   H43   S    
O2    P2    S    
C30   C31   A    
C4    H16   S    
Ba2   O5    S    
C46   H50   S    
O21   P6    S    
O6    P8    S    
C26   P3    S    
C53   H72   S    
C5    H20   S    
O3    P3    S    
C41   H5    S    
C36   C37   A    
C35   P5    S    
Ba2   O12   S    
Ba1   O5    S    
C2    H13   S    
C33   H40   S    
O14   P7    D    
O12   P1    S    
C49   H60   S    
C12   C23   S    
C35   C39   A    
C5    C6    S    
C48   H56   S    
C40   H3    S    
C17   P4    S    
C23   C50   S    
C18   C19   A    
C43   H9    S    
C6    H21   S    
C45   H48   S    
C25   C26   A    
C49   H59   S    
C20   C21   A    
C34   O7    S    
Ba1   P2    S    
C41   C45   S    
C12   O3    S    
C8    C51   S    
C37   H33   S    
C45   H46   S    
C2    H1    S    
C8    H26   S    
