data_mof_unit_42155.cif
_audit_creation_date              2012-12-10T16:55:45-0500
_audit_creation_method            fapswitch 2.2
_symmetry_space_group_name_H-M    P1
_symmetry_Int_Tables_number       1
_space_group_crystal_system       triclinic
_cell_length_a                    7.79122
_cell_length_b                    8.573383
_cell_length_c                    10.48207
_cell_angle_alpha                 91.254985
_cell_angle_beta                  85.025178
_cell_angle_gamma                 93.828192
_cell_volume                      695.886579728

loop_
_atom_site_label
_atom_site_type_symbol
_atom_type_description
_atom_site_fract_x
_atom_site_fract_y
_atom_site_fract_z
_atom_type_partial_charge
C1    C     C_R   0.545847 0.794711 0.496709 0.960466
C2    C     C_3   0.500257 0.500173 0.877603 0.037227
C3    C     C_3   0.395210 0.379528 0.046377 -0.188787
C4    C     C_3   0.604789 0.620471 0.953623 -0.188787
C5    C     C_2   0.569865 0.958333 0.494818 -0.388010
C6    C     C_2   0.430135 0.041667 0.505182 -0.388010
C7    C     C_R   0.454153 0.205289 0.503291 0.960466
C8    C     C_R   0.500594 0.500279 0.742539 0.858730
C9    C     C_R   0.499406 0.499721 0.257461 0.858730
C10   C     C_3   0.338160 0.515481 0.969448 -0.134374
C11   C     C_3   0.661840 0.484519 0.030552 -0.134375
C12   C     C_3   0.443084 0.635745 0.048141 -0.179987
C13   C     C_3   0.556916 0.364255 0.951859 -0.179987
C14   C     C_3   0.499743 0.499827 0.122397 0.037227
H1    H     H_    0.396705 0.745844 0.092260 0.133320
H2    H     H_    0.298263 0.990333 0.515073 0.180089
H3    H     H_    0.603295 0.254156 0.907740 0.133320
H4    H     H_    0.205944 0.528113 0.940774 0.142350
H5    H     H_    0.794056 0.471887 0.059226 0.142350
H6    H     H_    0.309981 0.281868 0.089064 0.129431
H7    H     H_    0.690019 0.718132 0.910936 0.129431
H8    H     H_    0.013619 0.381874 0.403753 0.188454
H9    H     H_    0.986381 0.618126 0.596247 0.188454
H10   H     H_    0.701737 0.009667 0.484927 0.180089
N1    N     N_2   0.950320 0.457950 0.465730 -0.174822
N2    N     N_2   0.049680 0.542050 0.534270 -0.174823
O1    O     O_R   0.389250 0.738570 0.508410 -0.612321
O2    O     O_R   0.610750 0.261430 0.491590 -0.612321
O3    O     O_R   0.678390 0.711620 0.486450 -0.630045
O4    O     O_R   0.321610 0.288380 0.513550 -0.630045
O5    O     O_R   0.355460 0.513510 0.697030 -0.626744
O6    O     O_R   0.644540 0.486490 0.302970 -0.626744
O7    O     O_R   0.644600 0.486560 0.675070 -0.628418
O8    O     O_R   0.355400 0.513440 0.324930 -0.628418
Zn1   Zn    Zn3+2 0.306940 0.517990 0.514670 0.933442
Zn2   Zn    Zn3+2 0.693060 0.482010 0.485330 0.933442

loop_
_geom_bond_atom_site_label_1
_geom_bond_atom_site_label_2
_ccdc_geom_bond_type
C2    C4    S    
C9    C14   S    
C6    C7    S    
C3    C14   S    
C4    C12   S    
C3    C13   S    
C12   H1    S    
C13   H3    S    
C1    O3    A    
C3    H6    S    
C7    O4    A    
C4    C11   S    
C4    H7    S    
C11   C13   S    
O3    Zn2   S    
C11   H5    S    
C9    O8    A    
C5    H10   S    
C10   C12   S    
O4    Zn1   S    
C10   H4    S    
C1    C5    S    
O6    Zn2   S    
C12   C14   S    
C8    O7    A    
C5    C6    D    
C11   C14   S    
O5    Zn1   S    
N1    Zn2   S    
C6    H2    S    
C2    C10   S    
N2    Zn1   S    
O7    Zn2   S    
O2    Zn2   S    
C1    O1    A    
O8    Zn1   S    
H9    N2    S    
C3    C10   S    
C2    C13   S    
C9    O6    A    
O1    Zn1   S    
N1    N2    D    
C8    O5    A    
C2    C8    S    
C7    O2    A    
H8    N1    S    
