data_mof_unit_10003.cif
_audit_creation_date              2013-03-05T15:40:02-0500
_audit_creation_method            fapswitch 2.2
_symmetry_space_group_name_H-M    P1
_symmetry_Int_Tables_number       1
_space_group_crystal_system       triclinic
_cell_length_a                    24.41831
_cell_length_b                    17.239191
_cell_length_c                    15.556962
_cell_angle_alpha                 89.99849
_cell_angle_beta                  128.853751
_cell_angle_gamma                 89.998004
_cell_volume                      5099.82429994

loop_
_atom_site_label
_atom_site_type_symbol
_atom_site_description
_atom_site_fract_x
_atom_site_fract_y
_atom_site_fract_z
_atom_type_partial_charge
C1    C     C_R   0.332919 0.395102 0.198712 -0.198050
C2    C     C_R   0.667083 0.395100 0.801294 -0.198050
C3    C     C_R   0.832885 0.895251 0.198641 -0.197961
C4    C     C_R   0.167082 0.895098 0.801293 -0.198055
H1    H     H_    0.280091 0.398490 0.171868 0.113793
H2    H     H_    0.719911 0.398486 0.828142 0.113803
H3    H     H_    0.780080 0.898770 0.171860 0.113716
H4    H     H_    0.219911 0.898484 0.828140 0.113791
N1    N     N_R   0.389060 0.424180 0.294540 -0.064803
N2    N     N_R   0.610940 0.424180 0.705460 -0.064803
N3    N     N_R   0.889060 0.924180 0.294540 -0.064880
N4    N     N_R   0.110940 0.924180 0.705460 -0.064797
C5    C     C_R   0.585794 0.355472 0.408585 -0.086843
C6    C     C_R   0.414206 0.355475 0.591424 -0.086848
C7    C     C_R   0.085790 0.855478 0.408574 -0.086947
C8    C     C_R   0.914206 0.855472 0.591419 -0.086892
H5    H     H_    0.555668 0.336778 0.324047 0.136309
H6    H     H_    0.444331 0.336781 0.675965 0.136317
H7    H     H_    0.055659 0.836796 0.324028 0.136644
H8    H     H_    0.944329 0.836777 0.675960 0.136318
N5    N     N_R   0.579670 0.423790 0.443360 -0.033371
N6    N     N_R   0.420330 0.423790 0.556640 -0.033373
N7    N     N_R   0.079670 0.923790 0.443360 -0.033413
N8    N     N_R   0.920330 0.923790 0.556640 -0.033363
C9    C     C_R   0.660886 0.356553 0.592543 -0.110319
C10   C     C_R   0.339115 0.356558 0.407465 -0.110317
C11   C     C_R   0.160882 0.856550 0.592536 -0.110320
C12   C     C_R   0.839124 0.856553 0.407458 -0.110356
H9    H     H_    0.700124 0.340657 0.677906 0.097570
H10   H     H_    0.299876 0.340666 0.322105 0.097569
H11   H     H_    0.200120 0.840651 0.677897 0.097569
H12   H     H_    0.799902 0.840658 0.322091 0.097588
N9    N     N_R   0.625470 0.423490 0.556600 -0.050309
N10   N     N_R   0.374530 0.423490 0.443400 -0.050311
N11   N     N_R   0.125470 0.923490 0.556600 -0.050304
N12   N     N_R   0.874530 0.923490 0.443400 -0.050309
C13   C     C_R   0.577385 0.395245 0.803349 0.281870
C14   C     C_R   0.422615 0.395247 0.196653 0.281856
C15   C     C_R   0.077385 0.895244 0.803348 0.281895
C16   C     C_R   0.922572 0.895369 0.196571 0.282138
N13   N     N_R   0.555250 0.423100 0.705420 -0.088647
N14   N     N_R   0.444750 0.423100 0.294580 -0.088647
N15   N     N_R   0.055250 0.923100 0.705420 -0.088637
N16   N     N_R   0.944750 0.923100 0.294580 -0.088716
C17   C     C_R   0.352262 0.375417 0.134829 0.006540
C18   C     C_R   0.647740 0.375417 0.865178 0.006518
C19   C     C_R   0.852170 0.875699 0.134635 0.007091
C20   C     C_R   0.147740 0.875415 0.865177 0.006504
C21   C     C_R   0.635549 0.311794 0.500695 0.088397
C22   C     C_R   0.364451 0.311801 0.499320 0.088402
C23   C     C_R   0.135544 0.811795 0.500681 0.088428
C24   C     C_R   0.864455 0.811796 0.499312 0.088423
C25   C     C_R   0.315191 0.610875 0.408942 -0.150415
C26   C     C_R   0.684804 0.610877 0.591054 -0.150478
C27   C     C_R   0.815193 0.110880 0.408944 -0.150436
C28   C     C_R   0.184803 0.110880 0.591055 -0.150416
H13   H     H_    0.266529 0.609571 0.325090 0.101781
H14   H     H_    0.733465 0.609576 0.674908 0.101796
H15   H     H_    0.766530 0.109577 0.325093 0.101756
H16   H     H_    0.233465 0.109578 0.674907 0.101753
N17   N     N_R   0.375210 0.577180 0.443400 -0.048035
N18   N     N_R   0.624790 0.577180 0.556600 -0.048032
N19   N     N_R   0.875210 0.077180 0.443400 -0.048025
N20   N     N_R   0.124790 0.077180 0.556600 -0.048029
C29   C     C_R   0.440628 0.640422 0.239578 -0.091710
C30   C     C_R   0.559348 0.640409 0.760397 -0.091735
C31   C     C_R   0.940627 0.140421 0.239576 -0.091684
C32   C     C_R   0.059373 0.140415 0.760430 -0.091706
H17   H     H_    0.477055 0.656340 0.225222 0.105942
H18   H     H_    0.522921 0.656309 0.774759 0.105954
H19   H     H_    0.977053 0.156339 0.225220 0.105983
H20   H     H_    0.022948 0.156331 0.774790 0.105945
N21   N     N_R   0.445430 0.577570 0.294580 -0.038454
N22   N     N_R   0.554570 0.577570 0.705420 -0.038457
N23   N     N_R   0.945430 0.077570 0.294580 -0.038449
N24   N     N_R   0.054570 0.077570 0.705420 -0.038454
C33   C     C_R   0.651205 0.638943 0.760154 -0.121082
C34   C     C_R   0.348771 0.638929 0.239815 -0.121125
C35   C     C_R   0.151231 0.138919 0.760193 -0.121128
C36   C     C_R   0.848770 0.138928 0.239813 -0.121118
H21   H     H_    0.699813 0.652535 0.775676 0.096493
H22   H     H_    0.300156 0.652495 0.224288 0.096415
H23   H     H_    0.199847 0.152478 0.775724 0.096398
H24   H     H_    0.800155 0.152493 0.224285 0.096413
N25   N     N_R   0.611620 0.576500 0.705460 -0.050906
N26   N     N_R   0.388380 0.576500 0.294540 -0.050896
N27   N     N_R   0.111620 0.076500 0.705460 -0.050894
N28   N     N_R   0.888380 0.076500 0.294540 -0.050908
C37   C     C_R   0.388949 0.609527 0.592500 -0.092432
C38   C     C_R   0.611046 0.609534 0.407494 -0.092436
C39   C     C_R   0.888954 0.109535 0.592504 -0.092427
C40   C     C_R   0.111044 0.109538 0.407494 -0.092422
H25   H     H_    0.408775 0.608145 0.677104 0.122837
H26   H     H_    0.591217 0.608159 0.322890 0.122827
H27   H     H_    0.908785 0.108158 0.677110 0.122815
H28   H     H_    0.091216 0.108165 0.322890 0.122883
N29   N     N_R   0.421010 0.576890 0.556640 -0.042266
N30   N     N_R   0.578990 0.576890 0.443360 -0.042267
N31   N     N_R   0.921010 0.076890 0.556640 -0.042259
N32   N     N_R   0.078990 0.076890 0.443360 -0.042252
Ni1   Ni    Ni4+2 0.383200 0.500680 0.370150 0.204363
Ni2   Ni    Ni4+2 0.616800 0.500680 0.629850 0.204378
Ni3   Ni    Ni4+2 0.883200 0.000680 0.370150 0.204327
Ni4   Ni    Ni4+2 0.116800 0.000680 0.629850 0.204368
Ni5   Ni    Ni4+2 0.512440 0.500680 0.370150 0.292735
Ni6   Ni    Ni4+2 0.487560 0.500680 0.629850 0.292733
Ni7   Ni    Ni4+2 0.012440 0.000680 0.370150 0.292723
Ni8   Ni    Ni4+2 0.987560 0.000680 0.629850 0.292733
C41   C     C_R   0.322594 0.631936 0.500995 0.114293
C42   C     C_R   0.677397 0.631943 0.498997 0.114308
C43   C     C_R   0.822600 0.131945 0.501000 0.114293
C44   C     C_R   0.177394 0.131949 0.498998 0.114277
C45   C     C_R   0.381481 0.681135 0.206964 0.120043
C46   C     C_R   0.618477 0.681126 0.792993 0.120076
C47   C     C_R   0.881479 0.181133 0.206961 0.119992
C48   C     C_R   0.118522 0.181121 0.793051 0.120051
C49   C     C_2   0.734631 0.656162 0.417067 -0.111950
C50   C     C_2   0.265355 0.656137 0.582920 -0.111946
C51   C     C_2   0.234635 0.156160 0.417077 -0.111961
C52   C     C_2   0.765367 0.156146 0.582935 -0.112009
C53   C     C_2   0.733508 0.663449 0.501818 -0.189406
C54   C     C_2   0.266479 0.663434 0.498170 -0.189368
C55   C     C_2   0.233504 0.163458 0.501819 -0.189385
C56   C     C_2   0.766487 0.163446 0.498181 -0.189358
H29   H     H_    0.693916 0.623711 0.343884 0.138678
H30   H     H_    0.306072 0.623678 0.656103 0.138685
H31   H     H_    0.193925 0.123699 0.343900 0.138682
H32   H     H_    0.806085 0.123686 0.656116 0.138639
H33   H     H_    0.772505 0.697359 0.574436 0.141876
H34   H     H_    0.227480 0.697351 0.425551 0.141921
H35   H     H_    0.272494 0.197378 0.574431 0.141899
H36   H     H_    0.727488 0.197364 0.425565 0.141897
C57   C     C_2   0.281620 0.204343 0.411021 -0.101696
C58   C     C_2   0.718384 0.204328 0.588999 -0.101728
C59   C     C_2   0.781615 0.704346 0.411010 -0.101682
C60   C     C_2   0.218372 0.704322 0.588980 -0.101753
C61   C     C_2   0.340217 0.235347 0.501961 -0.179489
C62   C     C_2   0.659780 0.235334 0.498062 -0.179481
C63   C     C_2   0.840219 0.735343 0.501948 -0.179477
C64   C     C_2   0.159772 0.735335 0.498043 -0.179399
H37   H     H_    0.260460 0.224634 0.329505 0.122409
H38   H     H_    0.739550 0.224623 0.670515 0.122403
H39   H     H_    0.760452 0.724645 0.329495 0.122406
H40   H     H_    0.239535 0.724613 0.670497 0.122418
H41   H     H_    0.364069 0.211113 0.582877 0.137010
H42   H     H_    0.635923 0.211098 0.417148 0.137005
H43   H     H_    0.864072 0.711105 0.582863 0.137011
H44   H     H_    0.135916 0.711103 0.417127 0.137084
H45   H     H_    0.286232 0.779221 0.175642 0.135148
H46   H     H_    0.713726 0.779310 0.824456 0.134901
H47   H     H_    0.786233 0.279220 0.175642 0.135137
H48   H     H_    0.213785 0.279189 0.824405 0.135130
H49   H     H_    0.789189 0.374360 0.007372 0.134220
H50   H     H_    0.210812 0.374315 0.992665 0.134206
H51   H     H_    0.289188 0.874359 0.007370 0.134205
H52   H     H_    0.710707 0.873560 0.993355 0.133960
C65   C     C_2   0.694674 0.347990 0.979689 -0.112679
C66   C     C_2   0.305329 0.347983 0.020326 -0.112707
C67   C     C_2   0.194673 0.847988 0.979688 -0.112660
C68   C     C_2   0.805126 0.848673 0.019899 -0.114267
C69   C     C_2   0.764396 0.347519 0.038268 -0.139843
C70   C     C_2   0.235608 0.347487 0.961765 -0.139861
C71   C     C_2   0.264396 0.847518 0.038266 -0.139878
C72   C     C_2   0.735440 0.847487 0.961876 -0.139477
H53   H     H_    0.375683 0.768937 0.099322 0.134458
H54   H     H_    0.624190 0.768828 0.900620 0.134291
H55   H     H_    0.875681 0.268935 0.099318 0.134454
H56   H     H_    0.124319 0.268914 0.900697 0.134457
C73   C     C_2   0.356746 0.753508 0.144384 -0.205213
C74   C     C_2   0.643179 0.753461 0.855608 -0.205154
C75   C     C_2   0.856744 0.253506 0.144380 -0.205204
C76   C     C_2   0.143262 0.253484 0.855644 -0.205200
C77   C     C_2   0.305763 0.794611 0.131518 -0.105876
C78   C     C_2   0.694172 0.794607 0.868581 -0.105593
C79   C     C_2   0.805763 0.294610 0.131517 -0.105857
C80   C     C_2   0.194250 0.294579 0.868523 -0.105867
H57   H     H_    0.671690 0.318455 0.011880 0.175011
H58   H     H_    0.328315 0.318462 0.988130 0.175021
H59   H     H_    0.171690 0.818454 0.011879 0.175032
H60   H     H_    0.828037 0.819949 0.987028 0.175720
N33   N     N_R   0.541938 0.411725 0.847886 0.225938
O1    O     O_R   0.492720 0.464093 0.801779 -0.421102
O2    O     O_R   0.557370 0.374146 0.933034 -0.392609
N34   N     N_R   0.458059 0.411725 0.152112 0.225937
O3    O     O_R   0.507274 0.464089 0.198211 -0.421087
O4    O     O_R   0.442628 0.374148 0.066966 -0.392614
N35   N     N_R   0.041938 0.911722 0.847884 0.225921
O5    O     O_R   0.992719 0.964089 0.801779 -0.421180
O6    O     O_R   0.057368 0.874140 0.933030 -0.392551
N36   N     N_R   0.958088 0.911797 0.152144 0.225816
O7    O     O_R   0.007155 0.964330 0.198070 -0.421117
O8    O     O_R   0.943199 0.873637 0.067737 -0.393066

loop_
_geom_bond_atom_site_label_1
_geom_bond_atom_site_label_2
_geom_bond_distance
_ccdc_geom_bond_type
C16   C19   1.385818 A    
C7    H7    1.077441 S    
C57   C61   1.339703 D    
N36   O7    1.300844 A    
C27   H15   1.081348 S    
C6    H6    1.077429 S    
C4    H4    1.079785 S    
C51   C55   1.341736 D    
C64   H44   1.085566 S    
C35   N27   1.336124 A    
C22   C61   1.455852 S    
C14   N34   1.436090 S    
C30   H18   1.079625 S    
N33   O1    1.300848 A    
C2    C18   1.383789 A    
C59   C63   1.339704 D    
N31   Ni8   1.828007 S    
C63   H43   1.085564 S    
N1    N14   1.359591 A    
C51   C57   1.466553 S    
N30   Ni5   1.828129 S    
N12   Ni3   1.848448 S    
C1    H1    1.079783 S    
C68   C72   1.335494 D    
C61   H41   1.085568 S    
C38   N30   1.337414 A    
C14   N14   1.345559 A    
N4    N15   1.359594 A    
C3    H3    1.079732 S    
C10   C22   1.382312 A    
C42   C53   1.448724 S    
C4    C20   1.383793 A    
C69   C79   1.455356 S    
C41   C54   1.448713 S    
N16   Ni7   1.861449 S    
N5    N9    1.371973 A    
C30   N22   1.339208 A    
C37   C41   1.380929 A    
C40   H28   1.080645 S    
C24   C63   1.455858 S    
C29   N21   1.339398 A    
N34   O3    1.300848 A    
C56   H36   1.084027 S    
C46   C74   1.459673 S    
C50   C54   1.341742 D    
C39   C43   1.380928 A    
C31   C47   1.384358 A    
C68   H60   1.085640 S    
C14   C17   1.385670 A    
N19   N31   1.371972 A    
N18   N30   1.371973 A    
C25   N17   1.336737 A    
C60   C64   1.339700 D    
C10   N10   1.336139 A    
C2    N2    1.337534 A    
C13   N33   1.436091 S    
N34   O4    1.300023 A    
C27   N19   1.336745 A    
C28   N20   1.336729 A    
C72   C78   1.455369 S    
N8    Ni8   1.844860 S    
C7    C23   1.382744 A    
N27   Ni4   1.815154 S    
C4    N4    1.337534 A    
C52   C58   1.466551 S    
C36   H24   1.078166 S    
N15   Ni8   1.861321 S    
C15   N35   1.436090 S    
C23   C64   1.455850 S    
C34   N26   1.336134 A    
H45   C77   1.086177 S    
C7    N7    1.342963 A    
C33   N25   1.336147 A    
N24   Ni8   1.844772 S    
N1    Ni1   1.831539 S    
C21   C62   1.455849 S    
C36   N28   1.336134 A    
N2    N13   1.359594 A    
C9    H9    1.077123 S    
C2    H2    1.079785 S    
C11   C23   1.382345 A    
C38   H26   1.080646 S    
C9    C21   1.382313 A    
C19   C68   1.466335 S    
N33   O2    1.300023 A    
H53   C73   1.087537 S    
N6    N10   1.371973 A    
C20   C67   1.465905 S    
N10   Ni1   1.848448 S    
H47   C79   1.086180 S    
N13   Ni6   1.861321 S    
C11   H11   1.077124 S    
N9    Ni2   1.848480 S    
N23   Ni7   1.844647 S    
C12   H12   1.077156 S    
C1    N1    1.337524 A    
C44   C55   1.448709 S    
N19   Ni3   1.831632 S    
N11   Ni4   1.848480 S    
C53   H33   1.084018 S    
C25   H13   1.081349 S    
C40   C44   1.380935 A    
C15   N15   1.345550 A    
C26   N18   1.336730 A    
H51   C71   1.084770 S    
N6    Ni6   1.844860 S    
C18   C65   1.465905 S    
C55   H35   1.084024 S    
C37   H25   1.080642 S    
C28   H16   1.081347 S    
C37   N29   1.337412 A    
C32   H20   1.079630 S    
C26   C42   1.374975 A    
N17   Ni1   1.831632 S    
C58   H38   1.084157 S    
C48   C76   1.459929 S    
C34   H22   1.078166 S    
N21   Ni5   1.844647 S    
C36   C47   1.393093 A    
C33   H21   1.078173 S    
C8    H8    1.077430 S    
N7    Ni7   1.844734 S    
C5    N5    1.342997 A    
N3    N16   1.359591 A    
N8    N12   1.371973 A    
N24   N27   1.392796 A    
C74   C78   1.333820 D    
C32   C48   1.384373 A    
C5    C21   1.382730 A    
N29   Ni6   1.828007 S    
C47   C75   1.459923 S    
H46   C78   1.086263 S    
H54   C74   1.087614 S    
N7    N11   1.371973 A    
C67   C71   1.335087 D    
C34   C45   1.393093 A    
C31   N23   1.339400 A    
C38   C42   1.380941 A    
C33   C46   1.393089 A    
C49   C59   1.466559 S    
C65   C69   1.335089 D    
N28   Ni3   1.815115 S    
C50   C60   1.466555 S    
C40   N32   1.337413 A    
C26   H14   1.081349 S    
H56   C76   1.087538 S    
C25   C41   1.374966 A    
N20   Ni4   1.831599 S    
N32   Ni7   1.828129 S    
N36   O8    1.300118 A    
C30   C46   1.384176 A    
C27   C43   1.374980 A    
C43   C56   1.448712 S    
C29   C45   1.384359 A    
H50   C70   1.084772 S    
N17   N29   1.371972 A    
C17   C66   1.465916 S    
C8    C24   1.382763 A    
C70   C80   1.455363 S    
C67   H59   1.085181 S    
C58   C62   1.339697 D    
C45   C73   1.459923 S    
C52   H32   1.085136 S    
N4    Ni4   1.831501 S    
C49   C53   1.341736 D    
C32   N24   1.339404 A    
C57   H37   1.084157 S    
H55   C75   1.087538 S    
C11   N11   1.336153 A    
C6    N6    1.343004 A    
C66   H58   1.085183 S    
N20   N32   1.371973 A    
N35   O5    1.300845 A    
C60   H40   1.084156 S    
H52   C72   1.085217 S    
C35   H23   1.078166 S    
C12   C24   1.382320 A    
C1    C17   1.383786 A    
C6    C22   1.382740 A    
C75   C79   1.333874 D    
C62   H42   1.085568 S    
C29   H17   1.079626 S    
N2    Ni2   1.831501 S    
C3    C19   1.383898 A    
C59   H39   1.084156 S    
C28   C44   1.374966 A    
C31   H19   1.079628 S    
N22   Ni6   1.844772 S    
N22   N25   1.392796 A    
C13   N13   1.345552 A    
N14   Ni5   1.861449 S    
C65   H57   1.085186 S    
N21   N26   1.392799 A    
N35   O6    1.300022 A    
C3    N3    1.337354 A    
C66   C70   1.335097 D    
C39   H27   1.080644 S    
C5    H5    1.077427 S    
H48   C80   1.086174 S    
C71   C77   1.455357 S    
C76   C80   1.333883 D    
N23   N28   1.392799 A    
C16   N16   1.345613 A    
C16   N36   1.435986 S    
C12   N12   1.336132 A    
C8    N8    1.343009 A    
H49   C69   1.084775 S    
C73   C77   1.333878 D    
N3    Ni3   1.831539 S    
C50   H30   1.085138 S    
C39   N31   1.337401 A    
C13   C18   1.385655 A    
C35   C48   1.393090 A    
N26   Ni1   1.815115 S    
C49   H29   1.085129 S    
C54   H34   1.084026 S    
N5    Ni5   1.844734 S    
N25   Ni2   1.815154 S    
C52   C56   1.341745 D    
C9    N9    1.336150 A    
C15   C20   1.385655 A    
N18   Ni2   1.831599 S    
C10   H10   1.077121 S    
C51   H31   1.085136 S    
