data_mof_unit_47335.cif
_audit_creation_date              2012-10-26T21:05:19-0400
_audit_creation_method            fapswitch 2.2
_symmetry_space_group_name_H-M    P1
_symmetry_Int_Tables_number       1
_space_group_crystal_system       triclinic
_cell_length_a                    9.636953
_cell_length_b                    10.974092
_cell_length_c                    13.879904
_cell_angle_alpha                 93.971089
_cell_angle_beta                  84.345293
_cell_angle_gamma                 86.909533
_cell_volume                      1454.51435088

loop_
_atom_site_label
_atom_site_type_symbol
_atom_type_description
_atom_site_fract_x
_atom_site_fract_y
_atom_site_fract_z
_atom_type_partial_charge
C1    C     C_R   0.495939 0.737202 0.496991 0.556729
C2    C     C_R   0.616131 0.922672 0.477326 -0.114004
C3    C     C_R   0.625726 0.047467 0.477648 0.204342
C4    C     C_R   0.476717 0.500495 0.682792 0.546959
C5    C     C_R   0.506211 0.126887 0.511147 -0.014690
C6    C     C_R   0.889077 0.364556 0.350805 -0.002406
C7    C     C_R   0.975896 0.301881 0.275405 -0.091098
C8    C     C_R   0.118031 0.293311 0.280096 -0.138133
C9    C     C_R   0.173628 0.351875 0.357832 -0.045532
C10   C     C_R   0.089647 0.429518 0.428929 0.171169
C11   C     C_R   0.940999 0.432776 0.427197 0.148044
C12   C     C_1   0.461096 0.500525 0.786056 0.026925
C13   C     C_R   0.913988 0.566550 0.569124 0.187425
C14   C     C_R   0.061404 0.565765 0.568612 0.039790
C15   C     C_R   0.502974 0.261891 0.503360 0.547508
C16   C     C_R   0.523121 0.499550 0.317246 0.547336
C17   C     C_1   0.536623 0.499497 0.214072 0.054226
C18   C     C_2   0.544780 0.500089 0.023692 -0.130264
C19   C     C_2   0.428333 0.500984 0.977251 0.047314
C20   C     C_1   0.446324 0.500645 0.873013 -0.019592
C21   C     C_1   0.542677 0.499663 0.127253 0.023760
C22   C     C_2   0.282932 0.502444 0.026281 0.601145
C23   C     C_R   0.226211 0.910324 0.505329 0.019639
C24   C     C_2   0.190849 0.820788 0.426720 0.656361
C25   C     C_2   0.831370 0.645011 0.646433 0.605481
C26   C     C_R   0.114549 0.978103 0.560821 -0.069351
C27   C     C_R   0.136603 0.088247 0.611166 -0.107799
C28   C     C_R   0.266743 0.137571 0.598981 -0.081983
C29   C     C_R   0.379685 0.072346 0.541610 -0.021298
C30   C     C_R   0.364422 0.948264 0.511989 -0.046095
C31   C     C_R   0.488527 0.870721 0.492493 -0.074934
Cu1   Cu    Cu3+1 0.359340 0.500010 0.500010 0.984534
Cu2   Cu    Cu3+1 0.640660 0.499990 0.499990 1.044827
H1    H     H_    0.782617 0.346837 0.352550 0.236736
H2    H     H_    0.278654 0.225871 0.635973 0.151602
H3    H     H_    0.153496 0.509944 0.150523 0.351030
H4    H     H_    0.355399 0.854307 0.330990 0.291126
H5    H     H_    0.703865 0.074813 0.277260 0.348282
H6    H     H_    0.735517 0.810595 0.688660 0.332674
H7    H     H_    0.932098 0.252264 0.216629 0.173816
H8    H     H_    0.185249 0.237575 0.225032 0.142912
H9    H     H_    0.282274 0.330898 0.359613 0.179396
H10   H     H_    0.106894 0.620621 0.623847 0.127102
H11   H     H_    0.646744 0.499219 0.982318 0.142672
H12   H     H_    0.709757 0.863920 0.457594 0.227340
H13   H     H_    0.008831 0.949047 0.561534 0.201163
H14   H     H_    0.050283 0.139641 0.654219 0.149491
N1    N     N_R   0.852210 0.498790 0.499090 -0.268606
N2    N     N_R   0.148080 0.498710 0.499060 -0.253622
O1    O     O_R   0.381190 0.680360 0.500010 -0.488791
O2    O     O_R   0.256734 0.509210 0.127486 -0.677624
O3    O     O_2   0.082050 0.768894 0.436825 -0.455448
O4    O     O_R   0.276279 0.797710 0.339037 -0.624156
O5    O     O_2   0.847459 0.183875 0.481021 -0.277012
O6    O     O_2   0.887418 0.984630 0.391924 -0.269665
O7    O     O_3   0.738925 0.145417 0.313945 -0.587135
O8    O     O_2   0.810192 0.608666 0.727565 -0.518161
O9    O     O_R   0.788815 0.764560 0.629358 -0.692461
O10   O     O_R   0.618760 0.680340 0.500000 -0.470807
O11   O     O_R   0.364420 0.499990 0.637850 -0.516043
O12   O     O_R   0.601990 0.499960 0.637840 -0.469006
O13   O     O_R   0.381240 0.319660 0.500000 -0.550759
O14   O     O_R   0.618810 0.319640 0.499990 -0.444530
O15   O     O_R   0.398010 0.500040 0.362160 -0.479435
O16   O     O_R   0.635580 0.500010 0.362150 -0.546184
O17   O     O_2   0.184603 0.498195 0.976944 -0.500072
S1    S     S_3+6 0.782471 0.091169 0.417765 -0.022162

loop_
_geom_bond_atom_site_label_1
_geom_bond_atom_site_label_2
_ccdc_geom_bond_type
C24   O3    D    
C13   N1    A    
O6    S1    D    
C23   C24   S    
C6    C7    A    
O5    S1    D    
C18   H11   S    
C4    C12   S    
O7    S1    S    
C1    O1    A    
C2    C31   A    
C19   C20   S    
Cu2   O14   S    
C7    H7    S    
C5    C15   S    
H4    O4    S    
Cu1   Cu2   S    
C4    O11   A    
C2    C3    A    
C26   C27   A    
Cu1   O13   S    
C7    C8    A    
Cu2   O10   S    
C13   C14   A    
H6    O9    S    
C13   C25   S    
C11   N1    A    
C29   C30   A    
H3    O2    S    
C25   O8    D    
C12   C20   T    
C9    H9    S    
C28   C29   A    
C15   O13   A    
Cu1   O1    S    
C5    C29   A    
C10   C11   A    
C1    O10   A    
C2    H12   S    
C30   C31   A    
C17   C21   T    
Cu1   N2    S    
C22   O2    S    
C14   N2    A    
C16   C17   S    
C25   O9    S    
Cu1   O11   S    
Cu2   O16   S    
C18   C21   S    
C23   C30   A    
C1    C31   S    
C19   C22   S    
H5    O7    S    
C8    H8    S    
Cu1   O15   S    
C8    C9    A    
Cu2   O12   S    
C18   C19   D    
C9    C10   A    
C23   C26   A    
C27   H14   S    
C6    C11   A    
Cu2   N1    S    
C15   O14   A    
C22   O17   D    
C16   O16   A    
C16   O15   A    
C3    C5    A    
C24   O4    S    
C10   N2    A    
C4    O12   A    
C3    S1    S    
C26   H13   S    
C6    H1    S    
C28   H2    S    
C14   H10   S    
C27   C28   A    
