data_mof_unit_28037.cif
_audit_creation_date              2012-12-11T14:10:59-0500
_audit_creation_method            fapswitch 2.2
_symmetry_space_group_name_H-M    P1
_symmetry_Int_Tables_number       1
_space_group_crystal_system       triclinic
_cell_length_a                    20.094778
_cell_length_b                    17.202758
_cell_length_c                    15.55192
_cell_angle_alpha                 89.999967
_cell_angle_beta                  51.776307
_cell_angle_gamma                 90.000027
_cell_volume                      4223.45031688

loop_
_atom_site_label
_atom_site_type_symbol
_atom_type_description
_atom_site_fract_x
_atom_site_fract_y
_atom_site_fract_z
_atom_type_partial_charge
C1    C     C_R   0.380347 0.198721 0.990405 0.314419
C2    C     C_3   0.793377 0.808399 0.412521 -0.328873
C3    C     C_3   0.530870 0.264872 0.595387 -1.006757
C4    C     C_3   0.030849 0.235067 0.595466 -1.006736
C5    C     C_3   0.969126 0.764862 0.404629 -1.006762
C6    C     C_3   0.874140 0.284036 0.433632 -0.987537
C7    C     C_3   0.125817 0.716046 0.566500 -0.987482
C8    C     C_3   0.130305 0.071410 0.565398 -0.997030
C9    C     C_3   0.869750 0.928567 0.434660 -0.996996
C10   C     C_3   0.780167 0.126937 0.449000 -1.028005
C11   C     C_3   0.219884 0.873088 0.551075 -1.028062
C12   C     C_3   0.719827 0.626941 0.550989 -1.028000
C13   C     C_3   0.700516 0.245673 0.432491 -0.324464
C14   C     C_3   0.280127 0.373080 0.448946 -1.028039
C15   C     C_3   0.369673 0.571404 0.434584 -0.997040
C16   C     C_3   0.630259 0.428570 0.565348 -0.996995
C17   C     C_3   0.299532 0.754293 0.567486 -0.324459
C18   C     C_3   0.799478 0.745669 0.567511 -0.324462
C19   C     C_3   0.200480 0.254302 0.432508 -0.324463
C20   C     C_3   0.293303 0.691640 0.412567 -0.328869
C21   C     C_3   0.706632 0.308394 0.587473 -0.328873
C22   C     C_2   0.188512 0.747016 0.087510 -0.199246
C23   C     C_2   0.811489 0.252984 0.912485 -0.199276
C24   C     C_2   0.739508 0.703970 0.005146 -0.170043
C25   C     C_R   0.619653 0.801279 0.009595 0.314422
C26   C     C_2   0.260494 0.296032 0.994851 -0.170041
C27   C     C_2   0.760497 0.203965 0.994846 -0.170041
C28   C     C_2   0.239510 0.796028 0.005143 -0.170040
C29   C     C_2   0.311489 0.247016 0.912488 -0.199265
C30   C     C_2   0.688514 0.752986 0.087510 -0.199265
C31   C     C_R   0.391066 0.803019 0.214657 -0.125303
C32   C     C_R   0.608922 0.196984 0.785351 -0.125294
C33   C     C_R   0.652648 0.830832 0.778873 -0.145180
C34   C     C_R   0.347348 0.169163 0.221127 -0.145182
C35   C     C_R   0.847351 0.330832 0.221127 -0.145174
C36   C     C_R   0.651321 0.184165 0.968920 0.337615
C37   C     C_R   0.152654 0.669161 0.778873 -0.145202
C38   C     C_R   0.108929 0.303017 0.785347 -0.125300
C39   C     C_R   0.891080 0.696985 0.214648 -0.125289
C40   C     C_R   0.337278 0.907652 0.939217 -0.214190
C41   C     C_R   0.662725 0.092345 0.060777 -0.214191
C42   C     C_R   0.632361 0.888242 0.103819 -0.213740
C43   C     C_R   0.367640 0.111759 0.896180 -0.213736
C44   C     C_R   0.867640 0.388241 0.896180 -0.213739
C45   C     C_R   0.132359 0.611759 0.103820 -0.213739
C46   C     C_R   0.162724 0.407654 0.060779 -0.214191
C47   C     C_R   0.348681 0.815833 0.031075 0.337609
C48   C     C_R   0.837277 0.592347 0.939219 -0.214188
C49   C     C_R   0.354965 0.076993 0.316242 -0.110190
C50   C     C_R   0.645033 0.923004 0.683757 -0.110187
C51   C     C_R   0.600374 0.105663 0.691077 -0.129256
C52   C     C_R   0.399617 0.894340 0.308928 -0.129257
C53   C     C_R   0.899628 0.605664 0.308922 -0.129254
C54   C     C_R   0.100379 0.394338 0.691074 -0.129256
C55   C     C_R   0.145036 0.576991 0.683759 -0.110187
C56   C     C_R   0.854966 0.423005 0.316242 -0.110188
C57   C     C_R   0.351653 0.187896 0.931139 0.114373
C58   C     C_R   0.848682 0.684166 0.031076 0.337612
C59   C     C_R   0.648348 0.812104 0.068861 0.114375
C60   C     C_R   0.699897 0.158280 0.998297 0.097373
C61   C     C_R   0.300107 0.841716 0.001694 0.097371
C62   C     C_R   0.800107 0.658284 0.001696 0.097375
C63   C     C_R   0.199896 0.341719 0.998300 0.097372
C64   C     C_R   0.148346 0.687897 0.068863 0.114367
C65   C     C_R   0.851653 0.312104 0.931138 0.114378
C66   C     C_R   0.376045 0.819626 0.311334 0.104506
C67   C     C_R   0.623934 0.180381 0.688679 0.104512
C68   C     C_R   0.694818 0.864526 0.677118 0.098610
C69   C     C_R   0.151321 0.315835 0.968921 0.337612
C70   C     C_R   0.305175 0.135466 0.322881 0.098606
C71   C     C_R   0.805181 0.364527 0.322881 0.098608
C72   C     C_R   0.194827 0.635463 0.677120 0.098613
C73   C     C_R   0.123946 0.319622 0.688671 0.104510
C74   C     C_R   0.876069 0.680383 0.311318 0.104505
C75   C     C_3   0.169089 0.152074 0.536747 0.286852
C76   C     C_3   0.830940 0.847914 0.463274 0.286842
C77   C     C_3   0.738361 0.206617 0.482783 0.308259
C78   C     C_3   0.261660 0.793396 0.517256 0.308262
C79   C     C_3   0.761637 0.706619 0.517211 0.308257
C80   C     C_R   0.119651 0.698721 0.009597 0.314424
C81   C     C_3   0.238344 0.293391 0.482757 0.308261
C82   C     C_3   0.330898 0.652073 0.463247 0.286843
C83   C     C_3   0.669065 0.347915 0.536729 0.286840
C84   C     C_3   0.716760 0.781438 0.526996 0.298519
C85   C     C_3   0.283259 0.218595 0.472951 0.298517
C86   C     C_3   0.376851 0.728051 0.451492 0.302410
C87   C     C_3   0.623157 0.271910 0.548460 0.302407
C88   C     C_3   0.123149 0.228060 0.548495 0.302412
C89   C     C_3   0.876842 0.771906 0.451546 0.302405
C90   C     C_3   0.783244 0.281432 0.472994 0.298518
C91   C     C_R   0.880346 0.301279 0.990405 0.314421
C92   C     C_3   0.216732 0.718607 0.527070 0.298512
C93   C     C_3   0.754056 0.821442 0.577223 0.003028
C94   C     C_3   0.245940 0.178552 0.422776 0.003016
C95   C     C_3   0.338368 0.767389 0.403011 0.002912
C96   C     C_3   0.661614 0.232618 0.597003 0.002910
C97   C     C_3   0.161623 0.267386 0.596994 0.002906
C98   C     C_3   0.838390 0.732620 0.402994 0.002912
C99   C     C_3   0.745944 0.321442 0.422776 0.003025
C100  C     C_3   0.254059 0.678551 0.577225 0.003018
C101  C     C_3   0.411847 0.274724 0.000949 -1.071170
C102  C     C_3   0.206675 0.191629 0.587447 -0.328871
C103  C     C_3   0.588155 0.725276 0.999050 -1.071169
C104  C     C_3   0.644077 0.267486 0.947064 -1.073850
C105  C     C_3   0.355925 0.732512 0.052933 -1.073841
C106  C     C_3   0.855928 0.767487 0.052931 -1.073849
C107  C     C_3   0.144078 0.232514 0.947063 -1.073843
C108  C     C_3   0.088151 0.774724 0.999050 -1.071166
C109  C     C_3   0.911845 0.225276 0.000951 -1.071176
C110  C     C_3   0.625868 0.784047 0.566349 -0.987548
C111  C     C_3   0.374168 0.216022 0.433542 -0.987491
C112  C     C_3   0.469156 0.735046 0.404500 -1.006737
H1    H     H_    0.320787 0.939260 0.894637 0.123562
H2    H     H_    0.790485 0.834084 0.349408 0.149835
H3    H     H_    0.202517 0.889652 0.498285 0.262094
H4    H     H_    0.661790 0.628713 0.637602 0.264354
H5    H     H_    0.702492 0.610410 0.498155 0.262087
H6    H     H_    0.763949 0.583206 0.542888 0.240683
H7    H     H_    0.338150 0.371311 0.362322 0.264361
H8    H     H_    0.235981 0.416794 0.457066 0.240678
H9    H     H_    0.297484 0.389639 0.501749 0.262098
H10   H     H_    0.426038 0.569471 0.346946 0.259510
H11   H     H_    0.388745 0.556851 0.486097 0.256283
H12   H     H_    0.322312 0.528728 0.449627 0.255387
H13   H     H_    0.697615 0.220496 0.369151 0.146859
H14   H     H_    0.573886 0.430510 0.652981 0.259499
H15   H     H_    0.677599 0.471279 0.550296 0.255388
H16   H     H_    0.611192 0.443073 0.513817 0.256277
H17   H     H_    0.302479 0.779440 0.630802 0.146867
H18   H     H_    0.802373 0.720488 0.630855 0.146858
H19   H     H_    0.197548 0.279457 0.369183 0.146865
H20   H     H_    0.290356 0.665987 0.349484 0.149835
H21   H     H_    0.709531 0.334076 0.650582 0.149835
H22   H     H_    0.185173 0.744683 0.159832 0.151991
H23   H     H_    0.814825 0.255323 0.840166 0.152010
H24   H     H_    0.746826 0.704910 0.930093 0.138827
H25   H     H_    0.679218 0.060736 0.105354 0.123561
H26   H     H_    0.253175 0.295091 0.069905 0.138825
H27   H     H_    0.753180 0.204903 0.069899 0.138832
H28   H     H_    0.246833 0.795083 0.930086 0.138814
H29   H     H_    0.314827 0.244680 0.840166 0.151999
H30   H     H_    0.685178 0.755323 0.159829 0.152010
H31   H     H_    0.445564 0.308179 0.923404 0.265105
H32   H     H_    0.359922 0.310472 0.069288 0.240187
H33   H     H_    0.456164 0.263377 0.018698 0.250827
H34   H     H_    0.640081 0.689529 0.930710 0.240183
H35   H     H_    0.554436 0.691821 0.076596 0.265103
H36   H     H_    0.637673 0.914078 0.162752 0.117466
H37   H     H_    0.543839 0.736623 0.981298 0.250827
H38   H     H_    0.653626 0.306937 0.995073 0.266270
H39   H     H_    0.692244 0.280951 0.858859 0.243708
H40   H     H_    0.580023 0.279911 0.974130 0.249159
H41   H     H_    0.307754 0.719047 0.141137 0.243704
H42   H     H_    0.346382 0.693061 0.004919 0.266268
H43   H     H_    0.419977 0.720089 0.025876 0.249161
H44   H     H_    0.846383 0.806939 0.004919 0.266270
H45   H     H_    0.807760 0.780954 0.141136 0.243708
H46   H     H_    0.919981 0.779910 0.025869 0.249164
H47   H     H_    0.362328 0.085923 0.837246 0.117469
H48   H     H_    0.192246 0.219049 0.858858 0.243705
H49   H     H_    0.153625 0.193063 0.995074 0.266269
H50   H     H_    0.080025 0.220088 0.974126 0.249159
H51   H     H_    0.054412 0.808169 0.076607 0.265101
H52   H     H_    0.140078 0.810483 0.930733 0.240194
H53   H     H_    0.043855 0.763377 0.981266 0.250822
H54   H     H_    0.859920 0.189533 0.069299 0.240181
H55   H     H_    0.945555 0.191817 0.923410 0.265107
H56   H     H_    0.956169 0.236623 0.018689 0.250829
H57   H     H_    0.392850 0.745480 0.186533 0.122137
H58   H     H_    0.862329 0.414077 0.837245 0.117466
H59   H     H_    0.607137 0.254522 0.813479 0.122130
H60   H     H_    0.673306 0.781198 0.798809 0.124219
H61   H     H_    0.326688 0.218796 0.201192 0.124225
H62   H     H_    0.826694 0.281199 0.201191 0.124218
H63   H     H_    0.173314 0.718794 0.798808 0.124233
H64   H     H_    0.107143 0.245479 0.813473 0.122135
H65   H     H_    0.892865 0.754522 0.186519 0.122128
H66   H     H_    0.342714 0.042697 0.382859 0.102079
H67   H     H_    0.657287 0.957304 0.617141 0.102072
H68   H     H_    0.593967 0.078234 0.633977 0.096978
H69   H     H_    0.137672 0.585923 0.162753 0.117470
H70   H     H_    0.406029 0.921768 0.366025 0.096985
H71   H     H_    0.906035 0.578234 0.366022 0.096977
H72   H     H_    0.093968 0.421767 0.633977 0.096983
H73   H     H_    0.157286 0.542696 0.617142 0.102074
H74   H     H_    0.842713 0.457304 0.382858 0.102071
H75   H     H_    0.609840 0.843814 0.557937 0.241446
H76   H     H_    0.619296 0.744142 0.515927 0.255141
H77   H     H_    0.581531 0.765688 0.653324 0.259636
H78   H     H_    0.390228 0.156266 0.441939 0.241451
H79   H     H_    0.418475 0.234381 0.346564 0.259631
H80   H     H_    0.179216 0.439263 0.105357 0.123562
H81   H     H_    0.380753 0.255944 0.483937 0.255132
H82   H     H_    0.484706 0.796922 0.404648 0.244487
H83   H     H_    0.480216 0.700571 0.454904 0.258242
H84   H     H_    0.510490 0.712867 0.319191 0.256803
H85   H     H_    0.515354 0.202984 0.595236 0.244482
H86   H     H_    0.489498 0.287058 0.680691 0.256802
H87   H     H_    0.519830 0.299316 0.544942 0.258241
H88   H     H_    0.015308 0.296946 0.595317 0.244483
H89   H     H_    0.019796 0.200601 0.545049 0.258241
H90   H     H_    0.989503 0.212886 0.680773 0.256801
H91   H     H_    0.820785 0.560739 0.894640 0.123560
H92   H     H_    0.984639 0.702973 0.404778 0.244482
H93   H     H_    0.010504 0.787051 0.319327 0.256801
H94   H     H_    0.980162 0.799301 0.455081 0.258242
H95   H     H_    0.890172 0.343801 0.442041 0.241446
H96   H     H_    0.880714 0.244129 0.484048 0.255139
H97   H     H_    0.918472 0.265678 0.346656 0.259636
H98   H     H_    0.109746 0.656292 0.558108 0.241455
H99   H     H_    0.081521 0.734404 0.653479 0.259631
H100  H     H_    0.119227 0.755973 0.516114 0.255132
H101  H     H_    0.073934 0.069475 0.653033 0.259507
H102  H     H_    0.209607 0.165968 0.650538 0.149836
H103  H     H_    0.111241 0.056867 0.513873 0.256279
H104  H     H_    0.177659 0.028725 0.550362 0.255388
H105  H     H_    0.926127 0.930507 0.347030 0.259500
H106  H     H_    0.822414 0.971278 0.449705 0.255389
H107  H     H_    0.888809 0.943068 0.486200 0.256276
H108  H     H_    0.838202 0.128708 0.362385 0.264353
H109  H     H_    0.797507 0.110403 0.501828 0.262085
H110  H     H_    0.736042 0.083204 0.457106 0.240684
H111  H     H_    0.161869 0.871320 0.637704 0.264360
H112  H     H_    0.264039 0.916797 0.542945 0.240686
N1    N     N_R   0.408680 0.130810 0.995780 -0.057944
N2    N     N_R   0.578590 0.132790 0.846380 -0.038825
N3    N     N_R   0.578590 0.867210 0.846380 -0.043830
N4    N     N_R   0.421410 0.132790 0.153620 -0.043829
N5    N     N_R   0.921410 0.367210 0.153620 -0.043830
N6    N     N_R   0.078590 0.632790 0.846380 -0.043831
N7    N     N_R   0.078590 0.367210 0.846380 -0.038825
N8    N     N_R   0.921410 0.632790 0.153620 -0.038822
N9    N     N_R   0.403840 0.921910 0.935760 -0.054301
N10   N     N_R   0.596160 0.078090 0.064240 -0.054300
N11   N     N_R   0.596160 0.921910 0.064240 -0.050915
N12   N     N_R   0.591320 0.869190 0.004220 -0.057944
N13   N     N_R   0.403840 0.078090 0.935760 -0.050915
N14   N     N_R   0.903840 0.421910 0.935760 -0.050915
N15   N     N_R   0.096160 0.578090 0.064240 -0.050915
N16   N     N_R   0.096160 0.421910 0.064240 -0.054300
N17   N     N_R   0.903840 0.578090 0.935760 -0.054300
N18   N     N_R   0.426250 0.076100 0.213650 -0.043859
N19   N     N_R   0.573750 0.923900 0.786350 -0.043859
N20   N     N_R   0.573750 0.076100 0.786350 -0.042661
N21   N     N_R   0.426250 0.923900 0.213650 -0.042661
N22   N     N_R   0.926250 0.576100 0.213650 -0.042661
N23   N     N_R   0.591320 0.130810 0.004220 -0.061390
N24   N     N_R   0.073750 0.423900 0.786350 -0.042661
N25   N     N_R   0.073750 0.576100 0.786350 -0.043858
N26   N     N_R   0.926250 0.423900 0.213650 -0.043859
N27   N     N_R   0.408680 0.869190 0.995780 -0.061389
N28   N     N_R   0.908680 0.630810 0.995780 -0.061389
N29   N     N_R   0.091320 0.369190 0.004220 -0.061390
N30   N     N_R   0.091320 0.630810 0.004220 -0.057944
N31   N     N_R   0.908680 0.369190 0.995780 -0.057944
N32   N     N_R   0.421410 0.867210 0.153620 -0.038823
Ni1   Ni    Ni4+2 0.500000 0.131570 0.000000 0.204437
Ni2   Ni    Ni4+2 0.500000 0.868430 0.000000 0.204440
Ni3   Ni    Ni4+2 0.000000 0.631570 0.000000 0.204435
Ni4   Ni    Ni4+2 0.000000 0.368430 0.000000 0.204440
Ni5   Ni    Ni4+2 0.488900 0.000000 0.862310 0.201976
Ni6   Ni    Ni4+2 0.511100 0.000000 0.137690 0.201973
Ni7   Ni    Ni4+2 0.988900 0.500000 0.862310 0.201972
Ni8   Ni    Ni4+2 0.011100 0.500000 0.137690 0.201976

loop_
_geom_bond_atom_site_label_1
_geom_bond_atom_site_label_2
_ccdc_geom_bond_type
C9    H106  S    
C58   C62   A    
C31   C66   A    
C105  H41   S    
C108  H53   S    
C5    H93   S    
C111  H79   S    
C107  H49   S    
C15   H10   S    
C20   C82   S    
N12   Ni2   S    
N1    N13   A    
C79   C98   S    
C58   N28   A    
C51   N20   A    
C28   H28   S    
N22   Ni8   S    
C36   N23   A    
C8    H103  S    
C42   H36   S    
C52   N21   A    
C5    H92   S    
C49   N18   A    
C69   C107  S    
C103  H35   S    
C74   C98   S    
C6    H97   S    
N5    Ni4   S    
C73   C97   S    
C20   C92   S    
C48   H91   S    
C101  H33   S    
N16   N29   A    
N14   N31   A    
C80   N30   A    
C31   N32   A    
C22   H22   S    
C36   C60   A    
N30   Ni3   S    
C104  H39   S    
C109  H56   S    
C17   H17   S    
C20   H20   S    
C106  H46   S    
C43   H47   S    
C27   C60   S    
C53   H71   S    
N27   Ni2   S    
N3    N19   A    
C79   C84   S    
N10   N23   A    
C101  H32   S    
C44   N14   A    
C41   N10   A    
N26   Ni8   S    
C1    N1    A    
C12   C79   S    
C3    H86   S    
C42   N11   A    
C39   C74   A    
C104  H38   S    
C53   N22   A    
C112  H84   S    
C43   N13   A    
N3    Ni2   S    
N23   Ni1   S    
C5    H94   S    
C2    C84   S    
C102  H102  S    
C63   C69   A    
C25   N12   A    
C18   C79   S    
C47   C105  S    
N8    Ni3   S    
N32   Ni2   S    
C75   C102  S    
C3    H87   S    
N11   N12   A    
C55   N25   A    
C26   C29   D    
C9    C76   S    
C23   C27   D    
N28   Ni3   S    
N6    N25   A    
C11   H3    S    
C34   C70   A    
C6    H96   S    
N5    N26   A    
C10   H109  S    
C26   H26   S    
C76   C89   S    
N24   Ni7   S    
C13   H13   S    
C28   C61   S    
C9    H107  S    
C17   C100  S    
C105  H42   S    
C35   C71   A    
C14   H9    S    
C22   C28   D    
C87   C96   S    
C64   C80   A    
C16   H14   S    
N14   Ni7   S    
C37   C72   A    
N17   N28   A    
C82   C100  S    
C23   C65   S    
N16   Ni8   S    
N21   Ni6   S    
N2    Ni1   S    
C21   H21   S    
C39   H65   S    
C10   C77   S    
C81   C85   S    
C7    H100  S    
C15   C82   S    
C24   C30   D    
C21   C90   S    
C19   H19   S    
C37   N6    A    
C110  H75   S    
C108  H51   S    
C13   C77   S    
C77   C90   S    
C8    H101  S    
C15   H12   S    
C29   C57   S    
N13   Ni5   S    
C17   C86   S    
C21   C83   S    
C2    H2    S    
C110  H77   S    
C19   C88   S    
C86   C95   S    
C11   H111  S    
C103  H37   S    
N21   N32   A    
C25   C103  S    
C31   H57   S    
C8    H104  S    
C82   C86   S    
C91   N31   A    
C3    C87   S    
C8    C75   S    
C84   C110  S    
C40   C61   A    
C56   N26   A    
C91   C109  S    
C35   N5    A    
C13   C99   S    
C34   N4    A    
C26   C63   S    
C45   N15   A    
C112  H83   S    
C11   C78   S    
C1    C57   A    
C76   C93   S    
C37   H63   S    
C54   C73   A    
C108  H52   S    
C85   C94   S    
C38   H64   S    
C40   H1    S    
C107  H50   S    
C4    H88   S    
C78   C95   S    
C83   C87   S    
C110  H76   S    
C30   C59   S    
C13   C87   S    
N15   N30   A    
N18   Ni6   S    
C43   C57   A    
N4    N18   A    
C51   C67   A    
N25   Ni7   S    
C52   C66   A    
C16   H16   S    
C112  H82   S    
C6    H95   S    
C75   C94   S    
C19   C94   S    
C15   H11   S    
C111  H81   S    
C32   C67   A    
C12   H6    S    
C105  H43   S    
C32   H59   S    
C32   N2    A    
C50   N19   A    
N11   Ni6   S    
C46   N16   A    
C49   C70   A    
N17   Ni7   S    
N2    N20   A    
C16   C83   S    
C54   H72   S    
C52   H70   S    
C18   H18   S    
C27   H27   S    
C10   H108  S    
N7    N24   A    
C51   H68   S    
C29   H29   S    
C1    C101  S    
C90   C99   S    
C7    H98   S    
C2    C76   S    
C92   C100  S    
C18   C89   S    
N9    Ni5   S    
C49   H66   S    
C72   C100  S    
C9    H105  S    
C41   H25   S    
C65   C91   A    
N31   Ni4   S    
C69   N29   A    
C24   C62   S    
C45   C64   A    
C70   C94   S    
N4    Ni1   S    
C35   H62   S    
C47   N27   A    
C20   C95   S    
C55   C72   A    
C41   C60   A    
C56   H74   S    
C40   N9    A    
C33   N3    A    
C109  H55   S    
C11   H112  S    
C47   C61   A    
C7    H99   S    
C38   N7    A    
C48   N17   A    
C21   C96   S    
C106  H45   S    
C25   C59   A    
N7    Ni4   S    
C80   C108  S    
C77   C96   S    
C106  H44   S    
C68   C93   S    
C30   H30   S    
C14   H8    S    
C23   H23   S    
C89   C98   S    
C36   C104  S    
C78   C92   S    
C104  H40   S    
C50   H67   S    
C48   C62   A    
C88   C97   S    
N1    Ni1   S    
C39   N8    A    
C34   H61   S    
C107  H48   S    
C4    H90   S    
C46   H80   S    
C101  H31   S    
N29   Ni4   S    
C24   H24   S    
C4    H89   S    
C67   C96   S    
C46   C63   A    
C71   C99   S    
C54   N24   A    
C7    C92   S    
C103  H34   S    
C44   C65   A    
C17   C78   S    
C3    H85   S    
N8    N22   A    
C84   C93   S    
C55   H73   S    
N15   Ni8   S    
C16   H15   S    
C44   H58   S    
C109  H54   S    
C10   H110  S    
C22   C64   S    
C12   H5    S    
N9    N27   A    
C85   C111  S    
C75   C88   S    
N10   Ni6   S    
C56   C71   A    
C6    C90   S    
N6    Ni3   S    
C2    C98   S    
C111  H78   S    
C14   H7    S    
C45   H69   S    
C42   C59   A    
C58   C106  S    
C18   C93   S    
C81   C97   S    
C83   C99   S    
N20   Ni5   S    
N19   Ni5   S    
C14   C81   S    
C86   C112  S    
C19   C81   S    
C33   H60   S    
C50   C68   A    
C97   C102  S    
C38   C73   A    
C4    C88   S    
C5    C89   S    
C85   C102  S    
C33   C68   A    
C66   C95   S    
C12   H4    S    
C53   C74   A    
