data_mof_unit_5941.cif
_audit_creation_date              2012-12-11T17:43:17-0500
_audit_creation_method            fapswitch 2.2
_symmetry_space_group_name_H-M    P1
_symmetry_Int_Tables_number       1
_space_group_crystal_system       triclinic
_cell_length_a                    15.153572
_cell_length_b                    15.082455
_cell_length_c                    17.080034
_cell_angle_alpha                 108.877913
_cell_angle_beta                  105.890932
_cell_angle_gamma                 109.383995
_cell_volume                      3150.60058054

loop_
_atom_site_label
_atom_site_type_symbol
_atom_type_description
_atom_site_fract_x
_atom_site_fract_y
_atom_site_fract_z
_atom_type_partial_charge
C1    C     C_R   0.081984 0.290390 0.082468 -0.137449
C2    C     C_R   0.910661 0.724246 0.969456 -0.115815
C3    C     C_R   0.032108 0.496909 0.726229 0.063223
C4    C     C_R   0.977272 0.422332 0.255046 0.063976
C5    C     C_R   0.747764 0.193758 0.727165 0.083616
C6    C     C_R   0.331508 0.784053 0.257280 0.082128
C7    C     C_R   0.299955 0.472118 0.980356 0.052513
C8    C     C_R   0.644008 0.438654 0.949802 0.052844
C9    C     C_R   0.902061 0.929106 0.042745 -0.227324
C10   C     C_R   0.082222 0.117262 0.123472 -0.226165
C11   C     C_R   0.997323 0.926978 0.061906 0.064600
C12   C     C_R   0.987988 0.115198 0.083807 0.049813
C13   C     C_R   0.088903 0.024582 0.107001 0.029655
C14   C     C_R   0.895649 0.022078 0.052098 0.033657
C15   C     C_R   0.709102 0.942905 0.944731 -0.172618
C16   C     C_R   0.259302 0.073692 0.221711 -0.180284
C17   C     C_R   0.596629 0.010152 0.989103 -0.093610
C18   C     C_R   0.403687 0.090689 0.182157 -0.097993
C19   C     C_R   0.478343 0.569561 0.275369 -0.102120
C20   C     C_R   0.507103 0.310774 0.654648 -0.109172
C21   C     C_R   0.475989 0.554535 0.189518 -0.131237
C22   C     C_R   0.498588 0.324506 0.736751 -0.142809
C23   C     C_R   0.939092 0.473627 0.734570 -0.129033
C24   C     C_R   0.066302 0.483801 0.252904 -0.116576
C25   C     C_R   0.448240 0.453650 0.123398 0.104389
C26   C     C_R   0.476620 0.405140 0.781678 0.115210
C27   C     C_R   0.424454 0.368565 0.144764 -0.176501
C28   C     C_R   0.461736 0.470481 0.741902 -0.169955
C29   C     C_R   0.425551 0.383790 0.230289 -0.116785
C30   C     C_R   0.469868 0.456098 0.659541 -0.102465
C31   C     C_R   0.452480 0.484264 0.295568 -0.084711
C32   C     C_R   0.492762 0.376509 0.616080 -0.082034
C33   C     C_R   0.526111 0.420581 0.018298 -0.231449
C34   C     C_R   0.387908 0.435744 0.883483 -0.239179
C35   C     C_R   0.541958 0.420146 0.941520 0.056896
C36   C     C_R   0.379412 0.447833 0.965505 0.069169
C37   C     C_R   0.469446 0.420874 0.869913 0.026262
C38   C     C_R   0.447525 0.437056 0.032699 0.017796
C39   C     C_R   0.611746 0.939347 0.924369 -0.104800
C40   C     C_R   0.363328 0.099942 0.247312 -0.116718
C41   C     C_R   0.975121 0.383650 0.322884 0.117226
C42   C     C_R   0.045348 0.460461 0.642001 0.125703
C43   C     C_R   0.152845 0.480797 0.560782 -0.213437
C44   C     C_R   0.877975 0.308276 0.395319 -0.181810
C45   C     C_R   0.771568 0.201580 0.813794 -0.133187
C46   C     C_R   0.278563 0.785567 0.177719 -0.148902
C47   C     C_R   0.143557 0.503017 0.642562 -0.171550
C48   C     C_R   0.880890 0.320322 0.318954 -0.186622
C49   C     C_R   0.959080 0.384169 0.559695 -0.259426
C50   C     C_R   0.067529 0.422228 0.399348 -0.268603
C51   C     C_R   0.967022 0.366442 0.477576 0.177452
C52   C     C_R   0.063645 0.419345 0.478491 0.184513
C53   C     C_R   0.705477 0.097742 0.642385 0.079400
C54   C     C_R   0.437350 0.859673 0.326155 0.090894
C55   C     C_R   0.575441 0.038691 0.404197 0.164374
C56   C     C_R   0.603652 0.908097 0.555225 0.192922
C57   C     C_R   0.487368 0.956903 0.327524 -0.222434
C58   C     C_R   0.668368 0.997624 0.638981 -0.213069
C59   C     C_R   0.483058 0.840180 0.397578 -0.257127
C60   C     C_R   0.691378 0.106562 0.561921 -0.240574
C61   C     C_R   0.569765 0.921162 0.475974 0.083896
C62   C     C_R   0.615528 0.021793 0.479472 0.101230
C63   C     C_R   0.678813 0.084587 0.074334 -0.123822
C64   C     C_R   0.339271 0.055441 0.090875 -0.145194
C65   C     C_R   0.776478 0.088666 0.094946 -0.151484
C66   C     C_R   0.234842 0.030198 0.065010 -0.152869
C67   C     C_R   0.272553 0.545083 0.962325 -0.138805
C68   C     C_R   0.701747 0.405413 0.998546 -0.133267
C69   C     C_R   0.792483 0.018195 0.030082 0.107759
C70   C     C_R   0.194515 0.038132 0.130481 0.101820
C71   C     C_R   0.768758 0.294242 0.734917 -0.141573
C72   C     C_R   0.269735 0.690925 0.254539 -0.119321
C73   C     C_R   0.250881 0.438814 0.029258 -0.114580
C74   C     C_R   0.705743 0.502179 0.923408 -0.124942
C75   C     C_R   0.111140 0.557405 0.813151 -0.126918
C76   C     C_R   0.893969 0.397179 0.177240 -0.125630
C77   C     C_R   0.911447 0.205348 0.002275 -0.143577
C78   C     C_R   0.083237 0.806088 0.049625 -0.135436
C79   C     C_R   0.992706 0.200197 0.057717 0.070689
C80   C     C_R   0.997078 0.823377 0.030096 0.056423
H1    H     H_    0.158405 0.320685 0.134680 0.093692
H2    H     H_    0.830692 0.706792 0.938273 0.094669
H3    H     H_    0.719812 0.887900 0.893700 0.127060
H4    H     H_    0.229558 0.083028 0.273153 0.129604
H5    H     H_    0.453977 0.496192 0.362002 0.134323
H6    H     H_    0.499318 0.365721 0.552482 0.128983
H7    H     H_    0.500976 0.647453 0.326459 0.136982
H8    H     H_    0.524741 0.249066 0.620881 0.133011
H9    H     H_    0.495974 0.621181 0.174588 0.120286
H10   H     H_    0.509315 0.272376 0.765348 0.118114
H11   H     H_    0.403780 0.290434 0.094749 0.125377
H12   H     H_    0.445374 0.533528 0.775199 0.111238
H13   H     H_    0.405899 0.317827 0.246052 0.138761
H14   H     H_    0.458823 0.507004 0.629587 0.132313
H15   H     H_    0.582039 0.420362 0.073611 0.136587
H16   H     H_    0.331212 0.438455 0.830673 0.131951
H17   H     H_    0.142047 0.467205 0.402981 0.122014
H18   H     H_    0.884003 0.346065 0.558604 0.142923
H19   H     H_    0.808685 0.286311 0.259995 0.120557
H20   H     H_    0.212788 0.558162 0.705126 0.113347
H21   H     H_    0.228016 0.519916 0.562212 0.136838
H22   H     H_    0.804778 0.263154 0.392407 0.180378
H23   H     H_    0.863582 0.439310 0.680002 0.106516
H24   H     H_    0.145242 0.505774 0.294370 0.090696
H25   H     H_    0.548016 0.881679 0.858377 0.122023
H26   H     H_    0.411660 0.128096 0.318146 0.164652
H27   H     H_    0.731033 0.182498 0.565235 0.157468
H28   H     H_    0.445375 0.765347 0.396488 0.150578
H29   H     H_    0.684356 0.988572 0.700829 0.147525
H30   H     H_    0.453754 0.972815 0.272668 0.145499
H31   H     H_    0.521178 0.007216 0.973312 0.098747
H32   H     H_    0.484742 0.111260 0.202252 0.144292
H33   H     H_    0.666475 0.138835 0.124294 0.107269
H34   H     H_    0.370539 0.049147 0.040579 0.111045
H35   H     H_    0.839698 0.146341 0.161119 0.124250
H36   H     H_    0.185730 0.005641 0.994699 0.122248
H37   H     H_    0.762941 0.139009 0.833149 0.101613
H38   H     H_    0.309889 0.838324 0.151061 0.104447
H39   H     H_    0.306138 0.593082 0.933091 0.093928
H40   H     H_    0.675099 0.345808 0.020492 0.093865
H41   H     H_    0.748198 0.314761 0.680347 0.108063
H42   H     H_    0.289792 0.655930 0.298201 0.096707
H43   H     H_    0.252532 0.381202 0.053187 0.116080
H44   H     H_    0.682760 0.535038 0.878564 0.109987
H45   H     H_    0.192426 0.597782 0.831894 0.084084
H46   H     H_    0.814370 0.339645 0.151238 0.089465
H47   H     H_    0.830132 0.156139 0.977531 0.117510
H48   H     H_    0.162336 0.860074 0.095863 0.130150
H49   H     H_    0.831446 0.857672 0.017082 0.126469
H50   H     H_    0.153921 0.189585 0.156752 0.126730
N1    N     N_R   0.055660 0.348550 0.045620 -0.040556
N2    N     N_R   0.944340 0.651450 0.954380 -0.042063
N3    N     N_R   0.960830 0.507850 0.823700 -0.039834
N4    N     N_R   0.039170 0.492150 0.176300 -0.040955
N5    N     N_R   0.811290 0.303410 0.871650 -0.042598
N6    N     N_R   0.188710 0.696590 0.128350 -0.042617
N7    N     N_R   0.205200 0.552990 0.997670 -0.039692
N8    N     N_R   0.794800 0.447010 0.002330 -0.039362
N9    N     N_R   0.814800 0.361830 0.823700 -0.039156
N10   N     N_R   0.185200 0.638170 0.176300 -0.041181
N11   N     N_R   0.201680 0.494570 0.045620 -0.043066
N12   N     N_R   0.798320 0.505430 0.954380 -0.041958
N13   N     N_R   0.068420 0.560530 0.871650 -0.039919
N14   N     N_R   0.931580 0.439470 0.128350 -0.039946
N15   N     N_R   0.948070 0.295860 0.997670 -0.040762
N16   N     N_R   0.051930 0.704140 0.002330 -0.045360
Ni1   Ni    Ni4+2 0.119340 0.493420 0.109960 0.213054
Ni2   Ni    Ni4+2 0.880660 0.506580 0.890040 0.225075
Ni3   Ni    Ni4+2 0.872590 0.372590 0.000000 0.212513
Ni4   Ni    Ni4+2 0.127410 0.627410 0.000000 0.215519
I1    I     I_    0.623810 0.191683 0.411465 -0.616047
I2    I     I_    0.548885 0.760198 0.558226 -0.531085

loop_
_geom_bond_atom_site_label_1
_geom_bond_atom_site_label_2
_ccdc_geom_bond_type
C74   H44   S    
C63   C65   A    
C3    C42   S    
C31   H5    S    
C27   C29   A    
C34   C37   A    
C76   H46   S    
C7    C36   S    
C3    C23   A    
N6    N10   A    
C19   C31   A    
C10   H50   S    
C7    C73   A    
C73   N11   A    
C65   C69   A    
N5    N9    A    
N4    Ni1   S    
C66   H36   S    
C5    C53   S    
C35   C37   A    
C34   H16   S    
C19   H7    S    
C4    C24   A    
C78   C80   A    
C43   C52   A    
C13   C70   S    
C1    H1    S    
C58   H29   S    
C12   C79   S    
C33   H15   S    
C16   H4    S    
C46   H38   S    
C60   C62   A    
C17   C39   A    
C59   C61   A    
C18   C40   A    
N7    N11   A    
C49   H18   S    
N16   Ni4   S    
C68   N8    A    
N13   Ni4   S    
C23   H23   S    
C49   C51   A    
C2    N2    A    
C27   H11   S    
C56   I2    S    
C3    C75   A    
C77   H47   S    
C59   H28   S    
C74   N12   A    
C78   H48   S    
C4    C41   S    
C65   H35   S    
C6    C54   S    
C17   H31   S    
N10   Ni1   S    
C29   H13   S    
C53   C60   A    
C10   C12   A    
C54   C59   A    
C77   C79   A    
N8    Ni3   S    
C15   C69   A    
N9    Ni2   S    
N3    N13   A    
C45   N5    A    
C23   N3    A    
N11   Ni1   S    
C51   C52   A    
N2    Ni2   S    
N12   Ni2   S    
C16   C70   A    
N8    N12   A    
C44   H22   S    
C71   N9    A    
C73   H43   S    
N5    Ni3   S    
C5    C45   A    
C47   H20   S    
C24   H24   S    
C8    C35   S    
C64   C66   A    
C6    C72   A    
C9    C14   A    
C43   H21   S    
N14   Ni3   S    
C25   C38   S    
C50   C52   A    
C57   H30   S    
C29   C31   A    
C32   H6    S    
C8    C74   A    
C22   H10   S    
C28   H12   S    
N3    Ni2   S    
N1    Ni1   S    
C9    C11   A    
C15   C39   A    
C60   H27   S    
C75   N13   A    
C16   C40   A    
C76   N14   A    
C44   C51   A    
C12   C14   A    
C8    C68   A    
C55   C57   A    
C1    C79   A    
C14   C69   S    
N7    Ni4   S    
C2    H2    S    
C20   C22   A    
C77   N15   A    
C41   C50   A    
N4    N14   A    
C40   H26   S    
C20   C32   A    
C24   N4    A    
C39   H25   S    
C48   H19   S    
C21   C25   A    
C50   H17   S    
C6    C46   A    
C72   H42   S    
C71   H41   S    
C21   H9    S    
C18   H32   S    
C1    N1    A    
C10   C13   A    
N6    Ni4   S    
C53   C58   A    
C26   C37   S    
C55   I1    S    
C9    H49   S    
C25   C27   A    
C26   C28   A    
C33   C38   A    
N2    N16   A    
C28   C30   A    
C30   H14   S    
C17   C63   A    
C30   C32   A    
C11   C13   A    
C18   C64   A    
C66   C70   A    
C67   H39   S    
C15   H3    S    
C20   H8    S    
C36   C38   A    
C33   C35   A    
C41   C48   A    
C56   C58   A    
N1    N15   A    
C34   C36   A    
C42   C47   A    
C61   C62   A    
C67   N7    A    
N15   Ni3   S    
C45   H37   S    
C4    C76   A    
C2    C80   A    
C11   C80   S    
C78   N16   A    
C42   C49   A    
C7    C67   A    
C63   H33   S    
C46   N6    A    
C72   N10   A    
C55   C62   A    
C64   H34   S    
C5    C71   A    
C22   C26   A    
C56   C61   A    
C75   H45   S    
C43   C47   A    
C68   H40   S    
C44   C48   A    
C19   C21   A    
C54   C57   A    
