data_mof_unit_29345.cif
_audit_creation_date              2013-03-05T16:40:05-0500
_audit_creation_method            fapswitch 2.2
_symmetry_space_group_name_H-M    P1
_symmetry_Int_Tables_number       1
_space_group_crystal_system       triclinic
_cell_length_a                    19.002557
_cell_length_b                    18.417374
_cell_length_c                    10.621039
_cell_angle_alpha                 89.822727
_cell_angle_beta                  90.39848
_cell_angle_gamma                 89.643597
_cell_volume                      3716.94137996

loop_
_atom_site_label
_atom_site_type_symbol
_atom_site_description
_atom_site_fract_x
_atom_site_fract_y
_atom_site_fract_z
_atom_type_partial_charge
O1    O     O_R   0.398180 0.560840 0.499970 -0.646677
O2    O     O_R   0.601820 0.560840 0.500030 -0.634974
O3    O     O_R   0.398180 0.439210 0.499910 -0.540198
O4    O     O_R   0.601820 0.439210 0.500090 -0.588891
C1    C     C_R   0.364902 0.500297 0.505644 0.973476
C2    C     C_R   0.635035 0.499965 0.504870 0.960505
O5    O     O_R   0.499990 0.560820 0.316770 -0.597656
O6    O     O_R   0.500010 0.560820 0.683230 -0.640086
O7    O     O_R   0.499990 0.439200 0.316710 -0.610722
O8    O     O_R   0.500010 0.439200 0.683290 -0.586734
C3    C     C_R   0.498966 0.500173 0.260043 0.982904
C4    C     C_R   0.498773 0.499913 0.739800 1.004950
Zn1   Zn    Zn3+2 0.500000 0.581210 0.500000 0.964176
Zn2   Zn    Zn3+2 0.500000 0.418790 0.500000 1.017535
C5    C     C_R   0.540184 0.545815 0.063999 -0.004378
C6    C     C_R   0.540843 0.544626 0.935967 -0.070476
C7    C     C_R   0.493839 0.501551 0.128373 -0.259864
C8    C     C_R   0.494189 0.500579 0.871205 -0.201891
C9    C     C_R   0.439871 0.464244 0.064985 0.317798
C10   C     C_R   0.440120 0.463574 0.933784 0.306097
C11   C     C_3   0.619554 0.548385 0.930376 0.170745
C12   C     C_3   0.618652 0.549566 0.073567 0.187006
H1    H     H_    0.638177 0.599338 0.885546 0.163824
H2    H     H_    0.642562 0.501138 0.120356 0.156889
C13   C     C_R   0.753519 0.440016 0.522220 0.490657
C14   C     C_R   0.248860 0.438861 0.542820 0.510743
C15   C     C_R   0.824248 0.444800 0.556897 -0.285199
C16   C     C_R   0.178826 0.444618 0.580763 -0.274846
H3    H     H_    0.859138 0.399132 0.540442 0.173827
H4    H     H_    0.147291 0.396013 0.588506 0.184165
C17   C     C_R   0.850995 0.509136 0.607231 0.039522
C18   C     C_R   0.148852 0.512333 0.607386 0.037323
C19   C     C_R   0.808201 0.570578 0.623791 0.560182
C20   C     C_R   0.188767 0.575915 0.600503 0.530424
C21   C     C_R   0.736895 0.565098 0.590468 -0.363228
C22   C     C_R   0.259530 0.569987 0.565936 -0.390151
H5    H     H_    0.701319 0.609682 0.607903 0.180140
H6    H     H_    0.291902 0.618009 0.566993 0.184196
C23   C     C_R   0.710087 0.501490 0.535643 -0.155027
C24   C     C_R   0.289531 0.502474 0.534410 -0.173787
C25   C     C_R   0.962387 0.557196 0.534546 -0.201878
C26   C     C_R   0.034910 0.557979 0.534691 -0.198866
H7    H     H_    0.933872 0.586854 0.461900 0.165464
H8    H     H_    0.061689 0.588001 0.461514 0.164914
C27   C     C_R   0.072807 0.517324 0.623891 0.013210
C28   C     C_R   0.926732 0.515231 0.622804 0.019010
C29   C     C_R   0.037462 0.477683 0.717685 0.329087
C30   C     C_R   0.963661 0.476225 0.716448 0.340978
C31   C     C_R   0.546121 0.724853 0.424236 0.004346
C32   C     C_R   0.454618 0.727286 0.574158 -0.013961
H9    H     H_    0.581835 0.693923 0.366281 0.194700
H10   H     H_    0.418425 0.698309 0.634018 0.132207
C33   C     C_R   0.547505 0.800938 0.420259 -0.250761
C34   C     C_R   0.454618 0.803516 0.573726 -0.245395
H11   H     H_    0.583878 0.827792 0.357712 0.184899
H12   H     H_    0.418775 0.832551 0.634608 0.167767
C35   C     C_R   0.501361 0.841536 0.495711 0.215489
N1    N     N_R   0.500000 0.689440 0.500000 -0.097080
C36   C     C_R   0.438151 0.962777 0.477882 0.331123
C37   C     C_R   0.565504 0.962098 0.503925 0.337938
C38   C     C_R   0.437769 0.039016 0.488098 0.369946
C39   C     C_R   0.565563 0.038333 0.492078 0.384129
C40   C     C_R   0.501518 0.077687 0.491889 -0.176989
C41   C     C_R   0.501731 0.923065 0.492814 -0.286416
C42   C     C_R   0.529897 0.196125 0.599673 0.368600
C43   C     C_R   0.472835 0.198990 0.393450 0.350270
C44   C     C_R   0.529578 0.273223 0.597619 -0.176357
C45   C     C_R   0.471111 0.275361 0.400383 -0.153400
H13   H     H_    0.553405 0.304178 0.672497 0.165632
H14   H     H_    0.446974 0.306798 0.325502 0.192353
N2    N     N_R   0.500000 0.310560 0.500000 -0.115489
C46   C     C_R   0.501198 0.158976 0.495257 0.021232
Cl1   Cl    Cl    0.372887 0.418964 0.148243 -0.639747
Cl2   Cl    Cl    0.374225 0.416144 0.849642 -0.523897
O9    O     O_3   0.375013 0.927523 0.457456 -0.627375
C47   C     C_3   0.368274 0.910155 0.327986 0.109887
H15   H     H_    0.332682 0.862794 0.320439 0.160490
H16   H     H_    0.418979 0.892992 0.284363 0.126647
C48   C     C_3   0.335509 0.973599 0.253658 -0.319040
H17   H     H_    0.286096 0.991475 0.299995 0.244401
H18   H     H_    0.372607 0.019918 0.252160 0.257181
C49   C     C_3   0.319215 0.952071 0.117984 -0.995941
H19   H     H_    0.368274 0.935599 0.069157 0.266794
H20   H     H_    0.295534 0.999030 0.066962 0.271871
H21   H     H_    0.281302 0.906424 0.115754 0.273988
O10   O     O_3   0.629144 0.926092 0.519556 -0.621704
C50   C     C_3   0.639433 0.908768 0.648509 0.099618
H22   H     H_    0.674288 0.860205 0.653369 0.158221
H23   H     H_    0.589840 0.893444 0.697402 0.124610
C51   C     C_3   0.675607 0.971325 0.718130 -0.317918
H24   H     H_    0.723980 0.987183 0.666879 0.246504
H25   H     H_    0.639685 0.019044 0.721813 0.259778
C52   C     C_3   0.695303 0.949812 0.852725 -0.977349
H26   H     H_    0.647486 0.934616 0.906062 0.268673
H27   H     H_    0.720707 0.996414 0.900685 0.272992
H28   H     H_    0.732775 0.903275 0.852585 0.272634
O11   O     O_3   0.373992 0.075511 0.487190 -0.602474
C53   C     C_3   0.354553 0.093021 0.611966 0.115283
H29   H     H_    0.359428 0.152699 0.624252 0.153048
H30   H     H_    0.387582 0.066242 0.686661 0.114462
C54   C     C_3   0.278039 0.071023 0.631923 -0.331461
H31   H     H_    0.244087 0.097193 0.559027 0.227860
H32   H     H_    0.273444 0.011166 0.621834 0.243763
C55   C     C_3   0.252277 0.093174 0.762077 -0.954661
H33   H     H_    0.284737 0.066464 0.836493 0.262910
H34   H     H_    0.196733 0.076188 0.773670 0.275859
H35   H     H_    0.255155 0.153045 0.773138 0.279837
O12   O     O_3   0.629433 0.073840 0.486394 -0.604616
C56   C     C_3   0.640061 0.101959 0.363584 0.094101
H36   H     H_    0.644060 0.161994 0.370371 0.150560
H37   H     H_    0.596804 0.089983 0.294887 0.110942
C57   C     C_3   0.708794 0.071350 0.311379 -0.315715
H38   H     H_    0.752952 0.084973 0.375998 0.231817
H39   H     H_    0.705055 0.011246 0.305380 0.244287
C58   C     C_3   0.724127 0.102016 0.180809 -0.978125
H40   H     H_    0.681329 0.087600 0.113772 0.262445
H41   H     H_    0.774331 0.078815 0.145698 0.277310
H42   H     H_    0.729078 0.162032 0.185023 0.273930
O13   O     O_3   0.561895 0.154721 0.694633 -0.636324
C59   C     C_3   0.558349 0.186160 0.815868 0.046036
H43   H     H_    0.545191 0.142155 0.883362 0.155002
H44   H     H_    0.515695 0.227407 0.825852 0.137925
C60   C     C_3   0.630382 0.216633 0.853188 -0.344798
H45   H     H_    0.669977 0.171930 0.853543 0.232677
H46   H     H_    0.647344 0.257918 0.783734 0.223193
C61   C     C_3   0.628712 0.251312 0.983278 -0.898042
H47   H     H_    0.588285 0.295118 0.986453 0.277899
H48   H     H_    0.680893 0.275157 0.005149 0.294361
H49   H     H_    0.616979 0.209603 0.055559 0.233675
O14   O     O_3   0.443678 0.162501 0.291695 -0.596446
C62   C     C_3   0.474564 0.184587 0.176684 0.038292
H50   H     H_    0.498926 0.136248 0.131785 0.145258
H51   H     H_    0.517747 0.224918 0.187227 0.090762
C63   C     C_3   0.418224 0.216467 0.088597 -0.284512
H52   H     H_    0.387628 0.258685 0.139010 0.260225
H53   H     H_    0.444073 0.242975 0.007278 0.190192
C64   C     C_3   0.368190 0.158348 0.039682 -0.834260
H54   H     H_    0.397533 0.116956 0.984755 0.232972
H55   H     H_    0.327959 0.183974 0.977353 0.262536
H56   H     H_    0.340985 0.131443 0.119129 0.287454
Cl3   Cl    Cl    0.659736 0.467705 0.869471 -0.648123
Cl4   Cl    Cl    0.646849 0.634085 0.137400 -0.645641
O15   O     O_3   0.728383 0.377546 0.465860 -0.631259
C65   C     C_3   0.725162 0.320176 0.554895 0.108191
H57   H     H_    0.669842 0.301700 0.558648 0.164654
H58   H     H_    0.740410 0.335561 0.653139 0.163758
C66   C     C_3   0.770919 0.256547 0.511510 -0.359624
H59   H     H_    0.753514 0.238985 0.416296 0.234585
H60   H     H_    0.826648 0.273944 0.505656 0.232320
C67   C     C_3   0.766002 0.192475 0.602483 -0.932784
H61   H     H_    0.784048 0.208646 0.698008 0.272830
H62   H     H_    0.799948 0.147284 0.569233 0.266816
H63   H     H_    0.710923 0.173027 0.607774 0.305507
O16   O     O_3   0.279658 0.370898 0.531265 -0.593356
C68   C     C_3   0.253515 0.335658 0.422756 0.071047
H64   H     H_    0.278297 0.359470 0.337744 0.204352
H65   H     H_    0.195244 0.340260 0.412834 0.129491
C69   C     C_3   0.272487 0.255066 0.431511 -0.295989
H66   H     H_    0.330327 0.248769 0.440809 0.247988
H67   H     H_    0.247931 0.231464 0.516903 0.224700
C70   C     C_3   0.247261 0.213477 0.315920 -0.892626
H68   H     H_    0.188923 0.215346 0.309336 0.260721
H69   H     H_    0.264463 0.155872 0.323446 0.280719
H70   H     H_    0.269749 0.237311 0.229049 0.285069
O17   O     O_3   0.838786 0.632293 0.677199 -0.620374
C71   C     C_3   0.807331 0.699238 0.640779 0.095088
H71   H     H_    0.835466 0.742593 0.692928 0.178385
H72   H     H_    0.752032 0.704081 0.672590 0.129468
C72   C     C_3   0.815750 0.715286 0.499389 -0.418455
H73   H     H_    0.872675 0.718805 0.476993 0.231022
H74   H     H_    0.792635 0.671254 0.441537 0.239540
C73   C     C_3   0.779460 0.786525 0.462887 -0.869933
H75   H     H_    0.721862 0.782469 0.478425 0.268110
H76   H     H_    0.788495 0.798053 0.361626 0.277911
H77   H     H_    0.800832 0.832140 0.519341 0.256588
O18   O     O_3   0.158222 0.640794 0.640805 -0.622527
C74   C     C_3   0.178102 0.701888 0.568234 0.071707
H78   H     H_    0.129285 0.732145 0.542577 0.165401
H79   H     H_    0.203560 0.688177 0.476967 0.122577
C75   C     C_3   0.224452 0.751940 0.647996 -0.350654
H80   H     H_    0.193104 0.773633 0.727617 0.238046
H81   H     H_    0.269724 0.721027 0.688155 0.221032
C76   C     C_3   0.252383 0.815120 0.570368 -0.921003
H82   H     H_    0.287257 0.794256 0.495101 0.268685
H83   H     H_    0.283253 0.851876 0.631969 0.278757
H84   H     H_    0.208262 0.846545 0.527316 0.264173
Cl5   Cl    Cl    0.085098 0.430592 0.836130 -0.495772
Cl6   Cl    Cl    0.917610 0.425469 0.830334 -0.506887

loop_
_geom_bond_atom_site_label_1
_geom_bond_atom_site_label_2
_geom_bond_distance
_ccdc_geom_bond_type
C43   C45   1.408909 A    
C50   H22   1.110488 S    
C6    C11   1.499316 S    
C15   H3    1.083111 S    
C72   H74   1.109915 S    
C72   H73   1.111425 S    
C66   H59   1.111471 S    
C47   C48   1.534465 S    
O7    Zn2   1.981546 S    
C62   C63   1.530054 S    
C63   C64   1.526059 S    
C57   H39   1.111667 S    
O11   C53   1.415874 S    
C60   H45   1.111855 S    
Zn2   N2    1.993311 S    
C13   O15   1.384674 S    
C59   H43   1.111152 S    
O5    C3    1.270922 A    
C64   H55   1.109944 S    
C36   C41   1.416132 A    
O17   C71   1.418352 S    
C35   C41   1.501817 S    
O1    C1    1.286748 A    
C66   H60   1.110412 S    
C47   H16   1.116378 S    
C30   Cl6   1.766515 S    
C56   H37   1.118740 S    
O15   C65   1.417680 S    
C60   H46   1.108644 S    
C39   O12   1.383831 S    
C5    C6    1.360220 A    
C53   H29   1.111590 S    
O12   C56   1.418149 S    
C37   C39   1.409310 A    
C25   C26   1.378266 A    
C38   C40   1.409470 A    
O2    Zn1   1.968580 S    
C57   H38   1.110741 S    
C69   C70   1.525101 S    
C7    C9    1.406813 A    
C69   H67   1.111401 S    
C5    C12   1.495902 S    
C43   C46   1.408817 A    
C9    C10   1.393621 A    
C73   H76   1.110334 S    
C42   C44   1.420017 A    
C17   C28   1.452602 S    
C32   H10   1.081932 S    
C25   C28   1.394997 A    
C17   C19   1.401602 A    
C44   N2    1.358836 A    
C59   C60   1.532682 S    
C58   H42   1.110921 S    
C27   C29   1.409756 A    
C52   H27   1.110681 S    
C11   C12   1.521273 S    
C68   C69   1.527666 S    
C71   H72   1.109181 S    
C25   H7    1.084063 S    
O2    C2    1.283904 A    
C26   H8    1.084015 S    
C65   C66   1.529018 S    
C55   H34   1.110299 S    
C55   H33   1.110938 S    
C70   H69   1.110682 S    
C75   H81   1.110624 S    
C70   H68   1.110606 S    
C34   H12   1.082464 S    
C33   H11   1.082713 S    
C64   H56   1.109721 S    
C28   C30   1.406177 A    
C36   C38   1.408616 A    
C15   C17   1.398472 A    
C32   N1    1.362076 A    
C54   H31   1.111247 S    
C16   C18   1.398316 A    
C66   C67   1.526567 S    
C47   H15   1.109827 S    
C65   H58   1.118779 S    
O8    Zn2   1.983831 S    
C56   C57   1.527744 S    
C48   H18   1.110192 S    
C33   C35   1.405514 A    
O10   C50   1.417269 S    
C60   C61   1.524408 S    
C63   H53   1.109895 S    
Zn1   N1    1.993311 S    
C61   H49   1.109052 S    
C31   H9    1.080343 S    
C67   H63   1.110076 S    
C31   N1    1.361872 A    
C44   H13   1.078659 S    
C26   C27   1.398653 A    
C18   C20   1.401159 A    
C21   C23   1.406594 A    
O9    C47   1.417894 S    
C73   H77   1.110957 S    
C76   H82   1.109953 S    
C39   C40   1.412592 A    
C67   H62   1.109886 S    
C76   H83   1.110300 S    
C51   H25   1.110402 S    
C29   C30   1.402801 A    
C22   C24   1.406994 A    
O6    C4    1.271301 A    
C74   C75   1.532229 S    
C12   Cl4   1.783718 S    
C62   H51   1.115552 S    
C42   O13   1.396194 S    
C10   Cl2   1.769901 S    
C52   H26   1.110959 S    
C32   C34   1.403953 A    
C18   C27   1.459214 S    
C68   H65   1.114255 S    
O7    C3    1.272420 A    
O16   C68   1.413120 S    
O3    Zn2   1.968749 S    
O8    C4    1.270875 A    
C19   O17   1.399684 S    
C9    Cl1   1.766886 S    
O4    C2    1.289065 A    
O18   C74   1.416628 S    
C49   H19   1.110959 S    
C52   H28   1.110893 S    
C49   H20   1.110400 S    
C11   H1    1.111884 S    
C61   H47   1.111316 S    
C69   H66   1.108186 S    
C72   C73   1.526163 S    
C12   H2    1.112632 S    
C14   O16   1.384615 S    
O1    Zn1   1.973166 S    
C29   Cl5   1.766873 S    
C62   H50   1.111251 S    
C49   H21   1.110769 S    
C36   O9    1.383858 S    
C70   H70   1.109917 S    
C73   H75   1.110947 S    
C59   H44   1.113252 S    
C51   C52   1.525730 S    
C37   O10   1.384313 S    
C54   H32   1.111843 S    
C5    C7    1.386182 A    
C58   H41   1.110244 S    
C3    C7    1.401324 S    
C61   H48   1.110344 S    
C21   H5    1.077651 S    
C67   H61   1.110843 S    
C6    C8    1.386040 A    
C38   O11   1.382135 S    
C65   H57   1.107876 S    
O3    C1    1.288972 A    
C48   C49   1.525909 S    
O13   C59   1.415333 S    
C75   C76   1.524236 S    
C63   H52   1.109327 S    
C13   C15   1.394504 A    
C42   C46   1.412927 A    
C64   H54   1.111034 S    
C14   C16   1.396687 A    
C53   C54   1.527796 S    
C37   C41   1.417275 A    
C76   H84   1.110858 S    
C22   H6    1.080518 S    
O14   C62   1.418434 S    
C11   Cl3   1.791125 S    
C56   H36   1.111294 S    
C13   C23   1.405116 A    
C14   C24   1.410478 A    
C51   H24   1.111706 S    
C71   H71   1.110918 S    
C45   N2    1.357075 A    
C31   C33   1.402222 A    
C16   H4    1.083553 S    
C19   C21   1.402402 A    
C20   C22   1.400049 A    
C74   H79   1.115337 S    
C8    C10   1.406169 A    
C57   C58   1.526396 S    
O4    Zn2   1.973340 S    
C53   H30   1.119527 S    
C20   O18   1.394962 S    
C48   H17   1.111696 S    
O6    Zn1   1.980851 S    
O5    Zn1   1.983135 S    
C40   C46   1.497647 S    
C71   C72   1.539238 S    
C45   H14   1.080219 S    
C74   H78   1.111049 S    
C50   C51   1.534526 S    
C4    C8    1.399070 S    
C68   H64   1.111478 S    
C50   H23   1.116525 S    
C2    C23   1.461386 S    
C54   C55   1.525601 S    
C1    C24   1.466883 S    
C55   H35   1.110913 S    
C75   H80   1.111635 S    
C58   H40   1.111151 S    
C43   O14   1.388311 S    
C34   C35   1.407212 A    
