data_mof_unit_43206.cif
_audit_creation_date              2012-12-10T19:47:23-0500
_audit_creation_method            fapswitch 2.2
_symmetry_space_group_name_H-M    P1
_symmetry_Int_Tables_number       1
_space_group_crystal_system       triclinic
_cell_length_a                    10.864349
_cell_length_b                    10.875397
_cell_length_c                    12.704804
_cell_angle_alpha                 92.495804
_cell_angle_beta                  92.569459
_cell_angle_gamma                 90.31369
_cell_volume                      1498.15157275

loop_
_atom_site_label
_atom_site_type_symbol
_atom_type_description
_atom_site_fract_x
_atom_site_fract_y
_atom_site_fract_z
_atom_type_partial_charge
C1    C     C_R   0.261882 0.495750 0.501144 0.789067
C2    C     C_R   0.738118 0.504250 0.498856 0.789067
C3    C     C_R   0.495056 0.871669 0.497162 -0.090247
C4    C     C_R   0.504944 0.128330 0.502837 -0.090247
C5    C     C_R   0.455835 0.934947 0.406914 0.015466
C6    C     C_R   0.544165 0.065053 0.593086 0.015466
C7    C     C_R   0.228801 0.279003 0.796369 -0.110211
C8    C     C_R   0.771199 0.720997 0.203631 -0.110211
C9    C     C_R   0.183013 0.320506 0.699764 -0.062050
C10   C     C_R   0.816987 0.679494 0.300236 -0.062051
C11   C     C_R   0.125552 0.435637 0.695142 0.161727
C12   C     C_R   0.874448 0.564363 0.304858 0.161728
C13   C     C_R   0.115658 0.508930 0.788213 -0.136431
C14   C     C_R   0.884342 0.491070 0.211786 -0.136431
C15   C     C_R   0.162253 0.467288 0.884549 -0.140692
C16   C     C_R   0.837746 0.532712 0.115450 -0.140692
C17   C     C_R   0.217699 0.351902 0.888705 -0.110297
C18   C     C_R   0.782301 0.648099 0.111295 -0.110297
C19   C     C_R   0.937687 0.482644 0.591404 -0.211401
C20   C     C_R   0.062313 0.517356 0.408596 -0.211401
C21   C     C_R   0.871799 0.506555 0.497428 -0.109887
C22   C     C_R   0.128201 0.493445 0.502572 -0.109887
C23   C     C_R   0.503223 0.261899 0.501165 0.788658
C24   C     C_R   0.496777 0.738101 0.498835 0.788658
C25   C     C_R   0.934984 0.526201 0.404865 -0.008227
C26   C     C_R   0.065016 0.473799 0.595135 -0.008227
C27   C     C_2   0.486587 0.454083 0.031906 -0.265708
C28   C     C_2   0.513413 0.545917 0.968094 -0.265708
C29   C     C_1   0.517582 0.529096 0.852608 0.216945
C30   C     C_1   0.482417 0.470904 0.147392 0.216945
C31   C     C_R   0.757332 0.240490 0.792533 0.455460
C32   C     C_R   0.242668 0.759509 0.207467 0.455460
C33   C     C_R   0.706448 0.190824 0.696424 -0.100218
C34   C     C_R   0.293552 0.809176 0.303576 -0.100218
C35   C     C_R   0.593892 0.126117 0.692818 0.055910
C36   C     C_R   0.406108 0.873883 0.307182 0.055910
C37   C     C_R   0.533303 0.110365 0.786628 -0.161635
C38   C     C_R   0.466697 0.889636 0.213372 -0.161635
C39   C     C_R   0.582702 0.160864 0.882283 -0.204063
C40   C     C_R   0.417298 0.839136 0.117717 -0.204063
C41   C     C_R   0.693904 0.226157 0.885571 -0.213192
C42   C     C_R   0.306096 0.773843 0.114429 -0.213192
C43   C     C_R   0.537944 0.937488 0.588844 -0.238170
C44   C     C_R   0.462056 0.062511 0.411156 -0.238170
Cu1   Cu    Cu3+1 0.492140 0.492110 0.395880 0.979544
Cu2   Cu    Cu3+1 0.507860 0.507890 0.604120 0.979544
H1    H     H_    0.731275 0.263941 0.960641 0.121885
H2    H     H_    0.268725 0.736059 0.039359 0.121885
H3    H     H_    0.070307 0.597289 0.786243 0.119059
H4    H     H_    0.929693 0.402711 0.213756 0.119059
H5    H     H_    0.153666 0.523575 0.956187 0.120494
H6    H     H_    0.846334 0.476425 0.043813 0.120494
H7    H     H_    0.889465 0.467076 0.662373 0.210522
H8    H     H_    0.110535 0.532923 0.337627 0.210523
H9    H     H_    0.531383 0.637489 0.002534 0.156092
H10   H     H_    0.468617 0.362511 0.997465 0.156092
H11   H     H_    0.755610 0.200798 0.624897 0.123338
H12   H     H_    0.244390 0.799201 0.375102 0.123338
H13   H     H_    0.448390 0.057661 0.785664 0.128319
H14   H     H_    0.551610 0.942339 0.214336 0.128319
H15   H     H_    0.535411 0.147971 0.954223 0.138661
H16   H     H_    0.464589 0.852029 0.045776 0.138661
H17   H     H_    0.570043 0.889213 0.657691 0.164861
H18   H     H_    0.429957 0.110787 0.342309 0.164861
H19   H     H_    0.250996 0.318458 0.963625 0.118891
H20   H     H_    0.749003 0.681542 0.036375 0.118891
H21   H     H_    0.270778 0.189357 0.799949 0.116868
H22   H     H_    0.729222 0.810643 0.200051 0.116868
H23   H     H_    0.189694 0.261967 0.629090 0.099945
H24   H     H_    0.810306 0.738033 0.370910 0.099945
N1    N     N_1   0.480320 0.480250 0.239400 -0.156643
N2    N     N_1   0.519680 0.519750 0.760600 -0.156643
O1    O     O_R   0.313000 0.493330 0.412070 -0.581001
O2    O     O_R   0.687000 0.506670 0.587930 -0.581001
O3    O     O_R   0.326280 0.506660 0.587930 -0.573076
O4    O     O_R   0.673720 0.493340 0.412070 -0.573076
O5    O     O_R   0.493370 0.312980 0.412070 -0.586270
O6    O     O_R   0.506630 0.687020 0.587930 -0.586269
O7    O     O_R   0.506650 0.326310 0.587930 -0.570429
O8    O     O_R   0.493350 0.673690 0.412070 -0.570430
O9    O     O_3   0.869857 0.299714 0.793489 -0.766026
H25   H     H_    0.892864 0.329129 0.866757 0.314163
O10   O     O_3   0.130143 0.700286 0.206510 -0.766026
H26   H     H_    0.107136 0.670871 0.133242 0.314162

loop_
_geom_bond_atom_site_label_1
_geom_bond_atom_site_label_2
_ccdc_geom_bond_type
Cu1   N1    S    
C30   N1    T    
C43   H17   S    
C39   C41   A    
Cu1   Cu2   S    
C44   H18   S    
C3    C43   A    
Cu1   O4    S    
C28   C29   S    
C19   C21   A    
C9    H23   S    
Cu2   O7    S    
C20   C25   A    
C5    C36   S    
C40   H16   S    
C6    C35   S    
Cu1   O1    S    
C19   C26   A    
C24   O8    A    
C7    C17   A    
C31   C33   A    
C15   H5    S    
Cu2   N2    S    
C2    O2    A    
C29   N2    T    
C19   H7    S    
C40   C42   A    
C1    C22   S    
C27   C30   S    
C3    C24   S    
Cu2   O3    S    
C28   H9    S    
O9    H25   S    
C39   H15   S    
C1    O3    A    
C20   H8    S    
Cu2   O6    S    
C4    C23   S    
C27   H10   S    
C4    C44   A    
C11   C26   S    
C8    C18   A    
C32   C34   A    
O10   H26   S    
C2    C21   S    
C41   H1    S    
C16   C18   A    
C42   H2    S    
C23   O5    A    
C13   H3    S    
C9    C11   A    
C37   H13   S    
C10   C12   A    
C38   H14   S    
C10   H24   S    
C4    C6    A    
C5    C44   A    
C12   C14   A    
C8    H22   S    
C6    C43   A    
C13   C15   A    
C14   C16   A    
Cu2   O2    S    
C2    O4    A    
C24   O6    A    
C15   C17   A    
C32   O10   S    
C21   C25   A    
C33   H11   S    
C31   C41   A    
C35   C37   A    
C16   H6    S    
C20   C22   A    
C3    C5    A    
C18   H20   S    
C17   H19   S    
C31   O9    S    
C12   C25   S    
C1    O1    A    
C36   C38   A    
C37   C39   A    
C38   C40   A    
C11   C13   A    
C14   H4    S    
C33   C35   A    
Cu1   O8    S    
C34   C36   A    
C7    H21   S    
C7    C9    A    
C8    C10   A    
C22   C26   A    
C27   C28   D    
C34   H12   S    
C32   C42   A    
Cu1   O5    S    
C23   O7    A    
