data_mof_unit_28123.cif
_audit_creation_date              2012-10-26T20:13:56-0400
_audit_creation_method            fapswitch 2.2
_symmetry_space_group_name_H-M    P1
_symmetry_Int_Tables_number       1
_space_group_crystal_system       triclinic
_cell_length_a                    8.724258
_cell_length_b                    10.808206
_cell_length_c                    9.587646
_cell_angle_alpha                 90.089207
_cell_angle_beta                  98.326027
_cell_angle_gamma                 90.850497
_cell_volume                      894.41999483

loop_
_atom_site_label
_atom_site_type_symbol
_atom_type_description
_atom_site_fract_x
_atom_site_fract_y
_atom_site_fract_z
_atom_type_partial_charge
C1    C     C_R   0.501960 0.262571 0.500330 0.542193
C2    C     C_R   0.616772 0.557401 0.941816 0.202176
C3    C     C_3   0.661790 0.690408 0.938246 0.149909
C4    C     C_R   0.203861 0.499508 0.463642 0.542857
C5    C     C_3   0.659220 0.692739 0.097488 -0.135307
C6    C     C_R   0.501916 0.737620 0.500432 0.537783
C7    C     C_R   0.796159 0.500354 0.536423 0.543552
C8    C     C_2   0.037606 0.497892 0.444099 -0.172597
C9    C     C_2   0.962463 0.501482 0.556198 -0.162582
C10   C     C_R   0.483801 0.063936 0.621585 0.017602
C11   C     C_R   0.514816 0.129631 0.503447 0.005816
C12   C     C_R   0.566373 0.936541 0.392357 -0.171522
C13   C     C_R   0.565942 0.065495 0.391848 -0.169516
C14   C     C_3   0.843497 0.827501 0.865044 0.015591
C15   C     C_3   0.900416 0.831997 0.721652 -0.245550
C16   C     C_3   0.928818 0.964949 0.677261 -0.493089
C17   C     C_3   0.814953 0.719878 0.189356 -0.372732
C18   C     C_3   0.258005 0.363721 0.105752 -0.341238
C19   C     C_R   0.514684 0.871171 0.503687 0.004049
C20   C     C_R   0.483684 0.936541 0.621766 0.009104
C21   C     C_3   0.345176 0.928952 0.696641 -0.272800
C22   C     C_3   0.345643 0.069356 0.696700 -0.273319
C23   C     C_R   0.617050 0.557726 0.089094 0.129789
C24   C     C_R   0.391648 0.432999 0.057271 0.091317
C25   C     C_R   0.394173 0.433119 0.909402 -0.006450
Cu1   Cu    Cu3+1 0.499990 0.499980 0.640670 0.952351
Cu2   Cu    Cu3+1 0.500010 0.500020 0.359330 0.918168
H1    H     H_    0.976854 0.492927 0.336973 0.121548
H2    H     H_    0.242989 0.109291 0.630688 0.130579
H3    H     H_    0.374396 0.110362 0.803889 0.132576
H4    H     H_    0.937615 0.863101 0.946301 0.135993
H5    H     H_    0.743800 0.891237 0.863826 0.112041
H6    H     H_    0.009743 0.779562 0.726938 0.161546
H7    H     H_    0.812956 0.787316 0.640936 0.179815
H8    H     H_    0.820490 0.018614 0.669531 0.164903
H9    H     H_    0.968673 0.965122 0.572417 0.141836
H10   H     H_    0.018766 0.010495 0.755125 0.144764
H11   H     H_    0.803249 0.707444 0.302088 0.150879
H12   H     H_    0.306809 0.382329 0.839301 0.124642
H13   H     H_    0.906855 0.657967 0.162185 0.167134
H14   H     H_    0.850214 0.817527 0.174946 0.111940
H15   H     H_    0.293912 0.307129 0.199692 0.178694
H16   H     H_    0.166412 0.429492 0.123556 0.147968
H17   H     H_    0.203459 0.297493 0.023847 0.059779
H18   H     H_    0.568776 0.744772 0.875858 0.104331
H19   H     H_    0.563180 0.749559 0.125580 0.109042
H20   H     H_    0.023215 0.505692 0.663474 0.137672
H21   H     H_    0.600166 0.114335 0.302449 0.133072
H22   H     H_    0.601994 0.888853 0.303925 0.122900
H23   H     H_    0.242932 0.886547 0.630096 0.137471
H24   H     H_    0.372175 0.889488 0.804099 0.121034
N1    N     N_R   0.500980 0.500930 0.148050 -0.233478
N2    N     N_R   0.500990 0.500890 0.852140 -0.273175
O1    O     O_R   0.500000 0.319640 0.618810 -0.499486
O2    O     O_R   0.500020 0.319680 0.381230 -0.518612
O3    O     O_R   0.274830 0.499980 0.591380 -0.507795
O4    O     O_R   0.274850 0.500020 0.353800 -0.508837
O5    O     O_R   0.499980 0.680320 0.618770 -0.500027
O6    O     O_R   0.500000 0.680360 0.381190 -0.508179
O7    O     O_R   0.725150 0.499980 0.646200 -0.464788
O8    O     O_R   0.725170 0.500020 0.408620 -0.504942
O9    O     O_3   0.810805 0.702919 0.897507 -0.558393

loop_
_geom_bond_atom_site_label_1
_geom_bond_atom_site_label_2
_ccdc_geom_bond_type
C4    O4    A    
C24   N1    A    
C13   H21   S    
C1    O1    A    
C9    H20   S    
C22   H2    S    
C18   H17   S    
C11   C13   A    
C5    H19   S    
C14   H4    S    
C15   H7    S    
C19   C20   A    
C5    C23   S    
C17   H13   S    
C16   H10   S    
C4    C8    S    
C10   C22   S    
C20   C21   S    
C2    C3    S    
C1    O2    A    
Cu2   O6    S    
C18   H16   S    
C4    O3    A    
C6    C19   S    
Cu1   O5    S    
C23   N1    A    
C16   H9    S    
Cu1   O3    S    
C18   C24   S    
Cu1   O1    S    
C12   C19   A    
C21   H23   S    
Cu2   O8    S    
C15   H6    S    
C12   H22   S    
C17   H14   S    
C17   H11   S    
C18   H15   S    
C16   H8    S    
Cu1   Cu2   S    
Cu2   N1    S    
C8    H1    S    
Cu2   O2    S    
C5    C17   S    
C10   C11   A    
C15   C16   S    
C14   O9    S    
Cu1   N2    S    
C7    O7    A    
C21   H24   S    
C24   C25   A    
Cu2   O4    S    
C3    O9    S    
C14   H5    S    
C2    C23   A    
C7    C9    S    
C6    O5    A    
C14   C15   S    
C7    O8    A    
C22   H3    S    
C12   C13   A    
C21   C22   S    
Cu1   O7    S    
C6    O6    A    
C3    H18   S    
C25   H12   S    
C25   N2    A    
C10   C20   A    
C8    C9    D    
C3    C5    S    
C2    N2    A    
C1    C11   S    
