data_mof_unit_31509.cif
_audit_creation_date              2012-12-10T17:59:15-0500
_audit_creation_method            fapswitch 2.2
_symmetry_space_group_name_H-M    P1
_symmetry_Int_Tables_number       1
_space_group_crystal_system       triclinic
_cell_length_a                    10.804681
_cell_length_b                    9.635261
_cell_length_c                    10.758889
_cell_angle_alpha                 91.541723
_cell_angle_beta                  91.871111
_cell_angle_gamma                 88.530764
_cell_volume                      1118.71785238

loop_
_atom_site_label
_atom_site_type_symbol
_atom_type_description
_atom_site_fract_x
_atom_site_fract_y
_atom_site_fract_z
_atom_type_partial_charge
C1    C     C_R   0.262384 0.500969 0.503009 0.769618
C2    C     C_3   0.514201 0.350845 0.925199 -0.354407
C3    C     C_R   0.065723 0.377852 0.476340 -0.190870
C4    C     C_R   0.061584 0.618065 0.549484 -0.200610
C5    C     C_R   0.937834 0.376421 0.475918 -0.200797
C6    C     C_R   0.933529 0.617194 0.548527 -0.176011
C7    C     C_R   0.871323 0.497167 0.509115 -0.015510
C8    C     C_R   0.128217 0.500131 0.508767 -0.006966
C9    C     C_R   0.425264 0.071333 0.419205 0.250867
C10   C     C_R   0.407495 0.929840 0.441082 0.228825
C11   C     C_R   0.586876 0.925503 0.568486 -0.092561
C12   C     C_R   0.581609 0.073999 0.574803 -0.099931
C13   C     C_R   0.501716 0.498876 0.260006 0.764741
C14   C     C_R   0.737453 0.498804 0.502823 0.769108
C15   C     C_R   0.501878 0.501183 0.739638 0.755347
C16   C     C_3   0.616474 0.580660 0.078605 -0.378566
C17   C     C_3   0.382088 0.569050 0.070304 -0.416745
C18   C     C_3   0.619754 0.581905 0.933596 -0.050485
C19   C     C_3   0.385692 0.580703 0.927382 0.007160
C20   C     C_3   0.512560 0.349960 0.066617 -0.415521
C21   C     C_3   0.503464 0.499280 0.121674 0.103005
C22   C     C_3   0.504484 0.502452 0.877541 0.097392
Cu1   Cu    Cu3+1 0.500020 0.640660 0.500000 0.921651
Cu2   Cu    Cu3+1 0.500020 0.359340 0.500000 0.924063
H1    H     H_    0.656845 0.870218 0.623302 0.133198
H2    H     H_    0.646747 0.128977 0.635306 0.134459
H3    H     H_    0.611050 0.689729 0.115195 0.158530
H4    H     H_    0.370915 0.675359 0.111721 0.144065
H5    H     H_    0.610032 0.691962 0.904647 0.150052
H6    H     H_    0.398786 0.693002 0.910411 0.104608
H7    H     H_    0.600749 0.298043 0.893680 0.152362
H8    H     H_    0.438935 0.285479 0.886277 0.185894
H9    H     H_    0.115229 0.283379 0.450402 0.148824
H10   H     H_    0.107434 0.709996 0.583691 0.128940
N1    N     N_R   0.500030 0.852070 0.500030 -0.182664
N2    N     N_R   0.500030 0.147930 0.500030 -0.182455
O1    O     O_R   0.319660 0.618740 0.499990 -0.582783
O2    O     O_R   0.319660 0.381260 0.499990 -0.576174
O3    O     O_R   0.499990 0.618790 0.317690 -0.582346
O4    O     O_R   0.499990 0.381210 0.317690 -0.584290
O5    O     O_R   0.680370 0.618830 0.500010 -0.582423
O6    O     O_R   0.680370 0.381170 0.500010 -0.587936
O7    O     O_R   0.500030 0.618780 0.682310 -0.598536
O8    O     O_R   0.500030 0.381220 0.682310 -0.586628
H11   H     H_    0.702849 0.533084 0.119728 0.166121
H12   H     H_    0.301244 0.509280 0.098212 0.170585
C23   C     C_3   0.746292 0.525616 0.885723 -0.379754
C24   C     C_3   0.849394 0.629833 0.909027 -0.874810
H13   H     H_    0.826685 0.727547 0.859766 0.241450
H14   H     H_    0.862886 0.653506 0.010031 0.254072
H15   H     H_    0.937514 0.585488 0.873084 0.248388
H16   H     H_    0.774125 0.427118 0.931471 0.207484
H17   H     H_    0.739923 0.503427 0.784008 0.192905
C25   C     C_3   0.258390 0.552930 0.860667 -0.392210
C26   C     C_3   0.216970 0.402427 0.854257 -0.826006
H18   H     H_    0.265996 0.343248 0.780124 0.254229
H19   H     H_    0.231632 0.351561 0.944978 0.243462
H20   H     H_    0.116577 0.400404 0.828846 0.237862
H21   H     H_    0.186340 0.616331 0.909237 0.197252
H22   H     H_    0.258924 0.591887 0.764515 0.194043
H23   H     H_    0.597200 0.294933 0.103722 0.163058
H24   H     H_    0.430407 0.292466 0.091538 0.187405
H25   H     H_    0.891253 0.281952 0.447489 0.146879
H26   H     H_    0.883360 0.710091 0.579081 0.141738
C27   C     C_3   0.401289 0.109486 0.284880 -0.343663
C28   C     C_3   0.279175 0.188909 0.258124 -0.836651
H27   H     H_    0.200964 0.140119 0.302311 0.232972
H28   H     H_    0.283904 0.299139 0.287774 0.272496
H29   H     H_    0.257768 0.185695 0.156494 0.208764
H30   H     H_    0.483362 0.158534 0.249984 0.203333
H31   H     H_    0.398558 0.013369 0.225256 0.160553
C29   C     C_3   0.272742 0.892122 0.442124 -0.333977
C30   C     C_3   0.225943 0.816022 0.323802 -0.818437
H32   H     H_    0.221201 0.886385 0.243914 0.227937
H33   H     H_    0.286145 0.725819 0.299981 0.273103
H34   H     H_    0.131093 0.778999 0.337627 0.236405
H35   H     H_    0.255631 0.839529 0.528894 0.201294
H36   H     H_    0.213025 0.986826 0.453973 0.154226

loop_
_geom_bond_atom_site_label_1
_geom_bond_atom_site_label_2
_ccdc_geom_bond_type
C28   H28   S    
C26   H18   S    
C16   C21   S    
C1    C8    S    
Cu2   O6    S    
C30   H32   S    
C4    C8    A    
C18   C23   S    
C25   H22   S    
Cu2   N2    S    
C15   C22   S    
C15   O8    A    
C28   H29   S    
C11   H1    S    
C27   H30   S    
Cu1   O7    S    
C5    H25   S    
C2    H8    S    
C6    H26   S    
C20   H23   S    
C13   O4    A    
C29   H36   S    
C17   C19   S    
C7    C14   S    
C2    C22   S    
C9    N2    A    
Cu2   O2    S    
Cu1   Cu2   S    
C10   N1    A    
C12   N2    A    
C9    C10   A    
C1    O1    A    
C14   O6    A    
C16   H3    S    
C24   H14   S    
C28   H27   S    
C30   H33   S    
C25   H21   S    
C24   H15   S    
C4    H10   S    
C2    C20   S    
C19   C22   S    
C17   H12   S    
C4    C6    A    
C3    C8    A    
C5    C7    A    
Cu1   O1    S    
C17   C21   S    
C12   H2    S    
C2    H7    S    
C29   H35   S    
C23   C24   S    
C13   C21   S    
C18   H5    S    
C23   H16   S    
C1    O2    A    
C14   O5    A    
C19   C25   S    
C24   H13   S    
Cu1   N1    S    
C26   H19   S    
Cu2   O8    S    
C30   H34   S    
C25   C26   S    
C18   C22   S    
C17   H4    S    
C29   C30   S    
C3    C5    A    
C16   H11   S    
C11   C12   A    
C6    C7    A    
Cu1   O5    S    
C23   H17   S    
C11   N1    A    
C15   O7    A    
C27   H31   S    
Cu1   O3    S    
Cu2   O4    S    
C20   H24   S    
C9    C27   S    
C13   O3    A    
C20   C21   S    
C16   C18   S    
C27   C28   S    
C26   H20   S    
C3    H9    S    
C19   H6    S    
C10   C29   S    
