data_mof_unit_16698.cif
_audit_creation_date              2012-10-26T19:59:12-0400
_audit_creation_method            fapswitch 2.2
_symmetry_space_group_name_H-M    P1
_symmetry_Int_Tables_number       1
_space_group_crystal_system       triclinic
_cell_length_a                    7.439435
_cell_length_b                    8.73396
_cell_length_c                    15.931398
_cell_angle_alpha                 94.90521
_cell_angle_beta                  75.488295
_cell_angle_gamma                 103.274851
_cell_volume                      974.922162797

loop_
_atom_site_label
_atom_site_type_symbol
_atom_type_description
_atom_site_fract_x
_atom_site_fract_y
_atom_site_fract_z
_atom_type_partial_charge
C1    C     C_R   0.544886 0.799861 0.502635 0.554518
C2    C     C_R   0.614598 0.509311 0.333877 0.539969
C3    C     C_R   0.318610 0.479029 0.761027 0.038229
C4    C     C_R   0.681389 0.520963 0.238973 0.038242
C5    C     C_R   0.073451 0.376783 0.885991 -0.078051
C6    C     C_R   0.926535 0.623227 0.114009 -0.078057
C7    C     C_R   0.127647 0.416437 0.799167 -0.144502
C8    C     C_R   0.872346 0.583573 0.200833 -0.144511
C9    C     C_R   0.451924 0.517184 0.812913 0.376204
C10   C     C_R   0.548076 0.482790 0.187087 0.376219
C11   C     C_R   0.396438 0.490051 0.902681 0.010412
C12   C     C_R   0.455114 0.200139 0.497365 0.554522
C13   C     C_R   0.603551 0.509935 0.097321 0.010417
C14   C     C_R   0.207899 0.406144 0.936781 0.021391
C15   C     C_R   0.792085 0.593855 0.063221 0.021389
C16   C     C_R   0.526239 0.531483 0.957878 -0.045163
C17   C     C_R   0.473746 0.468504 0.042124 -0.045162
C18   C     C_R   0.294807 0.364163 0.067540 -0.020761
C19   C     C_R   0.705173 0.635830 0.932462 -0.020757
C20   C     C_R   0.160107 0.342293 0.018699 0.367104
C21   C     C_R   0.839872 0.657708 0.981303 0.367107
C22   C     C_2   0.570358 0.967091 0.503966 0.354350
C23   C     C_2   0.429642 0.032909 0.496034 0.354350
C24   C     C_R   0.385401 0.490685 0.666123 0.539964
Cu1   Cu    Cu3+1 0.322120 0.483240 0.490330 1.307991
Cu2   Cu    Cu3+1 0.677880 0.516760 0.509670 1.307990
F1    F     F_    0.986103 0.248883 0.049485 -0.613896
F2    F     F_    0.013870 0.751127 0.950517 -0.613896
F3    F     F_    0.361087 0.438179 0.226740 -0.613525
F4    F     F_    0.638921 0.561755 0.773262 -0.613524
F5    F     F_    0.741879 0.053938 0.513503 -0.568264
F6    F     F_    0.258121 0.946062 0.486497 -0.568265
F7    F     F_    0.010998 0.625418 0.588616 -0.472336
F8    F     F_    0.989002 0.374582 0.411384 -0.472333
H1    H     H_    0.977102 0.612636 0.239462 0.192951
H2    H     H_    0.022889 0.387386 0.760538 0.192971
H3    H     H_    0.927386 0.317804 0.912452 0.193790
H4    H     H_    0.072595 0.682215 0.087549 0.193790
H5    H     H_    0.255892 0.293111 0.123911 0.239851
H6    H     H_    0.744080 0.706879 0.876089 0.239837
N1    N     N_2   0.945180 0.542040 0.524240 0.208545
N2    N     N_2   0.054820 0.457960 0.475760 0.208545
O1    O     O_R   0.384450 0.714270 0.493720 -0.466276
O2    O     O_R   0.615550 0.285730 0.506280 -0.466273
O3    O     O_R   0.684880 0.742590 0.510050 -0.453290
O4    O     O_R   0.315120 0.257410 0.489950 -0.453286
O5    O     O_R   0.265540 0.477900 0.617090 -0.500812
O6    O     O_R   0.734460 0.522100 0.382910 -0.500813
O7    O     O_R   0.565970 0.506210 0.633420 -0.428445
O8    O     O_R   0.434030 0.493790 0.366580 -0.428449

loop_
_geom_bond_atom_site_label_1
_geom_bond_atom_site_label_2
_ccdc_geom_bond_type
Cu1   N2    S    
C2    C4    S    
C18   H5    S    
C6    H4    S    
C3    C9    A    
C20   F1    S    
C5    H3    S    
C7    H2    S    
Cu1   O5    S    
C3    C7    A    
F8    N2    S    
C13   C17   A    
C4    C8    A    
F7    N1    S    
C23   F6    S    
Cu1   O1    S    
C17   C18   A    
C5    C14   A    
Cu2   O2    S    
C1    C22   S    
C12   O2    A    
Cu1   Cu2   S    
C10   C13   A    
C9    C11   A    
C10   F3    S    
C1    O3    A    
C3    C24   S    
C9    F4    S    
C16   C19   A    
C6    C8    A    
C19   C21   A    
C21   F2    S    
C18   C20   A    
C19   H6    S    
C13   C15   A    
C11   C14   A    
C11   C16   A    
C22   F5    S    
C4    C10   A    
C14   C20   A    
C15   C21   A    
Cu2   O6    S    
C12   O4    A    
N1    N2    D    
Cu2   O7    S    
C24   O7    A    
C5    C7    A    
C22   C23   D    
C12   C23   S    
C2    O8    A    
Cu2   O3    S    
C2    O6    A    
C6    C15   A    
Cu1   O8    S    
C24   O5    A    
Cu1   O4    S    
C1    O1    A    
Cu2   N1    S    
C16   C17   A    
C8    H1    S    
