data_mof_unit_51328.cif
_audit_creation_date              2013-03-05T16:04:20-0500
_audit_creation_method            fapswitch 2.2
_symmetry_space_group_name_H-M    P1
_symmetry_Int_Tables_number       1
_space_group_crystal_system       triclinic
_cell_length_a                    9.529354
_cell_length_b                    10.832489
_cell_length_c                    13.402276
_cell_angle_alpha                 90.107394
_cell_angle_beta                  73.120572
_cell_angle_gamma                 90.032211
_cell_volume                      1323.86649076

loop_
_atom_site_label
_atom_site_type_symbol
_atom_site_description
_atom_site_fract_x
_atom_site_fract_y
_atom_site_fract_z
_atom_type_partial_charge
O1    O     O_R   0.381250 0.680340 0.500010 -0.594445
O2    O     O_R   0.618820 0.680370 0.500010 -0.548794
C1    C     C_R   0.500243 0.737894 0.499497 0.824335
O3    O     O_R   0.323240 0.499950 0.650980 -0.587754
O4    O     O_R   0.560810 0.499980 0.650980 -0.564245
C2    C     C_R   0.423215 0.516836 0.698761 0.825092
Cu1   Cu    Cu3+1 0.359340 0.499980 0.500000 0.953476
Cu2   Cu    Cu3+1 0.640660 0.500020 0.500000 0.986832
O5    O     O_R   0.381180 0.319630 0.499990 -0.588318
O6    O     O_R   0.618750 0.319660 0.499990 -0.594716
O7    O     O_R   0.439190 0.500020 0.349020 -0.592125
O8    O     O_R   0.676760 0.500050 0.349020 -0.595857
C3    C     C_R   0.499920 0.262101 0.500071 0.794965
C4    C     C_R   0.577778 0.498933 0.299817 0.786202
C5    C     C_R   0.803879 0.497633 0.017684 -0.171172
H1    H     H_    0.850664 0.462769 0.162093 0.148329
H2    H     H_    0.857265 0.574924 0.823523 0.178721
H3    H     H_    0.915585 0.481138 0.971443 0.129287
C6    C     C_R   0.620795 0.503117 0.185597 -0.046609
C7    C     C_R   0.231649 0.565766 0.864878 -0.172114
C8    C     C_R   0.188646 0.586104 0.972002 -0.148929
C9    C     C_R   0.290401 0.578641 0.027798 -0.148995
C10   C     C_R   0.441226 0.563896 0.975507 0.042308
C11   C     C_R   0.486877 0.571726 0.865294 -0.020804
C12   C     C_R   0.548778 0.542341 0.027965 0.073972
C13   C     C_R   0.698145 0.532170 0.969240 0.104714
C14   C     C_R   0.741570 0.565293 0.864332 -0.326696
C15   C     C_R   0.636624 0.598734 0.815258 0.331810
C16   C     C_R   0.512687 0.526819 0.136256 -0.227243
C17   C     C_R   0.766288 0.485299 0.125662 -0.197466
C18   C     C_R   0.380813 0.553230 0.810372 -0.072616
H4    H     H_    0.400953 0.534147 0.184225 0.144068
H5    H     H_    0.148242 0.560928 0.824697 0.149897
H6    H     H_    0.247600 0.587798 0.111185 0.113207
H7    H     H_    0.075270 0.603731 0.013426 0.138846
C19   C     C_R   0.628118 0.936199 0.498580 -0.116752
H8    H     H_    0.728149 0.888217 0.497797 0.174218
C20   C     C_R   0.627943 0.063911 0.498938 -0.187072
H9    H     H_    0.727882 0.111989 0.498360 0.151083
C21   C     C_R   0.499984 0.128219 0.499963 -0.025057
C22   C     C_R   0.372164 0.063759 0.500746 -0.177088
H10   H     H_    0.272098 0.111720 0.501609 0.152514
C23   C     C_R   0.372311 0.936044 0.500465 -0.180836
H11   H     H_    0.272335 0.887957 0.501143 0.160640
C24   C     C_R   0.500270 0.871751 0.499415 -0.012222
C25   C     C_R   0.952994 0.573802 0.433019 0.022189
H12   H     H_    0.918899 0.633058 0.379462 0.103621
C26   C     C_R   0.101757 0.573741 0.432994 -0.011862
H13   H     H_    0.179631 0.632974 0.379377 0.108564
N1    N     N_R   0.147940 0.499970 0.499970 -0.158094
C27   C     C_R   0.046978 0.426281 0.566980 -0.019255
H14   H     H_    0.080982 0.367230 0.620708 0.116911
C28   C     C_R   0.898310 0.426065 0.566798 0.020942
H15   H     H_    0.820404 0.366929 0.620474 0.113415
N2    N     N_R   0.852060 0.500060 0.499990 -0.145095
N3    N     N_R   0.678604 0.680612 0.726950 0.149319
O9    O     O_R   0.584777 0.761032 0.712852 -0.385549
O10   O     O_R   0.815635 0.691669 0.673042 -0.381700

loop_
_geom_bond_atom_site_label_1
_geom_bond_atom_site_label_2
_geom_bond_distance
_ccdc_geom_bond_type
C25   N2    1.367242 A    
C5    H3    1.079741 S    
Cu1   O7    1.944048 S    
C10   C11   1.416174 A    
O6    C3    1.292098 A    
C8    H7    1.078639 S    
O4    Cu2   1.944047 S    
C22   C23   1.383465 A    
C22   H10   1.083270 S    
Cu2   O8    1.951554 S    
C19   C20   1.383435 A    
N1    C27   1.367277 A    
C15   N3    1.440840 S    
C11   C18   1.426459 A    
C19   C24   1.401051 A    
O1    Cu1   1.964759 S    
C28   H15   1.081698 S    
C7    C8    1.391029 A    
C20   C21   1.401253 A    
C23   C24   1.401092 A    
C13   C14   1.393093 A    
O4    C2    1.294172 A    
O3    Cu1   1.951553 S    
C26   H13   1.081798 S    
C7    H5    1.082996 S    
Cu2   N2    2.014466 S    
C26   N1    1.367669 A    
C21   C22   1.401056 A    
O8    C4    1.298403 A    
O2    C1    1.292465 A    
C16   H4    1.075032 S    
O1    C1    1.291984 A    
C28   N2    1.367723 A    
C23   H11   1.083284 S    
C12   C16   1.401413 A    
C20   H9    1.083258 S    
C9    H6    1.077084 S    
O7    C4    1.293590 A    
C25   C26   1.417519 A    
O3    C2    1.305688 A    
H1    C17   1.083099 S    
C27   H14   1.081727 S    
H2    C14   1.084168 S    
Cu1   Cu2   2.680799 S    
C10   C12   1.420755 A    
N3    O9    1.301398 A    
C5    C17   1.392848 A    
Cu2   O6    1.964759 S    
C14   C15   1.395419 A    
Cu1   O5    1.964805 S    
O5    C3    1.292359 A    
C25   H12   1.081754 S    
C19   H8    1.083344 S    
C5    C13   1.399264 A    
C2    C18   1.484317 S    
C27   C28   1.417425 A    
C12   C13   1.416643 A    
C8    C9    1.388290 A    
C6    C17   1.399191 A    
C4    C6    1.466050 S    
C1    C24   1.450014 S    
C9    C10   1.413264 A    
O2    Cu2   1.964807 S    
C11   C15   1.419910 A    
Cu1   N1    2.014623 S    
N3    O10   1.301456 A    
C3    C21   1.450274 S    
C7    C18   1.403358 A    
C6    C16   1.400379 A    
