data_mof_unit_68521.cif
_audit_creation_date              2012-12-11T17:44:39-0500
_audit_creation_method            fapswitch 2.2
_symmetry_space_group_name_H-M    P1
_symmetry_Int_Tables_number       1
_space_group_crystal_system       triclinic
_cell_length_a                    8.217259
_cell_length_b                    12.758924
_cell_length_c                    14.985309
_cell_angle_alpha                 97.758816
_cell_angle_beta                  97.521435
_cell_angle_gamma                 98.985665
_cell_volume                      1518.96844336

loop_
_atom_site_label
_atom_site_type_symbol
_atom_type_description
_atom_site_fract_x
_atom_site_fract_y
_atom_site_fract_z
_atom_type_partial_charge
Ba1   Ba    Ba6+2 0.843760 0.550230 0.455610 1.619530
Ba2   Ba    Ba6+2 0.346080 0.449860 0.544400 1.589374
C1    C     C_3   0.551178 0.908917 0.173095 0.138865
C2    C     C_R   0.109239 0.465024 0.205444 -0.000357
C3    C     C_R   0.924722 0.476427 0.767008 -0.282827
C4    C     C_3   0.059143 0.767500 0.204649 0.302401
C5    C     C_R   0.825362 0.438355 0.827945 0.007946
C6    C     C_R   0.888496 0.448557 0.920037 -0.063412
C7    C     C_R   0.054413 0.499249 0.954565 -0.082423
C8    C     C_R   0.151668 0.549136 0.893040 -0.008768
C9    C     C_R   0.124537 0.503735 0.048748 -0.001820
C10   C     C_R   0.292403 0.555989 0.079105 -0.048578
C11   C     C_R   0.381672 0.606519 0.018960 -0.100688
C12   C     C_3   0.581149 0.824780 0.233963 0.402915
C13   C     C_R   0.310731 0.610905 0.930003 0.400966
C14   C     C_R   0.035601 0.456503 0.113780 -0.090349
C15   C     C_R   0.273400 0.516949 0.232411 -0.245422
C16   C     C_3   0.014164 0.793849 0.109248 -0.334801
C17   C     C_R   0.084568 0.535087 0.797187 0.097284
C18   C     C_R   0.756662 0.184936 0.571080 -0.188054
C19   C     C_R   0.426781 0.809129 0.461858 -0.295143
C20   C     C_R   0.389388 0.988603 0.443292 -0.085869
C21   C     C_R   0.327332 0.879242 0.429638 0.041967
C22   C     C_R   0.583371 0.848240 0.514807 0.086996
C23   C     C_3   0.421230 0.224965 0.258185 0.302404
C24   C     C_R   0.646922 0.960921 0.532070 -0.045086
C25   C     C_R   0.547964 0.031521 0.494834 -0.058990
C26   C     C_R   0.608006 0.143607 0.511227 0.083674
C27   C     C_R   0.864142 0.116652 0.599307 0.011377
C28   C     C_3   0.309550 0.785550 0.670663 0.719094
C29   C     C_R   0.806791 0.005367 0.583112 -0.147362
C30   C     C_3   0.409093 0.893198 0.719405 -0.230338
C31   C     C_3   0.995469 0.203968 0.321175 0.286816
C32   C     C_3   0.926015 0.086537 0.283349 -0.403854
C33   C     C_3   0.778373 0.699207 0.729252 0.266010
C34   C     C_3   0.286277 0.139143 0.197336 -0.473230
C35   C     C_3   0.843456 0.738077 0.830130 -0.351784
C36   C     C_2   0.960931 0.222971 0.415927 0.518818
C37   C     C_2   0.535392 0.269244 0.197087 0.499960
C38   C     C_2   0.690047 0.170033 0.971379 0.441597
C39   C     C_3   0.132072 0.248982 0.808143 0.459797
C40   C     C_3   0.123187 0.215941 0.901616 0.234948
C41   C     C_3   0.631966 0.185267 0.806060 0.288374
C42   C     C_3   0.622751 0.110060 0.877156 -0.194824
C43   C     C_R   0.366714 0.560374 0.170586 0.093518
H1    H     H_    0.667695 0.864131 0.297017 0.010351
H2    H     H_    0.667778 0.634948 0.722532 0.080793
H3    H     H_    0.486177 0.968748 0.207841 0.029805
H4    H     H_    0.965980 0.792255 0.838475 0.148489
H5    H     H_    0.858381 0.669135 0.866251 0.057155
H6    H     H_    0.754572 0.782789 0.861785 0.132742
H7    H     H_    0.460585 0.791962 0.254145 -0.139370
H8    H     H_    0.366104 0.291841 0.290661 0.008710
H9    H     H_    0.231715 0.080831 0.238481 0.139534
H10   H     H_    0.187491 0.177388 0.163673 0.120466
H11   H     H_    0.337968 0.091899 0.143362 0.128050
H12   H     H_    0.504034 0.880253 0.774785 0.087330
H13   H     H_    0.672496 0.950803 0.160571 0.119609
H14   H     H_    0.035944 0.728731 0.057475 0.066475
H15   H     H_    0.230593 0.320713 0.814464 0.125677
H16   H     H_    0.011930 0.272321 0.783807 -0.936652
H17   H     H_    0.078617 0.278885 0.946010 0.047129
H18   H     H_    0.033235 0.139270 0.893950 0.098051
H19   H     H_    0.764069 0.221991 0.810629 -0.042783
H20   H     H_    0.588755 0.137659 0.736949 0.051165
H21   H     H_    0.695393 0.045469 0.860234 0.079289
H22   H     H_    0.970162 0.695692 0.212278 0.111817
H23   H     H_    0.472457 0.937403 0.671414 0.041698
H24   H     H_    0.491146 0.072154 0.875638 0.136237
H25   H     H_    0.330833 0.521185 0.302334 0.063865
H26   H     H_    0.508392 0.647185 0.041087 0.109949
H27   H     H_    0.909913 0.412605 0.095860 0.100194
H28   H     H_    0.872586 0.466152 0.695592 0.083283
H29   H     H_    0.804057 0.416517 0.962808 0.062815
H30   H     H_    0.307762 0.039098 0.416438 0.094843
H31   H     H_    0.891044 0.955227 0.607927 0.153528
H32   H     H_    0.799374 0.270882 0.585818 0.108690
H33   H     H_    0.186644 0.748520 0.211891 -0.062084
H34   H     H_    0.324409 0.943135 0.749340 0.147048
H35   H     H_    0.377073 0.723922 0.450933 0.066542
H36   H     H_    0.881261 0.802102 0.096218 0.165447
H37   H     H_    0.090916 0.871017 0.101945 0.128740
H38   H     H_    0.396847 0.736799 0.642673 -0.062990
H39   H     H_    0.994994 0.167364 0.459212 -0.055800
H40   H     H_    0.350232 0.824600 0.099924 0.297980
H41   H     H_    0.632703 0.226777 0.177520 0.069603
H42   H     H_    0.267203 0.181713 0.001602 0.317015
H43   H     H_    0.635152 0.236970 0.998930 0.098123
H44   H     H_    0.499859 0.719861 0.918164 0.310607
H45   H     H_    0.129889 0.219615 0.322297 -0.022779
H46   H     H_    0.161790 0.737305 0.556758 0.310669
H47   H     H_    0.937764 0.068580 0.210150 0.164275
H48   H     H_    0.792299 0.068149 0.290731 0.084111
H49   H     H_    0.994758 0.035063 0.322244 0.119407
H50   H     H_    0.877191 0.666861 0.696538 0.039756
O1    O     O_2   0.827930 0.435360 0.277760 -0.390733
O2    O     O_2   0.199407 0.114777 0.577883 -0.468530
O3    O     O_3   0.168556 0.163527 0.748834 -0.555630
O4    O     O_3   0.100310 0.439010 0.391180 -0.459142
O5    O     O_3   0.587770 0.631830 0.546230 -0.493399
O6    O     O_2   0.332600 0.233710 0.456170 -0.497696
O7    O     O_3   0.509698 0.174213 0.321680 -0.669732
O8    O     O_2   0.499264 0.459997 0.824255 -0.446742
O9    O     O_3   0.527795 0.261113 0.821998 -0.531734
O10   O     O_3   0.625610 0.634200 0.333270 -0.479378
O11   O     O_2   0.706367 0.550911 0.176153 -0.457603
O12   O     O_3   0.734686 0.786339 0.690021 -0.640644
O13   O     O_3   0.918494 0.265760 0.264620 -0.615771
O14   O     O_3   0.654984 0.746876 0.186590 -0.612081
O15   O     O_2   0.857120 0.766320 0.543890 -0.413351
O16   O     O_3   0.056570 0.691100 0.379020 -0.496663
O17   O     O_2   0.990807 0.881892 0.436796 -0.448959
O18   O     O_2   0.895331 0.297343 0.443846 -0.557533
O19   O     O_3   0.458554 0.861453 0.088108 -0.712200
O20   O     O_2   0.510724 0.347757 0.162711 -0.613843
O21   O     O_3   0.280996 0.202780 0.941344 -0.702075
O22   O     O_2   0.805662 0.143688 0.017830 -0.590965
O23   O     O_3   0.049818 0.856098 0.269248 -0.614439
O24   O     O_3   0.395441 0.678693 0.880560 -0.697151
O25   O     O_3   0.192008 0.804589 0.601328 -0.733159
O26   O     O_2   0.361790 0.564680 0.722290 -0.429753
O27   O     O_3   0.089410 0.561080 0.608830 -0.494518
O28   O     O_3   0.564100 0.365890 0.666740 -0.467021
O29   O     O_3   0.227563 0.737075 0.734480 -0.597758
O30   O     O_3   0.601940 0.368260 0.453780 -0.396560
O31   O     O_3   0.133140 0.308990 0.620990 -0.430259
P1    P     P_3+3 0.998770 0.403620 0.291990 1.063419
P2    P     P_3+3 0.687370 0.751000 0.571300 0.985611
P3    P     P_3+3 0.107658 0.828392 0.379259 0.951675
P4    P     P_3+3 0.190950 0.596470 0.708020 1.057349
P5    P     P_3+3 0.090088 0.174218 0.636811 0.989537
P6    P     P_3+3 0.586989 0.620899 0.215224 1.005848
P7    P     P_3+3 0.515764 0.231045 0.436583 0.933517
P8    P     P_3+3 0.606178 0.381036 0.785543 0.972808

loop_
_geom_bond_atom_site_label_1
_geom_bond_atom_site_label_2
_ccdc_geom_bond_type
C12   O14   S    
C39   C40   S    
C42   H21   S    
C14   H27   S    
C32   H48   S    
C39   H16   S    
O26   P4    D    
C33   H2    S    
Ba1   O4    S    
C5    C6    A    
C12   H1    S    
Ba2   O28   S    
O11   P6    D    
C24   C25   A    
O9    P8    S    
C18   H32   S    
C30   H12   S    
H40   O19   S    
C33   C35   S    
O8    P8    D    
C23   H8    S    
O12   P2    S    
C8    C13   A    
C35   H6    S    
C23   O7    S    
C4    H33   S    
C1    H3    S    
C16   H36   S    
C21   P3    S    
Ba1   Ba2   S    
C4    O23   S    
C28   H38   S    
C41   O9    S    
Ba2   P4    S    
Ba1   O27   S    
O16   P3    S    
C12   H7    S    
H44   O24   S    
C6    C7    A    
O3    P5    S    
Ba1   P2    S    
O17   P3    D    
C7    C8    A    
C40   H17   S    
C30   H23   S    
C17   P4    S    
C38   O22   D    
Ba2   O5    S    
C15   H25   S    
C31   O13   S    
C20   H30   S    
H46   O25   S    
Ba1   O5    S    
C41   H19   S    
O10   P6    S    
C18   C27   A    
Ba2   O27   S    
O23   P3    S    
C4    C16   S    
O28   P8    S    
C26   P7    S    
Ba1   P1    S    
C34   H9    S    
O2    P5    D    
C5    P8    S    
C3    C5    A    
C36   O18   D    
O4    P1    S    
C18   C26   A    
Ba2   O6    S    
O1    P1    D    
C2    C14   A    
C41   C42   S    
Ba2   O30   S    
C34   H11   S    
Ba1   O15   S    
C35   H4    S    
C9    C14   A    
C38   C42   S    
C8    C17   A    
C41   H20   S    
O14   P6    S    
C6    H29   S    
C31   C32   S    
O29   P4    S    
C42   H24   S    
C7    C9    A    
H42   O21   S    
C1    C12   S    
C2    C15   A    
Ba2   O31   S    
C40   O21   S    
C4    H22   S    
C28   O29   S    
Ba2   O4    S    
C37   O20   D    
C20   C25   A    
C11   C13   A    
Ba2   O26   S    
O30   P7    S    
C2    P1    S    
C36   H39   S    
O5    P2    S    
C20   C21   A    
C32   H49   S    
C39   H15   S    
C15   C43   A    
C10   C43   A    
C1    O19   S    
C9    C10   A    
C3    C17   A    
O6    P7    D    
C11   H26   S    
C31   C36   S    
Ba1   O30   S    
C38   H43   S    
C19   C21   A    
O7    P7    S    
C27   C29   A    
C34   H10   S    
C31   H45   S    
Ba1   O16   S    
C30   H34   S    
C28   C30   S    
C35   H5    S    
C22   C24   A    
C29   H31   S    
C27   P5    S    
C28   O25   S    
O31   P5    S    
Ba1   O1    S    
C19   H35   S    
C16   H37   S    
C13   O24   S    
O13   P1    S    
C3    H28   S    
C32   H47   S    
C33   O12   S    
C23   C34   S    
C1    H13   S    
C16   H14   S    
C24   C29   A    
C10   C11   A    
C43   P6    S    
C19   C22   A    
O15   P2    D    
C25   C26   A    
C22   P2    S    
C39   O3    S    
C37   H41   S    
C40   H18   S    
O27   P4    S    
C23   C37   S    
Ba1   O10   S    
C33   H50   S    
