data_mof_unit_11614.cif
_audit_creation_date              2012-12-10T20:31:58-0500
_audit_creation_method            fapswitch 2.2
_symmetry_space_group_name_H-M    P1
_symmetry_Int_Tables_number       1
_space_group_crystal_system       triclinic
_cell_length_a                    9.887632
_cell_length_b                    10.678319
_cell_length_c                    15.395273
_cell_angle_alpha                 90.826459
_cell_angle_beta                  69.123631
_cell_angle_gamma                 89.039324
_cell_volume                      1518.19751911

loop_
_atom_site_label
_atom_site_type_symbol
_atom_type_description
_atom_site_fract_x
_atom_site_fract_y
_atom_site_fract_z
_atom_type_partial_charge
C1    C     C_R   0.503170 0.740084 0.493399 0.911204
C2    C     C_R   0.748591 0.451184 0.027182 -0.204896
C3    C     C_R   0.603883 0.421422 0.080594 -0.085408
C4    C     C_R   0.410421 0.493389 0.675695 0.903653
C5    C     C_R   0.842075 0.494270 0.070781 0.594063
C6    C     C_R   0.792635 0.511394 0.167411 -0.057140
C7    C     C_R   0.552499 0.449405 0.176154 0.626530
C8    C     C_R   0.394776 0.938902 0.469979 0.022014
C9    C     C_R   0.515942 0.870698 0.470406 -0.251811
C10   C     C_R   0.650345 0.932075 0.445184 -0.007605
C11   C     C_R   0.649918 0.062961 0.446896 0.593688
C12   C     C_R   0.441654 0.402490 0.899880 0.104664
C13   C     C_R   0.517129 0.129097 0.471598 -0.243979
C14   C     C_R   0.395716 0.066678 0.470486 -0.028773
C15   C     C_3   0.241302 0.080491 0.533219 -0.466483
C16   C     C_R   0.504445 0.260041 0.493836 0.921933
C17   C     C_3   0.240002 0.939043 0.533293 0.609926
C18   C     C_R   0.884005 0.520621 0.580510 -0.073670
C19   C     C_R   0.971173 0.460282 0.423972 0.712332
C20   C     C_R   0.114906 0.461777 0.423696 -0.151683
C21   C     C_R   0.025847 0.516298 0.581240 0.047561
C22   C     C_3   0.993920 0.623838 0.648419 1.067897
C23   C     C_R   0.307784 0.346124 0.946421 -0.021914
C24   C     C_3   0.843392 0.633241 0.643730 0.360790
C25   C     C_R   0.590157 0.499967 0.323500 0.942357
C26   C     C_R   0.361190 0.455827 0.773137 -0.205331
C27   C     C_R   0.646726 0.487801 0.221008 -0.282575
C28   C     C_R   0.205012 0.337917 0.902918 -0.156309
C29   C     C_R   0.233281 0.389553 0.815211 0.659925
C30   C     C_R   0.460168 0.465578 0.818135 -0.211910
C31   C     C_R   0.550299 0.402237 0.939268 -0.139990
C32   C     C_R   0.510136 0.379839 0.034986 -0.082997
C33   C     C_R   0.379082 0.316513 0.079885 0.751309
C34   C     C_R   0.280421 0.298230 0.034867 -0.265007
C35   C     C_R   0.697722 0.421598 0.886379 0.619264
C36   C     C_R   0.795832 0.443142 0.930415 -0.111855
F1    F     F_    0.979927 0.525295 0.019428 -0.676881
F2    F     F_    0.352040 0.261059 0.163007 -0.605567
F3    F     F_    0.750185 0.409131 0.792303 -0.666414
F4    F     F_    0.776288 0.123186 0.430954 -0.616007
F5    F     F_    0.152178 0.892248 0.488228 -0.557944
F6    F     F_    0.947627 0.416185 0.347982 -0.623178
F7    F     F_    0.994144 0.589542 0.734602 -0.643748
F8    F     F_    0.407769 0.456015 0.223162 -0.631233
F9    F     F_    0.077869 0.725142 0.613882 -0.618675
F10   F     F_    0.822946 0.738900 0.598490 -0.614033
F11   F     F_    0.139557 0.369828 0.770301 -0.631988
H1    H     H_    0.181088 0.249634 0.070233 0.192078
H2    H     H_    0.850370 0.886407 0.354460 0.218560
H3    H     H_    0.836642 0.893444 0.466979 0.310391
H4    H     H_    0.919093 0.649912 0.183198 0.218100
H5    H     H_    0.981946 0.503724 0.189563 0.278123
H6    H     H_    0.228274 0.123019 0.602236 0.185745
H7    H     H_    0.172337 0.123515 0.497703 0.263328
H8    H     H_    0.224136 0.899715 0.602525 0.123894
H9    H     H_    0.202830 0.430591 0.362252 0.257295
H10   H     H_    0.755635 0.618738 0.711060 0.104483
H11   H     H_    0.907321 0.460047 0.888486 0.281302
H12   H     H_    0.104447 0.289895 0.935940 0.172745
H13   H     H_    0.552728 0.523339 0.788407 0.204972
N1    N     N_R   0.856900 0.500860 0.500610 -0.125922
N2    N     N_R   0.142540 0.500820 0.500610 -0.136481
N3    N     N_3   0.784987 0.863522 0.422030 -0.341095
N4    N     N_3   0.888585 0.560963 0.209752 -0.340691
O1    O     O_R   0.385310 0.683210 0.499990 -0.571395
O2    O     O_R   0.614650 0.683240 0.500000 -0.556161
O3    O     O_R   0.319830 0.499970 0.632240 -0.531248
O4    O     O_R   0.549170 0.500000 0.632250 -0.623170
O5    O     O_R   0.385350 0.316760 0.500000 -0.616592
O6    O     O_R   0.614690 0.316790 0.500010 -0.541947
O7    O     O_R   0.450830 0.500000 0.367750 -0.572572
O8    O     O_R   0.680170 0.500030 0.367760 -0.550695
Zn1   Zn    Zn3+2 0.346870 0.499980 0.499990 1.084329
Zn2   Zn    Zn3+2 0.653130 0.500020 0.500010 1.098518

loop_
_geom_bond_atom_site_label_1
_geom_bond_atom_site_label_2
_ccdc_geom_bond_type
H2    N3    S    
C5    F1    S    
C18   C21   A    
C19   C20   A    
C20   H9    S    
C7    C27   A    
C12   C23   A    
C29   F11   S    
C18   C24   S    
C15   H6    S    
C28   C29   A    
C3    C7    A    
C5    C6    A    
O4    Zn2   S    
O2    Zn2   S    
O1    Zn1   S    
C6    N4    S    
C10   N3    S    
C8    C9    A    
C30   H13   S    
O6    Zn2   S    
C1    O1    A    
N2    Zn1   S    
O5    Zn1   S    
C25   O7    A    
C9    C10   A    
C17   H8    S    
C19   F6    S    
C13   C14   A    
H3    N3    S    
C11   F4    S    
C33   C34   A    
C16   O5    A    
C15   H7    S    
C1    C9    S    
O8    Zn2   S    
H5    N4    S    
O7    Zn1   S    
C24   H10   S    
C7    F8    S    
C35   C36   A    
C35   F3    S    
C6    C27   A    
C23   C34   A    
C1    O2    A    
C16   O6    A    
C25   O8    A    
C23   C28   A    
C21   N2    A    
O3    Zn1   S    
C26   C30   A    
C12   C31   A    
C31   C35   A    
C2    C5    A    
C34   H1    S    
C4    O4    A    
C28   H12   S    
C2    C36   A    
C15   C17   S    
C8    C14   A    
C12   C30   A    
C31   C32   A    
H4    N4    S    
C33   F2    S    
C4    O3    A    
C4    C26   S    
C18   N1    A    
N1    Zn2   S    
C25   C27   S    
C36   H11   S    
C8    C17   S    
C24   F10   S    
C32   C33   A    
C2    C3    A    
C11   C13   A    
C19   N1    A    
C22   C24   S    
C20   N2    A    
C3    C32   A    
C17   F5    S    
C10   C11   A    
C22   F9    S    
C26   C29   A    
C13   C16   S    
C14   C15   S    
C21   C22   S    
C22   F7    S    
