data_mof_unit_30906.cif
_audit_creation_date              2012-12-10T16:57:41-0500
_audit_creation_method            fapswitch 2.2
_symmetry_space_group_name_H-M    P1
_symmetry_Int_Tables_number       1
_space_group_crystal_system       triclinic
_cell_length_a                    7.802405
_cell_length_b                    8.561483
_cell_length_c                    19.094505
_cell_angle_alpha                 91.575292
_cell_angle_beta                  85.57715
_cell_angle_gamma                 93.323323
_cell_volume                      1269.2393234

loop_
_atom_site_label
_atom_site_type_symbol
_atom_type_description
_atom_site_fract_x
_atom_site_fract_y
_atom_site_fract_z
_atom_type_partial_charge
C1    C     C_R   0.545407 0.794513 0.498242 0.965873
C2    C     C_R   0.639023 0.510227 0.174303 -0.130760
C3    C     C_R   0.524020 0.554786 0.854694 -0.076437
C4    C     C_R   0.497636 0.574313 0.147263 -0.053417
C5    C     C_R   0.665073 0.493666 0.814146 0.473497
C6    C     C_R   0.354404 0.615513 0.192160 0.430055
C7    C     C_R   0.656323 0.476594 0.741676 -0.260941
C8    C     C_R   0.354687 0.587160 0.263557 -0.270835
C9    C     C_R   0.508832 0.516339 0.710176 -0.121604
C10   C     C_R   0.496402 0.522121 0.290343 -0.091839
C11   C     C_R   0.498930 0.583511 0.071716 0.339588
C12   C     C_R   0.454591 0.205486 0.501728 0.972403
C13   C     C_R   0.516632 0.566971 0.930641 0.336335
C14   C     C_2   0.569464 0.957844 0.497175 -0.365498
C15   C     C_2   0.430529 0.042143 0.502734 -0.366972
C16   C     C_R   0.502121 0.502185 0.634449 0.893303
C17   C     C_R   0.498569 0.502634 0.365590 0.891911
C18   C     C_R   0.370225 0.576365 0.750981 -0.157588
C19   C     C_R   0.639106 0.484987 0.245532 -0.186041
C20   C     C_R   0.378690 0.596416 0.822634 -0.170307
H1    H     H_    0.256129 0.609978 0.727540 0.186860
H2    H     H_    0.978627 0.705656 0.247365 0.349722
H3    H     H_    0.978193 0.244145 0.444441 0.176649
H4    H     H_    0.997411 0.383899 0.383958 0.177474
H5    H     H_    0.002742 0.616402 0.616014 0.182942
H6    H     H_    0.021735 0.755940 0.555441 0.172027
H7    H     H_    0.749780 0.435030 0.265346 0.169695
H8    H     H_    0.271393 0.645050 0.853415 0.226516
H9    H     H_    0.747433 0.475290 0.139785 0.221089
H10   H     H_    0.763467 0.430435 0.709805 0.209349
H11   H     H_    0.245762 0.618838 0.298558 0.182582
H12   H     H_    0.700959 0.008192 0.491834 0.177181
H13   H     H_    0.299035 0.991792 0.508068 0.176772
H14   H     H_    0.080151 0.316032 0.815486 0.394159
N1    N     N_R   0.648310 0.636792 0.964192 -0.055259
N2    N     N_R   0.366688 0.515424 0.038087 -0.065076
N3    N     N_R   0.640304 0.643698 0.033887 -0.093944
N4    N     N_R   0.374816 0.508287 0.968528 -0.107430
N5    N     N_2   0.950330 0.457950 0.481240 -0.007589
N6    N     N_2   0.049670 0.542050 0.518760 -0.005594
N7    N     N_3   0.031977 0.356330 0.433742 -0.310495
N8    N     N_3   0.968041 0.643764 0.566223 -0.312637
O1    O     O_R   0.389250 0.738570 0.504600 -0.624286
O2    O     O_2   0.793787 0.323991 0.911609 -0.251870
O3    O     O_3   0.975166 0.334982 0.791650 -0.575822
O4    O     O_2   0.242045 0.832851 0.110842 -0.219526
O5    O     O_2   0.065494 0.588913 0.124660 -0.298187
O6    O     O_3   0.060204 0.790472 0.228983 -0.533658
O7    O     O_R   0.610750 0.261430 0.495400 -0.621523
O8    O     O_R   0.678400 0.711620 0.492580 -0.611359
O9    O     O_R   0.321600 0.288380 0.507420 -0.608272
O10   O     O_R   0.355380 0.513500 0.607880 -0.625292
O11   O     O_R   0.644620 0.486500 0.392120 -0.631816
O12   O     O_R   0.644530 0.486550 0.595850 -0.610031
O13   O     O_R   0.355470 0.513450 0.404150 -0.611255
O14   O     O_2   0.949547 0.571435 0.879168 -0.298245
S1    S     S_3+6 0.849011 0.430807 0.851857 0.028488
S2    S     S_3+6 0.177673 0.707939 0.161701 0.049551
Zn1   Zn    Zn3+2 0.306930 0.517990 0.508030 0.975133
Zn2   Zn    Zn3+2 0.693070 0.482010 0.491970 0.972251

loop_
_geom_bond_atom_site_label_1
_geom_bond_atom_site_label_2
_ccdc_geom_bond_type
H5    N8    S    
H2    O6    S    
C5    C7    A    
O6    S2    S    
C5    S1    S    
O10   Zn1   S    
O13   Zn1   S    
C18   H1    S    
C19   H7    S    
C1    O8    A    
C6    S2    S    
C2    C4    A    
C3    C13   S    
C12   C15   S    
O1    Zn1   S    
O2    S1    D    
C3    C5    A    
O8    Zn2   S    
C7    C9    A    
N2    N4    A    
C12   O7    A    
C3    C20   A    
N5    N7    S    
C7    H10   S    
O12   Zn2   S    
O4    S2    D    
C4    C11   S    
H4    N7    S    
O3    S1    S    
C13   N4    A    
O7    Zn2   S    
H14   O3    S    
C2    H9    S    
N5    Zn2   S    
C4    C6    A    
C11   N2    A    
N1    N3    A    
C9    C16   S    
C15   H13   S    
C13   N1    A    
O11   Zn2   S    
C18   C20   A    
C16   O12   A    
O9    Zn1   S    
C10   C17   S    
C17   O11   A    
C9    C18   A    
C12   O9    A    
O14   S1    D    
H6    N8    S    
C8    C10   A    
C10   C19   A    
N5    N6    D    
C11   N3    A    
C17   O13   A    
C14   C15   D    
C6    C8    A    
C1    C14   S    
C20   H8    S    
N6    Zn1   S    
C2    C19   A    
C8    H11   S    
C1    O1    A    
C16   O10   A    
C14   H12   S    
N6    N8    S    
O5    S2    D    
H3    N7    S    
