data_mof_unit_58822.cif
_audit_creation_date              2012-12-11T17:08:28-0500
_audit_creation_method            fapswitch 2.2
_symmetry_space_group_name_H-M    P1
_symmetry_Int_Tables_number       1
_space_group_crystal_system       triclinic
_cell_length_a                    6.97582
_cell_length_b                    14.511586
_cell_length_c                    16.095157
_cell_angle_alpha                 90.01165
_cell_angle_beta                  89.985673
_cell_angle_gamma                 90.025973
_cell_volume                      1629.31590089

loop_
_atom_site_label
_atom_site_type_symbol
_atom_type_description
_atom_site_fract_x
_atom_site_fract_y
_atom_site_fract_z
_atom_type_partial_charge
O1    O     O_R   0.505700 0.583890 0.413310 -0.542069
O2    O     O_R   0.175960 0.594920 0.586080 -0.541642
O3    O     O_R   0.005660 0.416110 0.586690 -0.515064
C1    C     C_R   0.344732 0.616860 0.614822 0.738058
O4    O     O_R   0.175980 0.594920 0.413930 -0.543629
O5    O     O_R   0.005680 0.416110 0.413310 -0.513050
C2    C     C_R   0.344807 0.616933 0.385242 0.720244
O6    O     O_R   0.505680 0.583890 0.586690 -0.540958
O7    O     O_3   0.339200 0.441330 0.500000 -0.362231
V1    V     V_3+5 0.064350 0.510880 0.500000 1.492795
O8    O     O_R   0.675960 0.405080 0.413920 -0.543017
C3    C     C_R   0.844958 0.383742 0.384688 0.751828
O9    O     O_R   0.675940 0.405080 0.586070 -0.547955
C4    C     C_R   0.844659 0.383247 0.614926 0.706107
V2    V     V_3+5 0.564340 0.489120 0.500000 1.466153
O10   O     O_3   0.839360 0.558670 0.500000 -0.387769
C5    C     C_R   0.012487 0.255254 0.691492 -0.012363
C6    C     C_R   0.853168 0.312867 0.681687 -0.054902
C7    C     C_R   0.700509 0.301340 0.737796 -0.167811
C8    C     C_R   0.711644 0.237235 0.803376 -0.159869
H1    H     H_    0.595011 0.233299 0.847460 0.142715
C9    C     C_R   0.877257 0.183393 0.815428 -0.056177
C10   C     C_R   0.024183 0.191786 0.756593 -0.012068
C11   C     C_3   0.230859 0.212035 0.770813 -0.440661
C12   C     C_3   0.217543 0.281575 0.700673 0.508974
H2    H     H_    0.323254 0.151964 0.755605 0.112101
H3    H     H_    0.306065 0.264634 0.645317 0.023390
C13   C     C_R   0.740481 0.177251 0.246293 0.021268
C14   C     C_R   0.882038 0.183195 0.184719 -0.147241
C15   C     C_R   0.021888 0.252467 0.193818 -0.212245
C16   C     C_R   0.010958 0.317411 0.258840 0.599412
C17   C     C_R   0.859036 0.314567 0.317052 -0.180475
C18   C     C_R   0.729300 0.241140 0.310780 -0.108537
C19   C     C_3   0.515515 0.242046 0.308622 -0.385910
C20   C     C_3   0.527778 0.172437 0.238228 0.524251
H4    H     H_    0.457890 0.310085 0.289430 0.255252
H5    H     H_    0.451775 0.213029 0.366253 0.115555
C21   C     C_R   0.506149 0.682237 0.741725 0.051739
C22   C     C_R   0.352673 0.682315 0.685526 -0.100448
C23   C     C_R   0.201755 0.744468 0.701038 -0.167241
H6    H     H_    0.079588 0.746807 0.659838 0.115102
C24   C     C_R   0.213201 0.808817 0.766454 -0.090939
C25   C     C_R   0.375819 0.812957 0.818384 -0.173040
C26   C     C_R   0.517414 0.745871 0.806500 0.101011
C27   C     C_3   0.728009 0.757215 0.795232 0.508516
C28   C     C_3   0.715990 0.687431 0.725026 -0.451871
H7    H     H_    0.769394 0.827813 0.775467 0.000749
H8    H     H_    0.790056 0.621324 0.738694 0.219918
H9    H     H_    0.747270 0.717408 0.662942 0.112889
C29   C     C_R   0.511034 0.685020 0.260767 0.047593
C30   C     C_R   0.353210 0.682518 0.314642 -0.072317
C31   C     C_R   0.200847 0.743360 0.298027 -0.168078
C32   C     C_R   0.212471 0.807661 0.232662 -0.163243
H10   H     H_    0.097880 0.856695 0.224477 0.194686
C33   C     C_R   0.376470 0.813315 0.181971 -0.069520
C34   C     C_R   0.522909 0.749428 0.196418 0.035652
C35   C     C_3   0.729039 0.767585 0.213883 0.461021
C36   C     C_3   0.717293 0.696102 0.282406 -0.446389
H11   H     H_    0.737864 0.724850 0.345847 0.189916
H12   H     H_    0.801339 0.632803 0.268774 0.150112
O11   O     O_R   0.229000 0.916070 0.913330 -0.534354
O12   O     O_R   0.558770 0.905070 0.086080 -0.521881
O13   O     O_R   0.729000 0.083900 0.086690 -0.509994
C37   C     C_R   0.389798 0.883343 0.115039 0.720084
O14   O     O_R   0.558720 0.905070 0.913930 -0.541312
O15   O     O_R   0.728960 0.083900 0.913310 -0.551545
C38   C     C_R   0.389687 0.883173 0.885120 0.692686
O16   O     O_R   0.229050 0.916070 0.086710 -0.546322
O17   O     O_3   0.395460 0.058650 0.000020 -0.358845
V3    V     V_3+5 0.670340 0.989120 0.000000 1.544467
O18   O     O_R   0.058670 0.094960 0.913900 -0.545035
C39   C     C_R   0.889705 0.117152 0.885390 0.670383
O19   O     O_R   0.058720 0.094960 0.086050 -0.538625
C40   C     C_R   0.889920 0.116973 0.114687 0.764980
V4    V     V_3+5 0.170330 0.010930 0.999970 1.507151
O20   O     O_3   0.895340 0.941350 0.999980 -0.361655
H13   H     H_    0.577821 0.346104 0.733937 0.198837
F1    F     F_    0.466177 0.208320 0.163221 -0.670768
H14   H     H_    0.467621 0.103505 0.253312 0.037343
H15   H     H_    0.099130 0.858601 0.773698 0.122537
F2    F     F_    0.828814 0.724145 0.863010 -0.645946
H16   H     H_    0.077364 0.744791 0.338479 0.143535
F3    F     F_    0.755774 0.855743 0.244894 -0.704919
H17   H     H_    0.825465 0.748833 0.161580 0.072067
H18   H     H_    0.256956 0.243701 0.832707 0.209426
F4    F     F_    0.236342 0.371528 0.728509 -0.670979
H19   H     H_    0.133190 0.259954 0.147588 0.220561
F5    F     F_    0.140435 0.387214 0.260632 -0.690152

loop_
_geom_bond_atom_site_label_1
_geom_bond_atom_site_label_2
_ccdc_geom_bond_type
C33   C34   A    
V4    O20   S    
C24   H15   S    
C19   H5    S    
O19   C40   A    
C4    C6    S    
C7    C8    A    
C1    O6    A    
O15   V3    S    
C32   H10   S    
O11   V4    S    
O16   V4    S    
C28   H9    S    
C5    C10   A    
C37   O16   A    
C13   C14   A    
C11   H2    S    
C6    C7    A    
O5    C3    A    
C15   C16   A    
C36   H12   S    
V2    O10   S    
C34   C35   S    
O12   V3    S    
C19   C20   S    
C27   H7    S    
C7    H13   S    
O12   C37   A    
C1    C22   S    
O8    V2    S    
O15   C39   A    
C13   C20   S    
O14   C38   A    
C10   C11   S    
C35   F3    S    
O1    V2    S    
O7    V1    S    
C23   C24   A    
O9    C4    A    
C3    C17   S    
O19   V4    S    
C9    C39   S    
C18   C19   S    
C32   C33   A    
C28   H8    S    
C30   C31   A    
C29   C36   S    
C11   C12   S    
C22   C23   A    
O4    C2    A    
C14   C40   S    
C29   C30   A    
C36   H11   S    
C27   C28   S    
C29   C34   A    
O2    C1    A    
C25   C26   A    
C21   C26   A    
C14   C15   A    
O11   C38   A    
C16   C17   A    
O13   V3    S    
C33   C37   S    
C5    C6    A    
C35   H17   S    
C31   H16   S    
O3    C4    A    
C23   H6    S    
C8    C9    A    
C13   C18   A    
O6    V2    S    
O9    V2    S    
V3    O20   S    
C24   C25   A    
O2    V1    S    
C31   C32   A    
C11   H18   S    
C16   F5    S    
O1    C2    A    
C27   F2    S    
C26   C27   S    
O5    V1    S    
O8    C3    A    
O13   C40   A    
C12   H3    S    
C20   F1    S    
C5    C12   S    
C17   C18   A    
O7    V2    S    
C2    C30   S    
O18   C39   A    
O3    V1    S    
V1    O10   S    
O18   V4    S    
C35   C36   S    
C21   C22   A    
C20   H14   S    
C12   F4    S    
O17   V4    S    
C19   H4    S    
O17   V3    S    
C21   C28   S    
O4    V1    S    
C8    H1    S    
C25   C38   S    
C9    C10   A    
C15   H19   S    
O14   V3    S    
