data_mof_unit_18117.cif
_audit_creation_date              2012-12-10T17:32:12-0500
_audit_creation_method            fapswitch 2.2
_symmetry_space_group_name_H-M    P1
_symmetry_Int_Tables_number       1
_space_group_crystal_system       triclinic
_cell_length_a                    12.391291
_cell_length_b                    13.153085
_cell_length_c                    14.994916
_cell_angle_alpha                 75.811862
_cell_angle_beta                  101.136185
_cell_angle_gamma                 116.743728
_cell_volume                      2106.21240423

loop_
_atom_site_label
_atom_site_type_symbol
_atom_type_description
_atom_site_fract_x
_atom_site_fract_y
_atom_site_fract_z
_atom_type_partial_charge
C1    C     C_R   0.855454 0.286095 0.506924 0.801489
C2    C     C_R   0.061235 0.617470 0.078554 -0.145975
C3    C     C_R   0.888879 0.299149 0.071171 0.170585
C4    C     C_R   0.894144 0.301401 0.978570 -0.237312
C5    C     C_R   0.953308 0.405455 0.919623 0.138087
C6    C     C_R   0.009466 0.511450 0.952058 -0.059349
C7    C     C_R   0.069673 0.616655 0.891139 -0.150321
C8    C     C_R   0.126142 0.722006 0.924837 0.386314
C9    C     C_R   0.113203 0.722929 0.016069 0.401003
C10   C     C_R   0.954789 0.404177 0.827668 -0.358094
C11   C     C_R   0.007136 0.506975 0.766513 -0.163410
C12   C     C_R   0.001370 0.501610 0.670512 0.854971
C13   C     C_R   0.070637 0.612964 0.797600 0.491488
C14   C     C_R   0.276056 0.041168 0.415690 -0.330775
C15   C     C_R   0.227894 0.838837 0.476483 -0.126898
C16   C     C_R   0.816062 0.077156 0.559192 0.461922
C17   C     C_R   0.732431 0.964363 0.591723 0.117198
C18   C     C_R   0.608225 0.934461 0.569623 -0.240063
C19   C     C_R   0.565005 0.012088 0.508706 0.058887
C20   C     C_R   0.650091 0.124934 0.476018 -0.056762
C21   C     C_R   0.439557 0.982381 0.481548 0.079376
C22   C     C_R   0.400958 0.068256 0.430041 0.032062
C23   C     C_R   0.144956 0.714398 0.488007 0.839904
C24   C     C_R   0.487148 0.177052 0.389971 0.152618
C25   C     C_R   0.610106 0.199715 0.409147 -0.146834
C26   C     C_R   0.351596 0.868503 0.501651 -0.347638
C27   C     C_R   0.188077 0.926224 0.435991 0.525438
C28   C     C_R   0.774019 0.161129 0.510561 -0.253289
C29   C     C_R   0.336769 0.315663 0.646241 0.269937
C30   C     C_R   0.765273 0.654249 0.380339 -0.073121
C31   C     C_R   0.680412 0.701444 0.363766 0.326110
C32   C     C_R   0.579499 0.649474 0.417328 0.415912
C33   C     C_R   0.556901 0.540417 0.476771 -0.102154
C34   C     C_R   0.002596 0.504112 0.328929 0.834478
C35   C     C_R   0.652333 0.503783 0.495869 0.129295
C36   C     C_R   0.447220 0.471104 0.523477 -0.176352
C37   C     C_R   0.442380 0.376420 0.596862 -0.143769
C38   C     C_R   0.542255 0.345517 0.618006 0.141530
C39   C     C_R   0.643777 0.411365 0.568060 -0.116564
C40   C     C_R   0.337327 0.486559 0.495704 0.599019
C41   C     C_R   0.247694 0.358319 0.629795 0.509432
C42   C     C_R   0.061069 0.615411 0.173183 0.482915
C43   C     C_R   0.004727 0.509082 0.231798 -0.164473
C44   C     C_R   0.946639 0.406096 0.198360 -0.353577
C45   C     C_R   0.946948 0.404531 0.105572 0.138244
C46   C     C_R   0.006410 0.511237 0.045487 -0.097995
Cu1   Cu    Cu3+1 0.098270 0.475420 0.521130 1.014564
Cu2   Cu    Cu3+1 0.901730 0.524580 0.478870 0.940495
H1    H     H_    0.246420 0.109026 0.386767 0.132204
H2    H     H_    0.378296 0.799404 0.532492 0.191341
H3    H     H_    0.547961 0.850207 0.602643 0.152826
H4    H     H_    0.676066 0.276225 0.371449 0.179710
H5    H     H_    0.902622 0.327532 0.246730 0.156523
H6    H     H_    0.846205 0.698012 0.344451 0.167407
H7    H     H_    0.719480 0.392043 0.589168 0.222807
H8    H     H_    0.850750 0.221125 0.951863 0.134697
H9    H     H_    0.915391 0.322630 0.803330 0.154626
N1    N     N_R   0.246280 0.438190 0.553160 -0.298073
N2    N     N_R   0.754320 0.561190 0.447410 -0.233564
O1    O     O_R   0.972510 0.318130 0.526570 -0.493786
O2    O     O_R   0.806530 0.359650 0.490890 -0.618574
O3    O     O_R   0.082980 0.479210 0.647590 -0.559828
O4    O     O_R   0.917000 0.520730 0.611900 -0.588445
O5    O     O_R   0.193470 0.640350 0.509110 -0.577368
O6    O     O_R   0.027490 0.681870 0.473430 -0.535270
O7    O     O_R   0.083000 0.479270 0.388100 -0.536473
O8    O     O_R   0.917020 0.520790 0.352410 -0.612684
O9    O     O_3   0.127308 0.715156 0.210326 -0.558039
C47   C     C_3   0.048746 0.759374 0.225376 -0.256465
H10   H     H_    0.042450 0.744564 0.300209 0.184640
H11   H     H_    0.955453 0.723416 0.189126 0.113839
H12   H     H_    0.089667 0.854146 0.201097 0.189445
C48   C     C_3   0.446042 0.265049 0.324730 -0.412773
C49   C     C_3   0.544273 0.372487 0.273870 -0.869155
H13   H     H_    0.613560 0.423840 0.323560 0.268297
H14   H     H_    0.587889 0.347336 0.230206 0.252476
H15   H     H_    0.502387 0.428148 0.228204 0.230493
H16   H     H_    0.376754 0.221383 0.270828 0.205181
H17   H     H_    0.402968 0.294550 0.365310 0.193872
O10   O     O_3   0.938962 0.106813 0.579428 -0.569125
C50   C     C_3   0.981978 0.096723 0.502944 -0.288780
H18   H     H_    0.957391 0.146084 0.436833 0.142476
H19   H     H_    0.947644 0.004220 0.497750 0.203420
H20   H     H_    0.082374 0.133695 0.512654 0.166762
C51   C     C_3   0.773868 0.876989 0.655333 -0.408950
C52   C     C_3   0.745798 0.774790 0.609858 -0.750241
H21   H     H_    0.646223 0.723441 0.599188 0.259479
H22   H     H_    0.784977 0.805572 0.542452 0.269105
H23   H     H_    0.785741 0.717413 0.655359 0.244220
H24   H     H_    0.872894 0.916686 0.676471 0.246261
H25   H     H_    0.727546 0.844656 0.719715 0.182690
O11   O     O_3   0.152148 0.308901 0.684327 -0.512308
C53   C     C_3   0.195558 0.338300 0.773118 -0.250585
H26   H     H_    0.116533 0.312792 0.811323 0.174413
H27   H     H_    0.250814 0.433202 0.769576 0.129232
H28   H     H_    0.248156 0.290195 0.814188 0.189626
C54   C     C_3   0.541108 0.241893 0.693004 -0.311570
C55   C     C_3   0.652417 0.215954 0.709837 -0.959501
H29   H     H_    0.666991 0.195846 0.646798 0.269081
H30   H     H_    0.732741 0.290786 0.731727 0.258609
H31   H     H_    0.638747 0.139664 0.766053 0.247584
H32   H     H_    0.529983 0.255781 0.760205 0.248385
H33   H     H_    0.464335 0.162313 0.673879 0.237515
O12   O     O_3   0.323229 0.220360 0.715422 -0.612575
C56   C     C_3   0.234264 0.119165 0.684068 -0.292607
H34   H     H_    0.249600 0.114020 0.614791 0.142943
H35   H     H_    0.141674 0.112222 0.683806 0.245710
H36   H     H_    0.239907 0.043036 0.732975 0.216444
O13   O     O_3   0.315829 0.542614 0.408234 -0.515297
C57   C     C_3   0.298057 0.473533 0.343109 -0.316223
H37   H     H_    0.231573 0.382143 0.363558 0.140051
H38   H     H_    0.385251 0.476628 0.331439 0.139534
H39   H     H_    0.260834 0.509288 0.275996 0.191385
O14   O     O_3   0.520145 0.712737 0.430003 -0.578330
C58   C     C_3   0.485658 0.773779 0.346668 -0.073752
H40   H     H_    0.466043 0.730710 0.286355 0.149343
H41   H     H_    0.555289 0.864550 0.333515 0.179833
H42   H     H_    0.400755 0.777954 0.354915 0.188663
O15   O     O_3   0.705531 0.806892 0.305134 -0.593375
C59   C     C_3   0.698129 0.792839 0.213410 -0.445697
H43   H     H_    0.613063 0.718131 0.194867 0.163175
H44   H     H_    0.778714 0.783445 0.201563 0.161367
H45   H     H_    0.697142 0.871763 0.165943 0.203835
C60   C     C_3   0.818348 0.183242 0.129894 -0.397776
C61   C     C_3   0.902890 0.132839 0.190711 -0.882962
H46   H     H_    0.949682 0.111043 0.147100 0.248944
H47   H     H_    0.972271 0.194432 0.233930 0.244825
H48   H     H_    0.848620 0.052739 0.237136 0.271150
H49   H     H_    0.759603 0.191306 0.172559 0.196068
H50   H     H_    0.755163 0.119737 0.085467 0.192642
O16   O     O_3   0.128209 0.712715 0.735223 -0.539337
C62   C     C_3   0.247159 0.726496 0.731093 -0.300745
H51   H     H_    0.300772 0.816585 0.697232 0.190155
H52   H     H_    0.246539 0.667854 0.688943 0.160149
H53   H     H_    0.294938 0.712018 0.800652 0.140953
O17   O     O_3   0.185006 0.825447 0.865996 -0.540970
C63   C     C_3   0.309225 0.879060 0.898168 -0.267921
H54   H     H_    0.361189 0.932920 0.838008 0.163872
H55   H     H_    0.348324 0.816058 0.932770 0.118925
H56   H     H_    0.323378 0.938248 0.945103 0.210020
O18   O     O_3   0.152889 0.827906 0.044038 -0.536857
C64   C     C_3   0.069448 0.876525 0.004926 -0.307342
H57   H     H_    0.094110 0.953614 0.035687 0.168063
H58   H     H_    0.974861 0.814881 0.020185 0.131893
H59   H     H_    0.073492 0.906511 0.929167 0.201745
O19   O     O_3   0.063863 0.896633 0.419929 -0.569272
C65   C     C_3   0.033728 0.963448 0.338520 -0.413655
H60   H     H_    0.937976 0.914443 0.313945 0.238303
H61   H     H_    0.089138 0.981954 0.281497 0.148249
H62   H     H_    0.042238 0.045510 0.353084 0.170228

loop_
_geom_bond_atom_site_label_1
_geom_bond_atom_site_label_2
_ccdc_geom_bond_type
C16   C28   A    
C21   C26   A    
C53   H26   S    
C8    O17   S    
C48   C49   S    
C19   C20   A    
C34   O7    A    
Cu1   O3    S    
C54   C55   S    
C51   H25   S    
C7    C8    A    
C45   C46   A    
C2    C46   A    
C30   H6    S    
C49   H14   S    
C17   C51   S    
C36   C37   A    
C65   H61   S    
C41   N1    A    
C26   H2    S    
C5    C6    A    
C52   H22   S    
C24   C48   S    
C14   H1    S    
C20   C25   A    
C58   H40   S    
C33   C36   A    
C12   O3    A    
C8    C9    A    
C35   N2    A    
C18   C19   A    
C47   H11   S    
C57   H37   S    
Cu1   O1    S    
O9    C47   S    
C44   H5    S    
C39   H7    S    
C65   H60   S    
C62   H51   S    
C58   H41   S    
C49   H15   S    
C1    C28   S    
C48   H16   S    
C14   C27   A    
Cu1   O7    S    
C54   H32   S    
C59   H45   S    
C15   C23   S    
C53   H27   S    
C21   C22   A    
C4    H8    S    
C42   O9    S    
C64   H59   S    
C38   C54   S    
O12   C56   S    
C50   H19   S    
C59   H44   S    
C18   H3    S    
O14   C58   S    
C48   H17   S    
C38   C39   A    
C63   H56   S    
C40   N1    A    
C49   H13   S    
C34   C43   S    
C36   C40   A    
C10   H9    S    
C24   C25   A    
C1    O1    A    
Cu1   O5    S    
C12   O4    A    
C9    O18   S    
C52   H21   S    
C16   C17   A    
C15   C26   A    
C20   C28   A    
C51   C52   S    
C3    C45   A    
C50   H18   S    
C29   O12   S    
C16   O10   S    
C47   H12   S    
C35   C39   A    
C43   C44   A    
C37   C38   A    
C61   H48   S    
C56   H35   S    
C15   C27   A    
Cu1   Cu2   S    
C7    C13   A    
O15   C59   S    
C58   H42   S    
C30   N2    A    
C65   H62   S    
C17   C18   A    
C13   O16   S    
C40   O13   S    
C60   H50   S    
C56   H36   S    
C63   H55   S    
C57   H39   S    
C31   O15   S    
C54   H33   S    
C3    C60   S    
C23   O5    A    
C53   H28   S    
C55   H30   S    
C27   O19   S    
C61   H46   S    
Cu2   O6    S    
C64   H58   S    
C51   H24   S    
C42   C43   A    
C3    C4    A    
C50   H20   S    
C59   H43   S    
Cu2   N2    S    
O19   C65   S    
C56   H34   S    
C6    C46   A    
C29   C41   A    
C31   C32   A    
C44   C45   A    
O10   C50   S    
Cu2   O4    S    
C52   H23   S    
C1    O2    A    
C34   O8    A    
C11   C12   S    
C6    C7    A    
C55   H31   S    
C63   H54   S    
C32   C33   A    
C23   O6    A    
C25   H4    S    
C5    C10   A    
O18   C64   S    
Cu1   N1    S    
C11   C13   A    
C14   C22   A    
Cu2   O2    S    
C30   C31   A    
C2    C42   A    
C62   H53   S    
O11   C53   S    
C33   C35   A    
C60   H49   S    
C22   C24   A    
Cu2   O8    S    
C47   H10   S    
C57   H38   S    
C10   C11   A    
C4    C5    A    
C41   O11   S    
C62   H52   S    
C55   H29   S    
C29   C37   A    
C61   H47   S    
C64   H57   S    
O17   C63   S    
C32   O14   S    
O13   C57   S    
C2    C9    A    
O16   C62   S    
C60   C61   S    
C19   C21   A    
