data_mof_unit_56631.cif
_audit_creation_date              2012-12-11T17:07:48-0500
_audit_creation_method            fapswitch 2.2
_symmetry_space_group_name_H-M    P1
_symmetry_Int_Tables_number       1
_space_group_crystal_system       triclinic
_cell_length_a                    17.321632
_cell_length_b                    17.322076
_cell_length_c                    17.384497
_cell_angle_alpha                 90.000266
_cell_angle_beta                  89.999864
_cell_angle_gamma                 90.000086
_cell_volume                      5216.15966858

loop_
_atom_site_label
_atom_site_type_symbol
_atom_type_description
_atom_site_fract_x
_atom_site_fract_y
_atom_site_fract_z
_atom_type_partial_charge
C1    C     C_R   0.393964 0.301672 0.902745 0.470007
C2    C     C_R   0.198330 0.893965 0.402745 0.470149
C3    C     C_R   0.789966 0.859615 0.187160 0.333962
C4    C     C_R   0.140374 0.210055 0.812828 0.334002
C5    C     C_R   0.314175 0.755563 0.635413 0.359573
C6    C     C_R   0.859647 0.789896 0.812804 0.333896
C7    C     C_R   0.685863 0.244515 0.635373 0.359819
C8    C     C_R   0.640376 0.289956 0.687163 0.333768
C9    C     C_R   0.814162 0.744461 0.864599 0.359654
C10   C     C_R   0.359659 0.710129 0.687209 0.334131
C11   C     C_R   0.185858 0.255500 0.864617 0.359747
C12   C     C_R   0.744524 0.814127 0.135373 0.359708
C13   C     C_R   0.077367 0.168013 0.355570 0.514827
C14   C     C_R   0.710031 0.359612 0.312841 0.333931
C15   C     C_R   0.255500 0.185861 0.135381 0.359756
C16   C     C_R   0.289937 0.640375 0.312823 0.333940
C17   C     C_R   0.801671 0.106033 0.402739 0.470234
C18   C     C_R   0.893964 0.198327 0.597260 0.470265
C19   C     C_R   0.168016 0.077368 0.644429 0.514736
C20   C     C_R   0.106042 0.801670 0.597239 0.469921
C21   C     C_R   0.831988 0.922632 0.644432 0.515064
C22   C     C_3   0.865598 0.282436 0.752342 0.237660
C23   C     C_3   0.684125 0.823487 0.688814 0.227698
C24   C     C_3   0.134338 0.717301 0.752145 0.238142
C25   C     C_R   0.668016 0.422631 0.855570 0.514925
C26   C     C_3   0.315854 0.176583 0.688755 0.227912
C27   C     C_3   0.823294 0.684189 0.311323 0.227686
C28   C     C_3   0.717582 0.134388 0.247633 0.237622
C29   C     C_3   0.176607 0.315827 0.311253 0.227701
C30   C     C_3   0.282530 0.865633 0.247720 0.237631
C31   C     C_3   0.323408 0.815852 0.188757 0.227781
C32   C     C_3   0.217482 0.365616 0.252297 0.238311
C33   C     C_3   0.676705 0.184179 0.188674 0.227729
C34   C     C_3   0.782414 0.634397 0.252368 0.237756
C35   C     C_3   0.365633 0.217481 0.747702 0.238647
C36   C     C_R   0.606039 0.698329 0.902751 0.470107
C37   C     C_3   0.184104 0.676417 0.811110 0.227903
C38   C     C_3   0.634348 0.782606 0.747777 0.237848
C39   C     C_3   0.815805 0.323311 0.811300 0.227676
C40   C     C_R   0.420459 0.670991 0.856107 -0.152518
C41   C     C_R   0.302308 0.390133 0.901974 -0.086669
C42   C     C_R   0.579530 0.329021 0.856098 -0.152333
C43   C     C_R   0.697692 0.609862 0.901969 -0.086877
C44   C     C_R   0.390136 0.302311 0.098034 -0.086857
C45   C     C_R   0.329016 0.579537 0.143899 -0.152449
C46   C     C_R   0.609866 0.697690 0.098029 -0.086876
C47   C     C_R   0.331988 0.577368 0.855568 0.515094
C48   C     C_R   0.670978 0.420468 0.143903 -0.152333
C49   C     C_R   0.890133 0.197690 0.401971 -0.086889
C50   C     C_R   0.829023 0.920469 0.356096 -0.152324
C51   C     C_R   0.109864 0.802311 0.401967 -0.086833
C52   C     C_R   0.170982 0.079533 0.356100 -0.152523
C53   C     C_R   0.920465 0.829015 0.643898 -0.152504
C54   C     C_R   0.802308 0.109865 0.598027 -0.086878
C55   C     C_R   0.079537 0.170983 0.643900 -0.152488
C56   C     C_R   0.197693 0.890137 0.598026 -0.086744
C57   C     C_R   0.317518 0.313440 0.887851 0.026453
C58   C     C_R   0.422632 0.668016 0.144428 0.515037
C59   C     C_R   0.638249 0.362094 0.813016 0.058214
C60   C     C_R   0.682487 0.686558 0.887854 0.026411
C61   C     C_R   0.361740 0.637917 0.813022 0.058216
C62   C     C_R   0.362090 0.638257 0.186980 0.058248
C63   C     C_R   0.686561 0.682479 0.112151 0.026485
C64   C     C_R   0.637906 0.361746 0.186982 0.058210
C65   C     C_R   0.313440 0.317520 0.112156 0.026451
C66   C     C_R   0.862097 0.861749 0.313016 0.058213
C67   C     C_R   0.186561 0.817519 0.387850 0.026430
C68   C     C_R   0.137907 0.138252 0.313017 0.058257
C69   C     C_R   0.698329 0.606033 0.097261 0.470233
C70   C     C_R   0.813439 0.182479 0.387850 0.026510
C71   C     C_R   0.817517 0.186558 0.612150 0.026484
C72   C     C_R   0.138257 0.137908 0.686982 0.058257
C73   C     C_R   0.182491 0.813438 0.612137 0.026384
C74   C     C_R   0.861746 0.862088 0.686981 0.058225
C75   C     C_R   0.757945 0.333087 0.748040 -0.102900
C76   C     C_R   0.698379 0.795790 0.804858 0.123600
C77   C     C_R   0.242064 0.666783 0.747904 -0.103253
C78   C     C_R   0.301634 0.204256 0.804803 0.123251
C79   C     C_R   0.795704 0.698358 0.195248 0.123528
C80   C     C_R   0.577369 0.331981 0.144426 0.514916
C81   C     C_R   0.666919 0.242040 0.251943 -0.102877
C82   C     C_R   0.204255 0.301626 0.195201 0.123403
C83   C     C_R   0.333133 0.757953 0.252000 -0.102970
C84   C     C_R   0.295754 0.801632 0.304811 0.123663
C85   C     C_R   0.166877 0.257942 0.248008 -0.102982
C86   C     C_R   0.704297 0.198355 0.304750 0.123529
C87   C     C_R   0.833083 0.742045 0.248053 -0.102882
C88   C     C_R   0.257954 0.166869 0.752000 -0.103067
C89   C     C_R   0.198393 0.704170 0.695087 0.123642
C90   C     C_R   0.742056 0.833173 0.752046 -0.103025
C91   C     C_R   0.301671 0.393966 0.097260 0.470103
C92   C     C_R   0.801630 0.295707 0.695235 0.123555
C93   C     C_R   0.677971 0.327972 0.748241 -0.023574
C94   C     C_R   0.732837 0.744849 0.856162 -0.055281
C95   C     C_R   0.322039 0.672005 0.748208 -0.023660
C96   C     C_R   0.267176 0.255158 0.856139 -0.055282
C97   C     C_R   0.744839 0.732814 0.143875 -0.055364
C98   C     C_R   0.672028 0.322018 0.251753 -0.023657
C99   C     C_R   0.255155 0.267176 0.143861 -0.055310
C100  C     C_R   0.327981 0.677977 0.251766 -0.023670
C101  C     C_R   0.244847 0.767177 0.356144 -0.055386
C102  C     C_R   0.922633 0.831984 0.355572 0.514879
C103  C     C_R   0.172020 0.177971 0.248233 -0.023631
C104  C     C_R   0.755160 0.232813 0.356124 -0.055345
C105  C     C_R   0.827974 0.822021 0.248244 -0.023646
C106  C     C_R   0.177977 0.172016 0.751768 -0.023626
C107  C     C_R   0.232848 0.755144 0.643817 -0.055292
C108  C     C_R   0.822035 0.827986 0.751779 -0.023637
C109  C     C_R   0.767177 0.244836 0.643871 -0.055322
C110  C     C_R   0.244496 0.685859 0.364615 0.359701
C111  C     C_R   0.210060 0.140373 0.187170 0.333927
C112  C     C_R   0.755474 0.314126 0.364629 0.359740
H1    H     H_    0.877856 0.220433 0.764377 0.099074
H2    H     H_    0.279478 0.377901 0.264352 0.099138
H3    H     H_    0.621531 0.159952 0.166394 0.151318
H4    H     H_    0.720403 0.622155 0.264401 0.099089
H5    H     H_    0.377902 0.279480 0.735629 0.099168
H6    H     H_    0.159908 0.621185 0.833282 0.151293
H7    H     H_    0.622039 0.720613 0.735696 0.099085
H8    H     H_    0.840023 0.378483 0.833576 0.151326
H9    H     H_    0.454896 0.720468 0.840415 0.198442
H10   H     H_    0.245507 0.415188 0.907591 0.230130
H11   H     H_    0.545087 0.279552 0.840398 0.198306
H12   H     H_    0.659917 0.878699 0.666602 0.151320
H13   H     H_    0.754490 0.584803 0.907584 0.230179
H14   H     H_    0.415190 0.245512 0.092416 0.230189
H15   H     H_    0.279539 0.545100 0.159597 0.198370
H16   H     H_    0.584814 0.754490 0.092414 0.230153
H17   H     H_    0.720449 0.454909 0.159607 0.198423
H18   H     H_    0.915186 0.254491 0.407587 0.230139
H19   H     H_    0.779550 0.954908 0.340395 0.198422
H20   H     H_    0.084809 0.745511 0.407582 0.230195
H21   H     H_    0.220454 0.045094 0.340401 0.198387
H22   H     H_    0.954910 0.779545 0.659594 0.198288
H23   H     H_    0.122000 0.779280 0.764244 0.099056
H24   H     H_    0.745506 0.084812 0.592409 0.230152
H25   H     H_    0.045101 0.220458 0.659598 0.198456
H26   H     H_    0.254489 0.915198 0.592408 0.230168
H27   H     H_    0.474827 0.240033 0.947084 0.315332
H28   H     H_    0.727436 0.474096 0.777412 0.317899
H29   H     H_    0.525181 0.759968 0.947103 0.315324
H30   H     H_    0.272661 0.525848 0.777363 0.317859
H31   H     H_    0.474131 0.727401 0.222596 0.317895
H32   H     H_    0.759974 0.525171 0.052932 0.315303
H33   H     H_    0.525902 0.272546 0.222575 0.317913
H34   H     H_    0.340069 0.121373 0.666542 0.151032
H35   H     H_    0.240029 0.474824 0.052924 0.315298
H36   H     H_    0.974099 0.772549 0.277418 0.317908
H37   H     H_    0.259970 0.974826 0.447083 0.315282
H38   H     H_    0.025880 0.227403 0.277402 0.317912
H39   H     H_    0.740026 0.025170 0.447069 0.315291
H40   H     H_    0.974826 0.259969 0.552923 0.315275
H41   H     H_    0.227403 0.025873 0.722597 0.317930
H42   H     H_    0.025176 0.740041 0.552887 0.315327
H43   H     H_    0.772634 0.974152 0.722611 0.317885
H44   H     H_    0.967864 0.318602 0.776425 0.335664
H45   H     H_    0.878467 0.659964 0.333603 0.151266
H46   H     H_    0.668398 0.769620 0.593253 0.327784
H47   H     H_    0.031999 0.681146 0.775989 0.335621
H48   H     H_    0.331299 0.229965 0.592879 0.327845
H49   H     H_    0.769347 0.668608 0.406852 0.327795
H50   H     H_    0.681428 0.032112 0.223533 0.335629
H51   H     H_    0.230248 0.331368 0.406950 0.327849
H52   H     H_    0.318699 0.967925 0.223718 0.335643
H53   H     H_    0.269411 0.831563 0.093277 0.327816
H54   H     H_    0.181337 0.467910 0.276304 0.335642
H55   H     H_    0.730734 0.168563 0.093194 0.327807
H56   H     H_    0.779593 0.122141 0.235600 0.099063
H57   H     H_    0.818559 0.532123 0.276476 0.335636
H58   H     H_    0.467990 0.181440 0.723765 0.335752
H59   H     H_    0.168374 0.730076 0.906781 0.327810
H60   H     H_    0.532059 0.818833 0.723801 0.335562
H61   H     H_    0.831431 0.269303 0.906776 0.327802
H62   H     H_    0.182373 0.600742 0.402815 0.326004
H63   H     H_    0.211289 0.046315 0.126715 0.323965
H64   H     H_    0.817514 0.399261 0.402916 0.326028
H65   H     H_    0.788762 0.953654 0.126684 0.323985
H66   H     H_    0.046315 0.211287 0.873277 0.323945
H67   H     H_    0.121410 0.340031 0.333493 0.151186
H68   H     H_    0.399224 0.817883 0.597406 0.325933
H69   H     H_    0.953751 0.788510 0.873181 0.324086
H70   H     H_    0.600713 0.182502 0.597069 0.326050
H71   H     H_    0.546338 0.288800 0.626689 0.324029
H72   H     H_    0.899234 0.682241 0.902705 0.326010
H73   H     H_    0.453798 0.711618 0.626872 0.324033
H74   H     H_    0.100727 0.317588 0.902845 0.326014
H75   H     H_    0.682451 0.899247 0.097115 0.326014
H76   H     H_    0.711198 0.453644 0.373329 0.323975
H77   H     H_    0.317592 0.100732 0.097148 0.326001
H78   H     H_    0.220532 0.877919 0.235662 0.099035
H79   H     H_    0.288676 0.546310 0.373265 0.324028
H80   H     H_    0.378604 0.840065 0.166517 0.151383
N1    N     N_R   0.425360 0.368540 0.922560 -0.127019
N2    N     N_R   0.131460 0.925360 0.422560 -0.127015
N3    N     N_R   0.074640 0.131460 0.422560 -0.074592
N4    N     N_R   0.868540 0.074640 0.422560 -0.127042
N5    N     N_R   0.925360 0.131460 0.577440 -0.127026
N6    N     N_R   0.131460 0.074640 0.577440 -0.074608
N7    N     N_R   0.074640 0.868540 0.577440 -0.126986
N8    N     N_R   0.868540 0.925360 0.577440 -0.074586
N9    N     N_R   0.425340 0.631500 0.922560 -0.093369
N10   N     N_R   0.368500 0.425340 0.922560 -0.084111
N11   N     N_R   0.574660 0.368500 0.922560 -0.093351
N12   N     N_R   0.631460 0.425360 0.922560 -0.074571
N13   N     N_R   0.631500 0.574660 0.922560 -0.084128
N14   N     N_R   0.425340 0.368500 0.077440 -0.084136
N15   N     N_R   0.368500 0.574660 0.077440 -0.093369
N16   N     N_R   0.574660 0.631500 0.077440 -0.084127
N17   N     N_R   0.631500 0.425340 0.077440 -0.093364
N18   N     N_R   0.925340 0.131500 0.422560 -0.084109
N19   N     N_R   0.868500 0.925340 0.422560 -0.093365
N20   N     N_R   0.074660 0.868500 0.422560 -0.084126
N21   N     N_R   0.131500 0.074660 0.422560 -0.093379
N22   N     N_R   0.925340 0.868500 0.577440 -0.093352
N23   N     N_R   0.574640 0.631460 0.922560 -0.127008
N24   N     N_R   0.868500 0.074660 0.577440 -0.084123
N25   N     N_R   0.074660 0.131500 0.577440 -0.093377
N26   N     N_R   0.131500 0.925340 0.577440 -0.084092
N27   N     N_R   0.368540 0.574640 0.922560 -0.074612
N28   N     N_R   0.425360 0.631460 0.077440 -0.074584
N29   N     N_R   0.631460 0.574640 0.077440 -0.127047
N30   N     N_R   0.574640 0.368540 0.077440 -0.074572
N31   N     N_R   0.368540 0.425360 0.077440 -0.127022
N32   N     N_R   0.925360 0.868540 0.422560 -0.074577
Ni1   Ni    Ni4+2 0.500000 0.369720 0.000000 0.231218
Ni2   Ni    Ni4+2 0.630280 0.500000 0.000000 0.231204
Ni3   Ni    Ni4+2 0.500000 0.630280 0.000000 0.231191
Ni4   Ni    Ni4+2 0.369720 0.500000 0.000000 0.231162
Ni5   Ni    Ni4+2 0.000000 0.869720 0.500000 0.231208
Ni6   Ni    Ni4+2 0.130280 0.000000 0.500000 0.231094
Ni7   Ni    Ni4+2 0.000000 0.130280 0.500000 0.231122
Ni8   Ni    Ni4+2 0.869720 0.000000 0.500000 0.231206
O1    O     O_3   0.424833 0.230770 0.920985 -0.681946
O2    O     O_3   0.269233 0.924834 0.420984 -0.681942
O3    O     O_3   0.027729 0.225897 0.334333 -0.802953
O4    O     O_3   0.730764 0.075158 0.420958 -0.681961
O5    O     O_3   0.924836 0.269230 0.579034 -0.681963
O6    O     O_3   0.225901 0.027728 0.665667 -0.802983
O7    O     O_3   0.075178 0.730772 0.578972 -0.681879
O8    O     O_3   0.774117 0.972287 0.665681 -0.802955
O9    O     O_3   0.931215 0.325626 0.733183 -0.684867
O10   O     O_3   0.710753 0.773167 0.631505 -0.735723
O11   O     O_3   0.068789 0.674052 0.732866 -0.684846
O12   O     O_3   0.725916 0.472254 0.834342 -0.802938
O13   O     O_3   0.289195 0.226904 0.631469 -0.735832
O14   O     O_3   0.772955 0.710916 0.368558 -0.735726
O15   O     O_3   0.674394 0.068760 0.266786 -0.684810
O16   O     O_3   0.226939 0.289163 0.368515 -0.735884
O17   O     O_3   0.325744 0.931228 0.266924 -0.684799
O18   O     O_3   0.273085 0.789188 0.131476 -0.735775
O19   O     O_3   0.174269 0.431209 0.233106 -0.684915
O20   O     O_3   0.727045 0.210902 0.131433 -0.735758
O21   O     O_3   0.825596 0.568765 0.233219 -0.684832
O22   O     O_3   0.431241 0.174282 0.766907 -0.685035
O23   O     O_3   0.575173 0.769229 0.921002 -0.681925
O24   O     O_3   0.210677 0.726721 0.868449 -0.735750
O25   O     O_3   0.568765 0.825837 0.767015 -0.684724
O26   O     O_3   0.789091 0.272979 0.868536 -0.735789
O27   O     O_3   0.196916 0.653400 0.419485 -0.727414
O28   O     O_3   0.203356 0.061240 0.181102 -0.776079
O29   O     O_3   0.803020 0.346580 0.419532 -0.727471
O30   O     O_3   0.796709 0.938744 0.181066 -0.776047
O31   O     O_3   0.061241 0.203343 0.818895 -0.776062
O32   O     O_3   0.346648 0.803201 0.580602 -0.727488
O33   O     O_3   0.938793 0.796543 0.818826 -0.776187
O34   O     O_3   0.274138 0.527695 0.834306 -0.802940
O35   O     O_3   0.653413 0.196961 0.580477 -0.727489
O36   O     O_3   0.561245 0.296680 0.681083 -0.776149
O37   O     O_3   0.846628 0.696851 0.919438 -0.727526
O38   O     O_3   0.438810 0.703510 0.681212 -0.776120
O39   O     O_3   0.153398 0.303076 0.919490 -0.727492
O40   O     O_3   0.696974 0.846581 0.080474 -0.727446
O41   O     O_3   0.703283 0.438740 0.318939 -0.776029
O42   O     O_3   0.303074 0.153408 0.080503 -0.727433
O43   O     O_3   0.296642 0.561241 0.318886 -0.776055
O44   O     O_3   0.472273 0.725899 0.165665 -0.802942
O45   O     O_3   0.769235 0.575159 0.079041 -0.681957
O46   O     O_3   0.527752 0.274069 0.165646 -0.802910
O47   O     O_3   0.230767 0.424835 0.079027 -0.681969
O48   O     O_3   0.972252 0.774076 0.334350 -0.802914

loop_
_geom_bond_atom_site_label_1
_geom_bond_atom_site_label_2
_ccdc_geom_bond_type
C11   C96   A    
C58   C62   A    
H77   O42   S    
C67   C101  S    
C53   N22   A    
N17   N30   A    
C43   N13   A    
C82   C99   A    
N2    Ni6   S    
C53   C74   A    
C68   C103  S    
H48   O13   S    
N11   N12   A    
C25   N12   A    
C86   C104  A    
C24   C89   S    
C43   H13   S    
C6    C9    A    
C56   N26   A    
C42   N11   A    
C102  N32   A    
C7    C8    A    
C55   N25   A    
C20   O7    S    
C38   C76   S    
C3    C105  A    
C54   N24   A    
C40   H9    S    
H55   O20   S    
C32   O19   S    
C44   H14   S    
N15   N28   A    
C56   H26   S    
H41   O6    S    
C34   O21   S    
H72   O37   S    
H33   O46   S    
C46   H16   S    
C29   C32   S    
H66   O31   S    
C4    O31   S    
C36   N23   A    
C28   C33   S    
C30   C31   S    
H68   O32   S    
C70   C104  S    
C92   C109  A    
C48   C64   A    
C81   C98   A    
C54   C71   A    
C34   H4    S    
C39   H8    S    
C30   C84   S    
C71   C109  S    
C45   C62   A    
C31   C83   S    
C24   O11   S    
C103  C111  A    
H46   O10   S    
H47   O11   S    
H50   O15   S    
C26   H34   S    
C66   C102  A    
N26   Ni6   S    
C3    C12   A    
C76   C94   A    
C33   C81   S    
C58   N28   A    
C51   N20   A    
C2    O2    S    
C22   H1    S    
C5    C10   A    
C37   H6    S    
N4    Ni8   S    
C1    O1    S    
C40   N9    A    
C57   C96   S    
C49   N18   A    
H27   O1    S    
C5    O32   S    
N8    N22   A    
N18   Ni7   S    
H32   O45   S    
N6    Ni6   S    
C39   C75   S    
N27   Ni4   S    
C18   N5    A    
C29   C85   S    
C81   C86   A    
C52   C68   A    
C18   O5    S    
C8    O36   S    
C112  O29   S    
C13   O3    S    
N4    N18   A    
C37   O24   S    
C64   C98   S    
N13   N23   A    
C14   C112  A    
C54   H24   S    
C17   C70   A    
C45   N15   A    
C79   C87   A    
C80   O46   S    
C52   H21   S    
C64   C80   A    
C73   C107  S    
H51   O16   S    
N7    N26   A    
N14   Ni1   S    
C16   O43   S    
H74   O39   S    
H79   O43   S    
C90   C108  A    
C42   H11   S    
C14   C98   A    
N5    Ni7   S    
C27   C34   S    
C58   O44   S    
C33   H3    S    
C36   O23   S    
N19   Ni8   S    
C53   H22   S    
C83   C84   A    
C16   C110  A    
H53   O18   S    
H29   O23   S    
C63   C69   A    
N3    Ni7   S    
C19   C72   A    
N1    Ni1   S    
C65   C99   S    
C2    C67   A    
H44   O9    S    
C19   O6    S    
C78   C96   A    
H62   O27   S    
C104  C112  A    
H58   O22   S    
N31   Ni4   S    
C16   C100  A    
N10   Ni4   S    
N30   Ni1   S    
N16   N29   A    
C20   C73   A    
C47   N27   A    
C31   H80   S    
C77   C95   A    
N1    N10   A    
H36   O48   S    
C31   O18   S    
C2    N2    A    
C28   O15   S    
C41   H10   S    
H59   O24   S    
C15   O42   S    
C1    N1    A    
H65   O30   S    
C20   N7    A    
C47   C61   A    
C46   N16   A    
C39   O26   S    
C1    C57   A    
C34   C79   S    
C35   O22   S    
H57   O21   S    
C88   C106  A    
N15   Ni4   S    
C55   C72   A    
H70   O35   S    
C87   C105  A    
N14   N31   A    
C3    O30   S    
C69   O45   S    
C89   C107  A    
C6    O33   S    
C61   C95   S    
C24   C37   S    
C23   C90   S    
C84   C101  A    
N13   Ni2   S    
C51   C67   A    
C91   O47   S    
C4    C11   A    
C7    O35   S    
C50   C66   A    
N9    N27   A    
C12   C97   A    
N5    N24   A    
H73   O38   S    
C41   N10   A    
C4    C106  A    
H69   O33   S    
C38   H7    S    
C43   C60   A    
C24   H23   S    
H49   O14   S    
C72   C106  S    
H75   O40   S    
C22   C39   S    
C49   C70   A    
C28   C86   S    
H31   O44   S    
C29   O16   S    
C62   C100  S    
C48   H17   S    
C27   O14   S    
N6    N25   A    
C13   N3    A    
N17   Ni2   S    
C66   C105  S    
C91   N31   A    
C21   C74   A    
C38   O25   S    
C75   C92   A    
C111  O28   S    
N11   Ni1   S    
C33   O20   S    
C75   C93   A    
C80   N30   A    
N9    Ni3   S    
C5    C107  A    
C17   O4    S    
C78   C88   A    
C18   C71   A    
C65   C91   A    
H40   O5    S    
C9    O37   S    
C13   C68   A    
C19   N6    A    
C6    C108  A    
C56   C73   A    
C35   C78   S    
C77   C89   A    
C11   O39   S    
C79   C97   A    
C8    C93   A    
H30   O34   S    
C102  O48   S    
C36   C60   A    
C85   C103  A    
C42   C59   A    
H43   O8    S    
H35   O47   S    
C51   H20   S    
N29   Ni2   S    
C23   H12   S    
H76   O41   S    
C47   O34   S    
C27   H45   S    
C82   C85   A    
C32   C82   S    
C44   N14   A    
H63   O28   S    
C28   H56   S    
H37   O2    S    
C55   H25   S    
C23   C38   S    
C32   H2    S    
C46   C63   A    
C83   C100  A    
C25   O12   S    
C59   C93   S    
C25   C59   A    
C12   O40   S    
H52   O17   S    
C101  C110  A    
C41   C57   A    
C110  O27   S    
N16   Ni3   S    
N32   Ni5   S    
C27   C87   S    
C29   H67   S    
C15   C99   A    
N20   Ni5   S    
C14   O41   S    
C40   C61   A    
C37   C77   S    
C10   C95   A    
C45   H15   S    
C30   O17   S    
N19   N32   A    
H39   O4    S    
H42   O7    S    
C44   C65   A    
C52   N21   A    
N24   Ni8   S    
C50   N19   A    
N23   Ni3   S    
C30   H78   S    
N7    Ni5   S    
H54   O19   S    
N3    N21   A    
N2    N20   A    
C35   H5    S    
C50   H19   S    
H71   O36   S    
C26   O13   S    
C74   C108  S    
C26   C88   S    
C7    C109  A    
H64   O29   S    
H61   O26   S    
C21   O8    S    
N8    Ni8   S    
C48   N17   A    
N28   Ni3   S    
C63   C97   S    
C10   O38   S    
C26   C35   S    
C22   C92   S    
C17   N4    A    
C23   O10   S    
C21   N8    A    
C69   N29   A    
H28   O12   S    
H60   O25   S    
N22   Ni5   S    
N12   Ni2   S    
C9    C94   A    
C49   H18   S    
C22   O9    S    
N25   Ni7   S    
N21   Ni6   S    
H38   O3    S    
C76   C90   A    
C15   C111  A    
C60   C94   S    
