data_mof_unit_21746.cif
_audit_creation_date              2012-12-10T17:47:12-0500
_audit_creation_method            fapswitch 2.2
_symmetry_space_group_name_H-M    P1
_symmetry_Int_Tables_number       1
_space_group_crystal_system       triclinic
_cell_length_a                    11.714579
_cell_length_b                    14.736558
_cell_length_c                    15.195618
_cell_angle_alpha                 64.359389
_cell_angle_beta                  104.152795
_cell_angle_gamma                 104.128161
_cell_volume                      2264.27828769

loop_
_atom_site_label
_atom_site_type_symbol
_atom_type_description
_atom_site_fract_x
_atom_site_fract_y
_atom_site_fract_z
_atom_type_partial_charge
C1    C     C_R   0.486151 0.121643 0.313210 0.802411
C2    C     C_R   0.524516 0.879514 0.686428 0.804100
C3    C     C_R   0.490671 0.320923 0.005622 0.014987
C4    C     C_R   0.625029 0.682954 0.988660 0.011813
C5    C     C_R   0.584778 0.471013 0.042925 0.056737
C6    C     C_R   0.552364 0.535558 0.943968 0.052328
C7    C     C_R   0.481523 0.492532 0.878390 -0.277745
C8    C     C_R   0.669870 0.515368 0.102134 -0.271393
C9    C     C_R   0.454323 0.387070 0.906317 -0.106969
C10   C     C_R   0.686651 0.620336 0.079018 -0.045170
C11   C     C_R   0.692613 0.288487 0.666745 -0.339127
C12   C     C_R   0.291698 0.704239 0.344763 -0.309315
C13   C     C_R   0.676479 0.214146 0.629483 0.343621
C14   C     C_R   0.323186 0.788300 0.370275 0.362258
C15   C     C_R   0.501957 0.276157 0.521526 -0.047089
C16   C     C_R   0.490251 0.718256 0.483408 -0.044922
C17   C     C_R   0.529557 0.363899 0.544971 0.000769
C18   C     C_R   0.453382 0.626521 0.466325 -0.016409
C19   C     C_R   0.624322 0.365517 0.622198 0.144787
C20   C     C_R   0.354305 0.623259 0.392854 0.126040
C21   C     C_R   0.469863 0.450779 0.493776 0.110281
C22   C     C_R   0.509859 0.538052 0.519429 0.107070
C23   C     C_R   0.283872 0.999430 0.499686 0.822228
C24   C     C_R   0.715984 0.001303 0.499189 0.804606
C25   C     C_R   0.602661 0.532940 0.599130 -0.199509
C26   C     C_R   0.373765 0.454486 0.416498 -0.216890
C27   C     C_R   0.657130 0.447515 0.650616 -0.158186
C28   C     C_R   0.316477 0.538840 0.367870 -0.184548
C29   C     C_1   0.161693 0.998568 0.499196 -0.185168
C30   C     C_1   0.838118 0.002173 0.499577 -0.192594
C31   C     C_1   0.059484 0.999427 0.499250 0.000414
C32   C     C_1   0.940283 0.001204 0.499532 0.005713
C33   C     C_R   0.494818 0.193797 0.208430 -0.114224
C34   C     C_R   0.554754 0.810346 0.790810 -0.102577
C35   C     C_R   0.479245 0.213329 0.037766 0.141071
C36   C     C_R   0.604906 0.783100 0.965349 0.186725
C37   C     C_R   0.480392 0.152087 0.138557 -0.274896
C38   C     C_R   0.562141 0.842722 0.866562 -0.264417
C39   C     C_R   0.525965 0.302280 0.178163 0.088764
C40   C     C_R   0.579349 0.711774 0.816473 0.111537
C41   C     C_R   0.538349 0.364454 0.077007 0.026921
C42   C     C_R   0.583418 0.642775 0.915376 0.014396
Cu1   Cu    Cu3+1 0.469550 0.918260 0.475690 0.935709
Cu2   Cu    Cu3+1 0.530450 0.081740 0.524310 0.933782
H1    H     H_    0.635915 0.594111 0.623500 0.125087
H2    H     H_    0.339467 0.392788 0.392427 0.126490
H3    H     H_    0.537940 0.915917 0.848360 0.166557
H4    H     H_    0.468132 0.070033 0.162768 0.164339
H5    H     H_    0.444101 0.541216 0.804958 0.166695
H6    H     H_    0.727189 0.469176 0.163402 0.194934
H7    H     H_    0.729517 0.447599 0.710808 0.135103
H8    H     H_    0.241091 0.537770 0.310124 0.143224
H9    H     H_    0.572232 0.730615 0.529933 0.137784
H10   H     H_    0.425882 0.265831 0.468484 0.137379
H11   H     H_    0.767247 0.292497 0.724366 0.147560
H12   H     H_    0.214977 0.700846 0.288558 0.151636
N1    N     N_R   0.576230 0.204580 0.560790 -0.196314
N2    N     N_R   0.423770 0.795420 0.439210 -0.189697
O1    O     O_R   0.459870 0.022090 0.338120 -0.610420
O2    O     O_R   0.540130 0.977910 0.661880 -0.572959
O3    O     O_R   0.511290 0.160150 0.379180 -0.578838
O4    O     O_R   0.488710 0.839850 0.620820 -0.574655
O5    O     O_R   0.311490 0.930960 0.479480 -0.580463
O6    O     O_R   0.688510 0.069040 0.520520 -0.585898
O7    O     O_R   0.362910 0.069020 0.520540 -0.573037
O8    O     O_R   0.637090 0.930980 0.479460 -0.571747
C43   C     C_2   0.369336 0.351492 0.833538 0.867118
O9    O     O_2   0.392512 0.379411 0.750726 -0.551595
O10   O     O_R   0.259872 0.290562 0.856305 -0.745975
H13   H     H_    0.247162 0.275602 0.925188 0.288183
C44   C     C_2   0.784482 0.662250 0.140520 0.831318
O11   O     O_2   0.846833 0.743733 0.101696 -0.603034
O12   O     O_R   0.809126 0.606395 0.242415 -0.794301
H14   H     H_    0.878945 0.642335 0.275979 0.329939
C45   C     C_3   0.627993 0.685865 0.747475 -0.404484
C46   C     C_3   0.742748 0.757189 0.715220 -0.801559
H15   H     H_    0.729196 0.837631 0.677274 0.237365
H16   H     H_    0.774108 0.736839 0.663801 0.230354
H17   H     H_    0.813280 0.749557 0.780801 0.254489
H18   H     H_    0.653168 0.608495 0.784465 0.210094
H19   H     H_    0.558411 0.684255 0.684527 0.213912
C47   C     C_3   0.524152 0.353493 0.246767 -0.359532
C48   C     C_3   0.642475 0.357694 0.317936 -0.744283
H20   H     H_    0.632988 0.308920 0.394925 0.262805
H21   H     H_    0.712960 0.331685 0.301244 0.234009
H22   H     H_    0.673216 0.436045 0.315245 0.264454
H23   H     H_    0.502255 0.431646 0.203705 0.193391
H24   H     H_    0.447401 0.316664 0.287548 0.190879
C49   C     C_3   0.479326 0.160941 0.970456 -0.396053
C50   C     C_3   0.591454 0.200698 0.921833 -0.800734
H25   H     H_    0.597188 0.283082 0.873566 0.264134
H26   H     H_    0.672236 0.188383 0.979318 0.248326
H27   H     H_    0.589374 0.158987 0.875489 0.239235
H28   H     H_    0.477234 0.077498 0.013356 0.194365
H29   H     H_    0.398699 0.167236 0.913837 0.234202
C51   C     C_3   0.605560 0.821766 0.043282 -0.381522
C52   C     C_3   0.691812 0.921480 0.030484 -0.776411
H30   H     H_    0.781962 0.915186 0.024998 0.292914
H31   H     H_    0.658921 0.984908 0.962759 0.225358
H32   H     H_    0.698505 0.940726 0.094791 0.237361
H33   H     H_    0.514240 0.835769 0.036884 0.186720
H34   H     H_    0.625882 0.764528 0.119404 0.202838
C53   C     C_3   0.239405 0.866598 0.317085 -0.376033
C54   C     C_3   0.119151 0.826566 0.354072 -0.812550
H35   H     H_    0.131771 0.802428 0.435440 0.268544
H36   H     H_    0.062700 0.887613 0.318347 0.241846
H37   H     H_    0.071390 0.760666 0.335377 0.242657
H38   H     H_    0.273376 0.940407 0.321304 0.249449
H39   H     H_    0.223848 0.884138 0.236557 0.170264
C55   C     C_3   0.784704 0.161183 0.657857 -0.347835
C56   C     C_3   0.774944 0.055462 0.741921 -0.727387
H40   H     H_    0.706551 0.045119 0.786087 0.240336
H41   H     H_    0.755500 0.995458 0.712699 0.249961
H42   H     H_    0.861519 0.045533 0.792514 0.223435
H43   H     H_    0.815294 0.164762 0.593330 0.212917
H44   H     H_    0.864046 0.207300 0.684852 0.169429

loop_
_geom_bond_atom_site_label_1
_geom_bond_atom_site_label_2
_ccdc_geom_bond_type
C21   C26   A    
C4    C36   A    
C51   H34   S    
C11   C13   A    
O12   H14   S    
C56   H40   S    
C46   H17   S    
Cu1   Cu2   S    
C54   H36   S    
C52   H30   S    
C14   C53   S    
C1    C33   S    
C39   C41   A    
Cu2   O6    S    
C11   C19   A    
C33   C39   A    
C34   C40   A    
C23   C29   S    
C35   C37   A    
C46   H16   S    
C55   H44   S    
C1    O1    A    
C5    C6    A    
C2    O2    A    
C13   N1    A    
C47   H23   S    
C15   C17   A    
C49   H28   S    
C16   H9    S    
Cu1   N2    S    
C55   C56   S    
C48   H20   S    
C22   C25   A    
C53   H38   S    
C56   H42   S    
C19   C27   A    
C45   H18   S    
Cu1   O1    S    
C10   C44   S    
C2    C34   S    
C23   O5    A    
C24   O6    A    
C34   C38   A    
C21   C22   A    
C15   N1    A    
Cu2   O7    S    
C54   H35   S    
C52   H31   S    
C27   H7    S    
C14   N2    A    
Cu1   O5    S    
C43   O9    D    
C15   H10   S    
C46   H15   S    
C7    H5    S    
C44   O12   S    
C45   H19   S    
C20   C28   A    
C33   C37   A    
C43   O10   S    
C49   H29   S    
C45   C46   S    
C9    C43   S    
C13   C55   S    
C3    C9    A    
C36   C51   S    
C50   H26   S    
C31   C32   S    
C3    C35   A    
Cu2   N1    S    
C51   C52   S    
C12   C20   A    
C56   H41   S    
C16   N2    A    
C37   H4    S    
C38   H3    S    
C12   H12   S    
C35   C49   S    
C16   C18   A    
C48   H21   S    
C12   C14   A    
C4    C10   A    
C25   H1    S    
C52   H32   S    
C11   H11   S    
C50   H27   S    
C7    C9    A    
C5    C41   A    
C3    C41   A    
C18   C22   A    
C39   C47   S    
C1    O3    A    
C5    C8    A    
C6    C7    A    
C24   O8    A    
Cu2   O3    S    
C25   C27   A    
C26   C28   A    
C40   C45   S    
C53   H39   S    
C23   O7    A    
C36   C38   A    
C44   O11   D    
C29   C31   T    
C30   C32   T    
C28   H8    S    
C50   H25   S    
C4    C42   A    
Cu2   O2    S    
Cu1   O8    S    
C47   H24   S    
C40   C42   A    
C17   C19   A    
C8    H6    S    
C18   C20   A    
O10   H13   S    
C24   C30   S    
C26   H2    S    
C48   H22   S    
C8    C10   A    
C47   C48   S    
C6    C42   A    
C53   C54   S    
C49   C50   S    
C51   H33   S    
C55   H43   S    
C54   H37   S    
C2    O4    A    
Cu1   O4    S    
C17   C21   A    
