data_mof_unit_25863.cif
_audit_creation_date              2012-12-10T18:09:52-0500
_audit_creation_method            fapswitch 2.2
_symmetry_space_group_name_H-M    P1
_symmetry_Int_Tables_number       1
_space_group_crystal_system       triclinic
_cell_length_a                    10.664502
_cell_length_b                    12.583542
_cell_length_c                    13.104168
_cell_angle_alpha                 82.267443
_cell_angle_beta                  90.393371
_cell_angle_gamma                 102.572609
_cell_volume                      1700.31024895

loop_
_atom_site_label
_atom_site_type_symbol
_atom_type_description
_atom_site_fract_x
_atom_site_fract_y
_atom_site_fract_z
_atom_type_partial_charge
C1    C     C_R   0.480095 0.438647 0.691298 0.864291
C2    C     C_R   0.462830 0.445784 0.973933 0.041539
C3    C     C_R   0.432240 0.466428 0.869717 0.092474
C4    C     C_R   0.742116 0.502187 0.495529 0.902896
C5    C     C_R   0.462718 0.528782 0.036488 0.076695
C6    C     C_R   0.410306 0.621053 0.000366 0.160962
C7    C     C_R   0.361761 0.631072 0.901469 -0.219893
C8    C     C_R   0.372997 0.554933 0.836539 -0.183708
C9    C     C_R   0.516479 0.523580 0.133407 -0.235933
C10   C     C_R   0.448994 0.687841 0.165117 -0.147153
C11   C     C_R   0.463840 0.398857 0.801092 -0.091907
C12   C     C_3   0.121500 0.499989 0.496566 -0.036811
C13   C     C_R   0.322775 0.088097 0.345959 -0.229919
C14   C     C_R   0.651845 0.799521 0.630123 -0.029665
C15   C     C_R   0.683326 0.904347 0.658581 0.373719
C16   C     C_R   0.512944 0.561176 0.308646 0.875948
C17   C     C_R   0.625956 0.986040 0.609141 -0.249656
C18   C     C_R   0.536695 0.962883 0.530449 -0.044090
C19   C     C_R   0.508582 0.854816 0.504123 0.224091
C20   C     C_R   0.474272 0.042041 0.477150 0.019734
C21   C     C_R   0.385593 0.011556 0.399043 0.182907
C22   C     C_R   0.360632 0.905115 0.374401 -0.228033
C23   C     C_3   0.065935 0.467407 0.391605 -0.205784
C24   C     C_R   0.421679 0.828211 0.426056 -0.188686
C25   C     C_R   0.495883 0.150957 0.497849 -0.014847
C26   C     C_R   0.348278 0.194233 0.370388 0.066945
C27   C     C_R   0.258088 0.499392 0.500306 0.850151
C28   C     C_3   0.905496 0.421418 0.585789 -0.527900
C29   C     C_3   0.048445 0.417573 0.587836 0.218012
C30   C     C_3   0.920822 0.469469 0.388385 -0.162024
C31   C     C_3   0.960000 0.619964 0.505338 0.252097
C32   C     C_3   0.879117 0.503164 0.492501 -0.095047
C33   C     C_2   0.140688 0.535860 0.298244 0.377230
C34   C     C_3   0.101947 0.616872 0.509900 -0.442156
C35   C     C_2   0.535619 0.160951 0.982678 0.441094
C36   C     C_2   0.844403 0.359525 0.364325 0.421488
C37   C     C_R   0.405848 0.701046 0.064508 -0.136826
C38   C     C_R   0.501064 0.596851 0.199912 -0.066620
C39   C     C_R   0.496326 0.298823 0.838764 -0.278251
C40   C     C_R   0.505781 0.268574 0.944331 0.038438
C41   C     C_R   0.492094 0.343091 0.011540 -0.158879
Cl1   Cl    Cl    0.794009 0.933207 0.756193 -0.558816
Cl2   Cl    Cl    0.064440 0.277876 0.589014 -0.583071
Cl3   Cl    Cl    0.935061 0.725971 0.405225 -0.545121
H1    H     H_    0.844233 0.338132 0.583298 0.229522
H2    H     H_    0.878454 0.447819 0.658853 0.157938
H3    H     H_    0.333370 0.565318 0.760528 0.162319
H4    H     H_    0.301105 0.254944 0.330078 0.126109
H5    H     H_    0.293558 0.881024 0.314751 0.193749
H6    H     H_    0.255041 0.066089 0.286218 0.168048
H7    H     H_    0.561631 0.182139 0.554987 0.117325
H8    H     H_    0.695533 0.735287 0.668091 0.168210
H9    H     H_    0.653092 0.065963 0.633928 0.171034
H10   H     H_    0.398921 0.748299 0.403080 0.207815
H11   H     H_    0.088564 0.443013 0.661714 0.115685
H12   H     H_    0.158508 0.680286 0.450660 0.260131
H13   H     H_    0.077462 0.382150 0.387657 0.152028
H14   H     H_    0.931944 0.643936 0.579311 0.131694
H15   H     H_    0.138662 0.638916 0.585857 0.150402
H16   H     H_    0.205378 0.500687 0.256247 0.062968
H17   H     H_    0.548646 0.105719 0.928671 0.075989
H18   H     H_    0.846999 0.284574 0.415258 0.119101
H19   H     H_    0.903361 0.532235 0.324726 0.237559
H20   H     H_    0.435736 0.745078 0.216624 0.165894
H21   H     H_    0.317721 0.699042 0.873474 0.158244
H22   H     H_    0.364618 0.771119 0.038234 0.158528
H23   H     H_    0.566998 0.460099 0.160978 0.187213
H24   H     H_    0.517645 0.245585 0.785790 0.154702
H25   H     H_    0.500796 0.318014 0.092859 0.181489
N1    N     N_R   0.433240 0.222190 0.444680 -0.099341
N2    N     N_R   0.566070 0.776970 0.554790 -0.150544
O1    O     O_R   0.468120 0.366740 0.627160 -0.599127
O2    O     O_2   0.545696 0.132416 0.074656 -0.545732
O3    O     O_2   0.779661 0.354105 0.287202 -0.547957
O4    O     O_R   0.510770 0.544830 0.662520 -0.628622
O5    O     O_R   0.663880 0.410950 0.482330 -0.623052
O6    O     O_R   0.706530 0.589040 0.517700 -0.584855
O7    O     O_R   0.489230 0.455170 0.337480 -0.617471
O8    O     O_R   0.531880 0.633260 0.372840 -0.613413
O9    O     O_R   0.293470 0.410960 0.482300 -0.577393
O10   O     O_R   0.336120 0.589050 0.517670 -0.663909
O11   O     O_2   0.132184 0.630558 0.270490 -0.537359
Zn1   Zn    Zn3+2 0.471520 0.381090 0.476390 0.992757
Zn2   Zn    Zn3+2 0.528480 0.618910 0.523610 0.962406

loop_
_geom_bond_atom_site_label_1
_geom_bond_atom_site_label_2
_ccdc_geom_bond_type
C34   H12   S    
C12   C29   S    
C14   N2    A    
C19   N2    A    
C1    C11   S    
C9    H23   S    
C7    C8    A    
C12   C23   S    
C28   H2    S    
C10   C37   A    
C31   H14   S    
C28   C29   S    
O8    Zn2   S    
O4    Zn2   S    
C20   C25   A    
C2    C41   A    
C24   H10   S    
C15   C17   A    
C18   C19   A    
C39   H24   S    
O7    Zn1   S    
C14   H8    S    
C23   C33   S    
C33   O11   D    
C16   O7    A    
C26   H4    S    
C21   C22   A    
C29   Cl2   S    
O9    Zn1   S    
C36   H18   S    
O5    Zn1   S    
C28   H1    S    
C31   C34   S    
C1    O1    A    
C31   Cl3   S    
C12   C27   S    
C1    O4    A    
C23   C30   S    
C28   C32   S    
C3    C8    A    
C39   C40   A    
C29   H11   S    
O6    Zn2   S    
C25   H7    S    
C5    C9    A    
C7    H21   S    
C31   C32   S    
C27   O10   A    
C37   H22   S    
C17   C18   A    
C6    C37   A    
C13   C21   A    
C35   H17   S    
C11   C39   A    
N1    Zn1   S    
C4    C32   S    
C36   O3    D    
C22   H5    S    
C40   C41   A    
C27   O9    A    
C33   H16   S    
C34   H15   S    
C26   N1    A    
C22   C24   A    
C13   C26   A    
C2    C5    A    
C12   C34   S    
C17   H9    S    
O10   Zn2   S    
C41   H25   S    
N2    Zn2   S    
C23   H13   S    
C35   O2    D    
C19   C24   A    
C10   H20   S    
C15   Cl1   S    
C6    C7    A    
C30   C36   S    
C10   C38   A    
C16   O8    A    
C35   C40   S    
C8    H3    S    
C4    O6    A    
C30   C32   S    
C5    C6    A    
C9    C38   A    
C2    C3    A    
C18   C20   A    
C4    O5    A    
O1    Zn1   S    
C3    C11   A    
C13   H6    S    
C20   C21   A    
C14   C15   A    
C25   N1    A    
C30   H19   S    
C16   C38   S    
