data_mof_unit_41461.cif
_audit_creation_date              2012-12-10T17:08:40-0500
_audit_creation_method            fapswitch 2.2
_symmetry_space_group_name_H-M    P1
_symmetry_Int_Tables_number       1
_space_group_crystal_system       triclinic
_cell_length_a                    15.709908
_cell_length_b                    10.502135
_cell_length_c                    10.079954
_cell_angle_alpha                 92.177188
_cell_angle_beta                  90.448951
_cell_angle_gamma                 91.343324
_cell_volume                      1661.34651399

loop_
_atom_site_label
_atom_site_type_symbol
_atom_type_description
_atom_site_fract_x
_atom_site_fract_y
_atom_site_fract_z
_atom_type_partial_charge
C1    C     C_R   0.499851 0.260493 0.496705 0.982542
C2    C     C_2   0.446598 0.860392 0.508453 -0.251899
C3    C     C_2   0.452512 0.059103 0.387797 0.449738
C4    C     C_R   0.338599 0.499268 0.499542 0.861945
C5    C     C_2   0.495302 0.123354 0.487573 -0.567376
C6    C     C_2   0.563563 0.545634 0.925196 0.532253
C7    C     C_2   0.559203 0.558825 0.076664 0.138756
C8    C     C_R   0.484911 0.734993 0.502304 0.930041
C9    C     C_R   0.661539 0.500956 0.500636 0.876064
C10   C     C_3   0.050075 0.456756 0.645712 0.965967
C11   C     C_3   0.044708 0.395101 0.398483 -0.263132
C12   C     C_3   0.950286 0.456811 0.639689 -0.482139
C13   C     C_3   0.947003 0.412190 0.388339 0.385186
C14   C     C_1   0.750466 0.502791 0.502895 -0.180889
C15   C     C_3   0.082941 0.497527 0.502920 -0.021396
C16   C     C_3   0.056484 0.517585 0.876358 -0.355593
C17   C     C_3   0.333971 0.817712 0.265640 -0.262874
C18   C     C_3   0.409479 0.910697 0.639649 -0.512922
C19   C     C_3   0.333813 0.827173 0.683244 -0.279070
C20   C     C_3   0.290799 0.885334 0.805866 -0.884028
C21   C     C_3   0.484337 0.107489 0.174990 -0.178045
C22   C     C_3   0.633969 0.713927 0.831455 -0.266684
C23   C     C_3   0.917566 0.501769 0.504780 0.060594
C24   C     C_3   0.625484 0.648692 0.142752 -0.378143
C25   C     C_3   0.715905 0.594639 0.138925 -0.317849
C26   C     C_3   0.780526 0.688146 0.204571 -0.943852
C27   C     C_3   0.159004 0.311941 0.709407 -0.330680
C28   C     C_3   0.379391 0.390434 0.118172 -0.153774
C29   C     C_3   0.087888 0.383482 0.258824 -0.459220
C30   C     C_3   0.115080 0.246560 0.223908 -0.317499
C31   C     C_3   0.144555 0.232925 0.080340 -0.928552
C32   C     C_3   0.866752 0.253665 0.272480 -0.342118
C33   C     C_3   0.057670 0.831349 0.619266 -0.268815
C34   C     C_3   0.953123 0.638375 0.488040 -0.638940
C35   C     C_3   0.079162 0.678686 0.331960 -0.424207
C36   C     C_3   0.068350 0.819960 0.301841 -0.338293
C37   C     C_3   0.088484 0.844195 0.156796 -0.925515
C38   C     C_3   0.053246 0.639340 0.475441 0.622632
C39   C     C_1   0.825849 0.503589 0.504907 0.043411
C40   C     C_1   0.174738 0.496470 0.500529 0.025117
C41   C     C_1   0.250001 0.497938 0.498839 -0.223977
C42   C     C_2   0.434480 0.921377 0.394379 0.427494
H1    H     H_    0.923609 0.359567 0.656360 0.216990
H2    H     H_    0.114142 0.517497 0.940643 0.185655
H3    H     H_    0.022442 0.424174 0.884812 0.181718
H4    H     H_    0.292970 0.902838 0.268118 0.172508
H5    H     H_    0.315283 0.752613 0.345539 0.154300
H6    H     H_    0.322552 0.765437 0.169197 0.167347
H7    H     H_    0.336934 0.895918 0.889924 0.260333
H8    H     H_    0.265207 0.980149 0.784198 0.252577
H9    H     H_    0.237132 0.822037 0.835408 0.269907
H10   H     H_    0.286083 0.816483 0.601242 0.234282
H11   H     H_    0.355543 0.731157 0.707682 0.250346
H12   H     H_    0.924259 0.519629 0.720194 0.167691
H13   H     H_    0.459893 0.914600 0.717812 0.216941
H14   H     H_    0.385016 0.008320 0.630241 0.221285
H15   H     H_    0.503737 0.007589 0.155092 0.158260
H16   H     H_    0.542031 0.167762 0.197939 0.180189
H17   H     H_    0.455875 0.139805 0.081473 0.192411
H18   H     H_    0.683956 0.768363 0.889340 0.146324
H19   H     H_    0.571350 0.759264 0.850005 0.126945
H20   H     H_    0.649866 0.724295 0.725414 0.197709
H21   H     H_    0.781260 0.779705 0.152879 0.263162
H22   H     H_    0.764728 0.706521 0.310636 0.265563
H23   H     H_    0.923164 0.679166 0.399614 0.172156
H24   H     H_    0.844974 0.647402 0.197954 0.241718
H25   H     H_    0.717267 0.503075 0.190138 0.230922
H26   H     H_    0.737283 0.574781 0.036137 0.258385
H27   H     H_    0.624446 0.741788 0.094742 0.163364
H28   H     H_    0.610384 0.672528 0.245947 0.257731
H29   H     H_    0.161663 0.240337 0.787203 0.184590
H30   H     H_    0.193169 0.399164 0.748995 0.209597
H31   H     H_    0.193223 0.271555 0.622207 0.168876
H32   H     H_    0.350607 0.486496 0.125073 0.127163
H33   H     H_    0.368590 0.338063 0.209897 0.242515
H34   H     H_    0.523018 0.075095 0.570040 0.130319
H35   H     H_    0.345749 0.335639 0.036638 0.120817
H36   H     H_    0.089804 0.243969 0.011746 0.265321
H37   H     H_    0.194253 0.306214 0.059976 0.251951
H38   H     H_    0.171378 0.137096 0.061623 0.257981
H39   H     H_    0.168042 0.221180 0.291073 0.225492
H40   H     H_    0.060964 0.178457 0.237903 0.234515
H41   H     H_    0.044293 0.413570 0.179196 0.197468
H42   H     H_    0.145614 0.445577 0.253628 0.210754
H43   H     H_    0.914130 0.251276 0.191075 0.163474
H44   H     H_    0.814124 0.318225 0.248649 0.161409
H45   H     H_    0.441943 0.495565 0.894898 0.156692
H46   H     H_    0.839074 0.156095 0.279938 0.191660
H47   H     H_    0.023140 0.808131 0.711284 0.186416
H48   H     H_    0.013923 0.873568 0.547246 0.138903
H49   H     H_    0.106696 0.905525 0.647067 0.181775
H50   H     H_    0.154906 0.817698 0.133655 0.258216
H51   H     H_    0.044033 0.787962 0.089914 0.262605
H52   H     H_    0.081111 0.946791 0.138021 0.259286
H53   H     H_    0.001914 0.849040 0.320482 0.217334
H54   H     H_    0.112550 0.880397 0.365185 0.239787
H55   H     H_    0.147251 0.657893 0.314924 0.189187
H56   H     H_    0.053957 0.301120 0.443029 0.247844
H57   H     H_    0.040513 0.622412 0.257341 0.168537
H58   H     H_    0.931053 0.461983 0.295491 0.062868
H59   H     H_    0.930219 0.696722 0.573787 0.203646
H60   H     H_    0.014562 0.593386 0.915912 0.164903
N1    N     N_2   0.500900 0.501330 0.852150 -0.213928
N2    N     N_2   0.500920 0.501360 0.147810 0.061324
O1    O     O_R   0.499990 0.319060 0.613040 -0.609742
O2    O     O_3   0.420938 0.853524 0.275034 -0.601838
O3    O     O_3   0.423466 0.120152 0.277195 -0.602472
O4    O     O_3   0.637316 0.583566 0.861959 -0.601397
O5    O     O_3   0.072600 0.328867 0.674792 -0.667211
O6    O     O_3   0.466582 0.395146 0.087956 -0.591961
O7    O     O_3   0.905225 0.290868 0.395241 -0.589238
O8    O     O_3   0.099492 0.722181 0.568930 -0.566258
O9    O     O_R   0.500010 0.319100 0.386900 -0.553729
O10   O     O_R   0.377130 0.499990 0.613120 -0.633141
O11   O     O_R   0.377160 0.500030 0.386980 -0.635216
O12   O     O_R   0.499990 0.680900 0.613100 -0.638120
O13   O     O_R   0.500010 0.680940 0.386960 -0.597422
O14   O     O_R   0.622840 0.499970 0.613020 -0.546919
O15   O     O_R   0.622870 0.500010 0.386880 -0.640337
O16   O     O_3   0.081184 0.546941 0.745627 -0.586078
Zn1   Zn    Zn3+2 0.499980 0.499970 0.650990 0.949462
Zn2   Zn    Zn3+2 0.500020 0.500030 0.349010 0.971339

loop_
_geom_bond_atom_site_label_1
_geom_bond_atom_site_label_2
_ccdc_geom_bond_type
C3    C42   S    
C32   O7    S    
C2    C18   S    
C4    O11   A    
C35   C36   S    
C25   H25   S    
C17   H6    S    
C9    C14   S    
C28   H32   S    
C24   H28   S    
C31   H38   S    
O13   Zn2   S    
C12   C23   S    
C29   C30   S    
C11   H56   S    
C1    C5    S    
C4    O10   A    
C36   C37   S    
C29   H41   S    
C20   H9    S    
C10   C15   S    
C33   H49   S    
C22   H18   S    
C30   C31   S    
C23   C39   S    
N2    Zn2   S    
C4    C41   S    
C7    C24   S    
C32   H46   S    
C13   C23   S    
C10   O5    S    
C18   C19   S    
C26   H22   S    
C20   H8    S    
C14   C39   T    
O10   Zn1   S    
C11   C15   S    
C19   H10   S    
O9    Zn2   S    
C19   C20   S    
C8    O13   A    
C16   H2    S    
C18   H14   S    
C19   H11   S    
O11   Zn2   S    
C9    O14   A    
C25   H26   S    
C1    O9    A    
C35   H57   S    
C34   H23   S    
C24   H27   S    
C13   H58   S    
C34   H59   S    
O12   Zn1   S    
O1    Zn1   S    
C26   H24   S    
C35   C38   S    
C24   C25   S    
C29   H42   S    
C3    O3    S    
C25   C26   S    
O14   Zn1   S    
C30   H40   S    
C26   H21   S    
C15   C38   S    
C21   H15   S    
C20   H7    S    
C33   H47   S    
C22   H20   S    
C36   H54   S    
C23   C34   S    
C32   H44   S    
C37   H51   S    
C33   O8    S    
C6    N1    D    
C17   H4    S    
C28   H35   S    
C42   O2    S    
C11   C29   S    
C21   O3    S    
C10   C12   S    
C18   H13   S    
H45   N1    S    
C16   H60   S    
C40   C41   T    
C7    N2    D    
C9    O15   A    
C38   O8    S    
N1    Zn1   S    
C27   H29   S    
C31   H36   S    
O15   Zn2   S    
C37   H50   S    
C34   C38   S    
C33   H48   S    
C2    C8    S    
C17   H5    S    
C3    C5    D    
C16   H3    S    
C31   H37   S    
C6    C7    S    
C12   H1    S    
C28   O6    S    
C5    H34   S    
C16   O16   S    
C21   H16   S    
C13   O7    S    
C27   H31   S    
C17   O2    S    
C22   H19   S    
N2    O6    S    
C11   C13   S    
C36   H53   S    
C2    C42   D    
C22   O4    S    
C32   H43   S    
C37   H52   S    
C15   C40   S    
C10   O16   S    
C8    O12   A    
C21   H17   S    
C27   O5    S    
C6    O4    S    
C35   H55   S    
C28   H33   S    
C30   H39   S    
C12   H12   S    
C27   H30   S    
C1    O1    A    
