data_mof_unit_65023.cif
_audit_creation_date              2012-12-10T16:43:23-0500
_audit_creation_method            fapswitch 2.2
_symmetry_space_group_name_H-M    P1
_symmetry_Int_Tables_number       1
_space_group_crystal_system       triclinic
_cell_length_a                    30.248421
_cell_length_b                    31.263018
_cell_length_c                    21.789538
_cell_angle_alpha                 89.999942
_cell_angle_beta                  135.099014
_cell_angle_gamma                 90.000088
_cell_volume                      14545.0367289

loop_
_atom_site_label
_atom_site_type_symbol
_atom_type_description
_atom_site_fract_x
_atom_site_fract_y
_atom_site_fract_z
_atom_type_partial_charge
C1    C     C_R   0.688106 0.808292 0.881936 0.850182
C2    C     C_R   0.311894 0.808292 0.118064 0.850183
C3    C     C_R   0.188106 0.308292 0.881936 0.850181
C4    C     C_R   0.811894 0.308292 0.118064 0.850184
C5    C     C_R   0.453784 0.791125 0.000983 -0.057097
C6    C     C_R   0.546216 0.791125 0.999017 -0.057097
C7    C     C_R   0.953786 0.291125 0.000988 -0.057097
C8    C     C_R   0.046218 0.291125 0.999021 -0.057098
C9    C     C_R   0.479017 0.673987 0.003576 -0.194929
C10   C     C_R   0.520981 0.673987 0.996422 -0.194930
C11   C     C_R   0.979011 0.173987 0.003563 -0.194930
C12   C     C_R   0.020975 0.173988 0.996410 -0.194929
C13   C     C_R   0.520334 0.830352 0.994504 0.155663
C14   C     C_R   0.479667 0.830352 0.005496 0.155663
C15   C     C_R   0.020338 0.330352 0.994513 0.155662
C16   C     C_R   0.979671 0.330352 0.005506 0.155663
C17   C     C_2   0.586286 0.903985 0.740362 -0.171212
C18   C     C_2   0.413714 0.903985 0.259639 -0.171212
C19   C     C_2   0.086286 0.403985 0.740362 -0.171212
C20   C     C_2   0.913713 0.403985 0.259638 -0.171212
C21   C     C_2   0.604359 0.917831 0.702127 -0.006598
C22   C     C_2   0.395641 0.917831 0.297873 -0.006598
C23   C     C_2   0.104359 0.417831 0.702127 -0.006598
C24   C     C_2   0.895641 0.417831 0.297873 -0.006598
C25   C     C_2   0.624869 0.874849 0.815941 0.168587
C26   C     C_2   0.375131 0.874849 0.184059 0.168587
C27   C     C_2   0.124869 0.374849 0.815941 0.168589
C28   C     C_2   0.875131 0.374849 0.184059 0.168587
C29   C     C_2   0.648731 0.839638 0.812410 -0.321225
C30   C     C_2   0.351269 0.839638 0.187590 -0.321225
C31   C     C_2   0.148731 0.339638 0.812410 -0.321226
C32   C     C_2   0.851269 0.339638 0.187590 -0.321224
C33   C     C_R   0.132997 0.749746 0.078773 -0.243600
C34   C     C_R   0.867003 0.749746 0.921226 -0.243600
C35   C     C_R   0.632997 0.249747 0.078773 -0.243600
C36   C     C_R   0.367003 0.249746 0.921227 -0.243600
C37   C     C_R   0.115778 0.750989 0.999752 -0.057001
C38   C     C_R   0.884222 0.750989 0.000248 -0.057001
C39   C     C_R   0.615778 0.250989 0.999752 -0.057001
C40   C     C_R   0.384222 0.250989 0.000248 -0.057000
C41   C     C_R   0.052376 0.752672 0.920820 -0.245328
C42   C     C_R   0.947624 0.752672 0.079180 -0.245329
C43   C     C_R   0.552376 0.252672 0.920820 -0.245328
C44   C     C_R   0.447624 0.252673 0.079180 -0.245329
C45   C     C_R   0.663882 0.750063 0.999151 0.905288
C46   C     C_R   0.336118 0.750063 0.000849 0.905288
C47   C     C_R   0.163882 0.250064 0.999150 0.905281
C48   C     C_R   0.836118 0.250063 0.000849 0.905297
C49   C     C_R   0.005830 0.752164 0.920299 0.110493
C50   C     C_R   0.994170 0.752164 0.079701 0.110493
C51   C     C_R   0.505830 0.252163 0.920299 0.110494
C52   C     C_R   0.494170 0.252164 0.079701 0.110493
C53   C     C_R   0.023247 0.751528 0.999948 0.059945
C54   C     C_R   0.976753 0.751528 0.000052 0.059945
C55   C     C_R   0.523247 0.251528 0.999948 0.059945
C56   C     C_R   0.476753 0.251528 0.000052 0.059946
C57   C     C_R   0.087112 0.750758 0.079495 0.109677
C58   C     C_R   0.912888 0.750758 0.920505 0.109677
C59   C     C_R   0.587112 0.250758 0.079495 0.109677
C60   C     C_R   0.412888 0.250758 0.920505 0.109676
C61   C     C_R   0.942226 0.752030 0.841645 -0.211756
C62   C     C_R   0.057774 0.752030 0.158355 -0.211756
C63   C     C_R   0.442226 0.252029 0.841645 -0.211756
C64   C     C_R   0.557774 0.252030 0.158355 -0.211756
C65   C     C_R   0.896089 0.750995 0.841747 -0.212817
C66   C     C_R   0.103911 0.750995 0.158252 -0.212817
C67   C     C_R   0.396089 0.250994 0.841747 -0.212817
C68   C     C_R   0.603911 0.250995 0.158252 -0.212817
C69   C     C_2   0.903438 0.591559 0.249955 -0.157943
C70   C     C_2   0.096562 0.591559 0.750045 -0.157943
C71   C     C_2   0.403438 0.091559 0.249955 -0.157942
C72   C     C_2   0.596562 0.091559 0.750045 -0.157942
C73   C     C_2   0.902539 0.588904 0.310435 -0.311099
C74   C     C_2   0.097461 0.588904 0.689564 -0.311098
C75   C     C_2   0.402539 0.088904 0.310435 -0.311099
C76   C     C_2   0.597461 0.088904 0.689564 -0.311098
C77   C     C_2   0.862684 0.622021 0.177160 -0.154018
C78   C     C_2   0.137316 0.622021 0.822840 -0.154019
C79   C     C_2   0.362684 0.122021 0.177160 -0.154018
C80   C     C_2   0.637316 0.122021 0.822840 -0.154020
C81   C     C_2   0.848157 0.659997 0.187587 -0.308231
C82   C     C_2   0.151842 0.659997 0.812413 -0.308231
C83   C     C_2   0.348157 0.159997 0.187587 -0.308232
C84   C     C_2   0.651842 0.159997 0.812413 -0.308229
C85   C     C_R   0.060036 0.557813 0.619214 0.842952
C86   C     C_R   0.939964 0.557813 0.380786 0.842952
C87   C     C_R   0.560036 0.057813 0.619214 0.842952
C88   C     C_R   0.439964 0.057813 0.380786 0.842952
C89   C     C_R   0.810415 0.691546 0.118171 0.857591
C90   C     C_R   0.189584 0.691546 0.881829 0.857591
C91   C     C_R   0.310415 0.191546 0.118171 0.857588
C92   C     C_R   0.689584 0.191546 0.881829 0.857593
C93   C     C_R   0.561562 0.943521 0.622009 0.835226
C94   C     C_R   0.438438 0.943521 0.377991 0.835227
C95   C     C_R   0.061562 0.443521 0.622009 0.835226
C96   C     C_R   0.938438 0.443521 0.377991 0.835227
C97   C     C_R   0.835803 0.750272 0.000163 0.807608
C98   C     C_R   0.164197 0.750272 0.999837 0.807606
C99   C     C_R   0.335803 0.250272 0.000163 0.807608
C100  C     C_R   0.664197 0.250272 0.999837 0.807607
C101  C     C_R   0.402345 0.789649 0.991181 0.313257
C102  C     C_R   0.597655 0.789649 0.008819 0.313257
C103  C     C_R   0.902347 0.289650 0.991186 0.313256
C104  C     C_R   0.097657 0.289649 0.008823 0.313258
C105  C     C_R   0.385744 0.750705 0.003180 -0.272720
C106  C     C_R   0.614255 0.750705 0.996819 -0.272720
C107  C     C_R   0.885744 0.250705 0.003180 -0.272716
C108  C     C_R   0.114255 0.250706 0.996819 -0.272724
C109  C     C_R   0.415512 0.712418 0.015500 0.306061
C110  C     C_R   0.584487 0.712418 0.984499 0.306063
C111  C     C_R   0.915508 0.212417 0.015493 0.306059
C112  C     C_R   0.084484 0.212418 0.984493 0.306063
C113  C     C_R   0.457289 0.712617 0.006944 0.032985
C114  C     C_R   0.542710 0.712617 0.993055 0.032984
C115  C     C_R   0.957285 0.212617 0.006937 0.032986
C116  C     C_R   0.042707 0.212618 0.993049 0.032984
C117  C     C_R   0.477658 0.752014 0.001783 -0.050621
C118  C     C_R   0.522342 0.752014 0.998217 -0.050621
C119  C     C_R   0.977657 0.252014 0.001782 -0.050621
C120  C     C_R   0.022341 0.252014 0.998216 -0.050621
Cu1   Cu    Cu3+1 0.719490 0.719480 0.938970 0.939139
Cu2   Cu    Cu3+1 0.280510 0.719480 0.061030 0.939139
Cu3   Cu    Cu3+1 0.219490 0.219480 0.938970 0.939140
Cu4   Cu    Cu3+1 0.780510 0.219480 0.061030 0.939135
Cu5   Cu    Cu3+1 0.780480 0.780500 0.060980 0.939701
Cu6   Cu    Cu3+1 0.219520 0.780500 0.939020 0.939701
Cu7   Cu    Cu3+1 0.280480 0.280500 0.060980 0.939701
Cu8   Cu    Cu3+1 0.719520 0.280500 0.939020 0.939700
Cu9   Cu    Cu3+1 0.455530 0.999980 0.499990 0.939311
Cu10  Cu    Cu3+1 0.544470 0.999980 0.500010 0.939311
Cu11  Cu    Cu3+1 0.955530 0.499980 0.499990 0.939311
Cu12  Cu    Cu3+1 0.044470 0.499980 0.500010 0.939311
H1    H     H_    0.039413 0.753322 0.859955 0.143207
H2    H     H_    0.960587 0.753322 0.140045 0.143207
H3    H     H_    0.539413 0.253321 0.859955 0.143207
H4    H     H_    0.460587 0.253322 0.140045 0.143207
H5    H     H_    0.928175 0.752392 0.780047 0.143582
H6    H     H_    0.071825 0.752392 0.219953 0.143582
H7    H     H_    0.428175 0.252391 0.780047 0.143582
H8    H     H_    0.571825 0.252392 0.219953 0.143582
H9    H     H_    0.847251 0.750559 0.780223 0.142823
H10   H     H_    0.152749 0.750559 0.219777 0.142823
H11   H     H_    0.347251 0.250558 0.780223 0.142823
H12   H     H_    0.652749 0.250559 0.219777 0.142823
H13   H     H_    0.931740 0.569554 0.250956 0.161322
H14   H     H_    0.068261 0.569554 0.749043 0.161322
H15   H     H_    0.431740 0.069554 0.250957 0.161322
H16   H     H_    0.568260 0.069554 0.749043 0.161322
H17   H     H_    0.869249 0.607604 0.304188 0.156007
H18   H     H_    0.130751 0.607604 0.695812 0.156007
H19   H     H_    0.369248 0.107604 0.304188 0.156006
H20   H     H_    0.630751 0.107604 0.695812 0.156008
H21   H     H_    0.847412 0.614052 0.115982 0.161755
H22   H     H_    0.152588 0.614052 0.884018 0.161755
H23   H     H_    0.347412 0.114052 0.115982 0.161755
H24   H     H_    0.652588 0.114052 0.884018 0.161755
H25   H     H_    0.868942 0.669912 0.251248 0.150491
H26   H     H_    0.131057 0.669912 0.748752 0.150491
H27   H     H_    0.368942 0.169912 0.251248 0.150491
H28   H     H_    0.631057 0.169912 0.748752 0.150491
H29   H     H_    0.463108 0.643426 0.005374 0.177013
H30   H     H_    0.536890 0.643426 0.994624 0.177013
H31   H     H_    0.963099 0.143426 0.005357 0.177011
H32   H     H_    0.036881 0.143426 0.994607 0.177013
H33   H     H_    0.541143 0.913425 0.714558 0.145157
H34   H     H_    0.458858 0.913425 0.285443 0.145158
H35   H     H_    0.041143 0.413425 0.714558 0.145157
H36   H     H_    0.958857 0.413426 0.285442 0.145158
H37   H     H_    0.635450 0.832098 0.752397 0.141218
H38   H     H_    0.364550 0.832098 0.247602 0.141218
H39   H     H_    0.135449 0.332099 0.752397 0.141218
H40   H     H_    0.864550 0.332098 0.247602 0.141218
H41   H     H_    0.182152 0.748787 0.139590 0.142651
H42   H     H_    0.817848 0.748787 0.860410 0.142651
H43   H     H_    0.682152 0.248787 0.139590 0.142651
H44   H     H_    0.317848 0.248786 0.860410 0.142652
O1    O     O_R   0.679710 0.768740 0.859430 -0.600191
O2    O     O_R   0.320290 0.768740 0.140570 -0.600190
O3    O     O_R   0.179710 0.268740 0.859430 -0.600191
O4    O     O_R   0.820290 0.268740 0.140570 -0.600190
O5    O     O_R   0.082020 0.544510 0.588970 -0.588068
O6    O     O_R   0.917980 0.544510 0.411030 -0.588067
O7    O     O_R   0.582020 0.044510 0.588970 -0.588068
O8    O     O_R   0.417980 0.044510 0.411030 -0.588068
O9    O     O_R   0.506970 0.955460 0.589020 -0.604245
O10   O     O_R   0.493030 0.955460 0.410980 -0.604245
O11   O     O_R   0.006970 0.455460 0.589020 -0.604245
O12   O     O_R   0.993030 0.455460 0.410980 -0.604245
O13   O     O_R   0.582050 0.955480 0.588990 -0.577225
O14   O     O_R   0.417950 0.955480 0.411010 -0.577226
O15   O     O_R   0.082050 0.455480 0.588990 -0.577225
O16   O     O_R   0.917950 0.455480 0.411010 -0.577225
O17   O     O_R   0.731220 0.820270 0.962460 -0.575023
O18   O     O_R   0.268780 0.820270 0.037540 -0.575023
O19   O     O_R   0.231220 0.320270 0.962460 -0.575023
O20   O     O_R   0.768780 0.320270 0.037540 -0.575024
O21   O     O_R   0.659370 0.724200 0.948480 -0.573754
O22   O     O_R   0.340630 0.724200 0.051520 -0.573754
O23   O     O_R   0.159370 0.224200 0.948480 -0.573748
O24   O     O_R   0.840630 0.224200 0.051520 -0.573759
O25   O     O_R   0.710880 0.775730 0.051510 -0.569484
O26   O     O_R   0.289120 0.775730 0.948490 -0.569484
O27   O     O_R   0.210880 0.275730 0.051510 -0.569481
O28   O     O_R   0.789120 0.275730 0.948490 -0.569487
O29   O     O_R   0.768760 0.679710 0.037490 -0.576020
O30   O     O_R   0.231240 0.679710 0.962510 -0.576020
O31   O     O_R   0.268760 0.179710 0.037490 -0.576019
O32   O     O_R   0.731240 0.179710 0.962510 -0.576022
O33   O     O_R   0.820270 0.731240 0.140520 -0.598479
O34   O     O_R   0.179730 0.731240 0.859480 -0.598479
O35   O     O_R   0.320270 0.231240 0.140520 -0.598480
O36   O     O_R   0.679730 0.231240 0.859480 -0.598479
O37   O     O_R   0.789100 0.724240 0.948440 -0.590912
O38   O     O_R   0.210900 0.724240 0.051560 -0.590911
O39   O     O_R   0.289100 0.224240 0.948440 -0.590912
O40   O     O_R   0.710900 0.224240 0.051560 -0.590911
O41   O     O_R   0.840600 0.775770 0.051470 -0.587601
O42   O     O_R   0.159400 0.775770 0.948530 -0.587600
O43   O     O_R   0.340600 0.275770 0.051470 -0.587601
O44   O     O_R   0.659400 0.275770 0.948530 -0.587600
O45   O     O_R   0.006940 0.544490 0.589000 -0.582979
O46   O     O_R   0.993060 0.544490 0.411000 -0.582979
O47   O     O_R   0.506940 0.044490 0.589000 -0.582979
O48   O     O_R   0.493060 0.044490 0.411000 -0.582979
O49   O     O_3   0.367423 0.825980 0.969056 -0.575187
C121  C     C_3   0.324384 0.832382 0.878214 0.121203
H45   H     H_    0.294500 0.803611 0.841411 0.146410
H46   H     H_    0.349086 0.839925 0.858851 0.131405
C122  C     C_3   0.281916 0.869803 0.852456 -0.796481
H47   H     H_    0.310254 0.899223 0.887028 0.239028
H48   H     H_    0.247932 0.875302 0.781283 0.190843
H49   H     H_    0.255747 0.862807 0.869625 0.255566
O50   O     O_3   0.632578 0.825980 0.030944 -0.575187
C123  C     C_3   0.675616 0.832382 0.121786 0.121204
H50   H     H_    0.705500 0.803610 0.158590 0.146410
H51   H     H_    0.650914 0.839924 0.141149 0.131405
C124  C     C_3   0.718085 0.869802 0.147545 -0.796481
H52   H     H_    0.689747 0.899223 0.112974 0.239027
H53   H     H_    0.752069 0.875302 0.218718 0.190843
H54   H     H_    0.744254 0.862807 0.130376 0.255566
O51   O     O_3   0.867427 0.325981 0.969065 -0.575192
C125  C     C_3   0.824389 0.332386 0.878225 0.121203
H55   H     H_    0.794503 0.303616 0.841417 0.146411
H56   H     H_    0.849091 0.339930 0.858863 0.131406
C126  C     C_3   0.781923 0.369807 0.852472 -0.796484
H57   H     H_    0.810263 0.399227 0.887048 0.239029
H58   H     H_    0.747939 0.375310 0.781299 0.190844
H59   H     H_    0.755753 0.362811 0.869640 0.255566
O52   O     O_3   0.132582 0.325979 0.030953 -0.575183
C127  C     C_3   0.175621 0.332379 0.121796 0.121203
H60   H     H_    0.205503 0.303606 0.158595 0.146408
H61   H     H_    0.150920 0.339920 0.141160 0.131404
C128  C     C_3   0.218091 0.369799 0.147559 -0.796477
H62   H     H_    0.189755 0.399220 0.112991 0.239027
H63   H     H_    0.252076 0.375296 0.218733 0.190842
H64   H     H_    0.244260 0.362804 0.130388 0.255566
O53   O     O_3   0.397968 0.674205 0.025499 -0.565442
C129  C     C_3   0.443422 0.663029 0.114619 0.095461
H65   H     H_    0.451204 0.689451 0.155772 0.147245
H66   H     H_    0.488942 0.654999 0.137376 0.127032
C130  C     C_3   0.420842 0.623973 0.127632 -0.766961
H67   H     H_    0.413911 0.596720 0.088828 0.242413
H68   H     H_    0.456124 0.614832 0.197395 0.185698
H69   H     H_    0.375814 0.631213 0.106684 0.258425
O54   O     O_3   0.602031 0.674205 0.974499 -0.565442
C131  C     C_3   0.556577 0.663029 0.885379 0.095459
H70   H     H_    0.548795 0.689452 0.844227 0.147246
H71   H     H_    0.511057 0.654999 0.862622 0.127032
C132  C     C_3   0.579156 0.623973 0.872366 -0.766961
H72   H     H_    0.586087 0.596720 0.911170 0.242413
H73   H     H_    0.543874 0.614832 0.802603 0.185699
H74   H     H_    0.624184 0.631213 0.893314 0.258425
O55   O     O_3   0.897960 0.174204 0.025485 -0.565445
C133  C     C_3   0.943413 0.163024 0.114604 0.095463
H75   H     H_    0.951200 0.189445 0.155762 0.147243
H76   H     H_    0.988932 0.154991 0.137358 0.127031
C134  C     C_3   0.920827 0.123969 0.127609 -0.766951
H77   H     H_    0.913890 0.096717 0.088798 0.242413
H78   H     H_    0.956109 0.114824 0.197370 0.185696
H79   H     H_    0.875801 0.131212 0.106664 0.258426
O56   O     O_3   0.102024 0.174206 0.974486 -0.565438
C135  C     C_3   0.056569 0.163034 0.885363 0.095463
H80   H     H_    0.048789 0.189459 0.844216 0.147242
H81   H     H_    0.011048 0.155005 0.862605 0.127031
C136  C     C_3   0.079144 0.123979 0.872343 -0.766958
H82   H     H_    0.086074 0.096724 0.911143 0.242413
H83   H     H_    0.043861 0.114841 0.802578 0.185698
H84   H     H_    0.124173 0.131218 0.893291 0.258423
C137  C     C_3   0.529509 0.871733 0.968130 -0.792542
H85   H     H_    0.533958 0.865508 0.922539 0.251475
H86   H     H_    0.488001 0.892891 0.931822 0.210785
H87   H     H_    0.571121 0.889260 0.026188 0.238111
C138  C     C_3   0.470491 0.871733 0.031871 -0.792542
H88   H     H_    0.466042 0.865508 0.077462 0.251475
H89   H     H_    0.511999 0.892891 0.068179 0.210785
H90   H     H_    0.428880 0.889260 0.973813 0.238111
C139  C     C_3   0.029517 0.371734 0.968144 -0.792540
H91   H     H_    0.033965 0.365510 0.922552 0.251475
H92   H     H_    0.988010 0.392894 0.931840 0.210785
H93   H     H_    0.071129 0.389259 0.026205 0.238111
C140  C     C_3   0.970499 0.371732 0.031886 -0.792543
H94   H     H_    0.966050 0.365505 0.077477 0.251474
H95   H     H_    0.012008 0.392889 0.068197 0.210785
H96   H     H_    0.928888 0.389261 0.973831 0.238111
C141  C     C_3   0.670772 0.911901 0.743571 -0.826242
H97   H     H_    0.688429 0.942439 0.741466 0.237405
H98   H     H_    0.704753 0.903112 0.813317 0.243322
H99   H     H_    0.671143 0.887209 0.707328 0.225692
C142  C     C_3   0.329227 0.911901 0.256429 -0.826243
H100  H     H_    0.311571 0.942439 0.258534 0.237405
H101  H     H_    0.295247 0.903112 0.186683 0.243322
H102  H     H_    0.328856 0.887209 0.292671 0.225692
C143  C     C_3   0.170772 0.411901 0.743571 -0.826241
H103  H     H_    0.188429 0.442438 0.741466 0.237405
H104  H     H_    0.204753 0.403112 0.813317 0.243321
H105  H     H_    0.171143 0.387209 0.707328 0.225691
C144  C     C_3   0.829227 0.411901 0.256430 -0.826243
H106  H     H_    0.811571 0.442438 0.258534 0.237405
H107  H     H_    0.795247 0.403111 0.186683 0.243322
H108  H     H_    0.828857 0.387209 0.292672 0.225692
C145  C     C_3   0.631186 0.883472 0.889924 -0.769542
H109  H     H_    0.603555 0.912059 0.876280 0.209577
H110  H     H_    0.613529 0.855644 0.899024 0.248756
H111  H     H_    0.680893 0.889613 0.950751 0.247826
C146  C     C_3   0.368814 0.883472 0.110076 -0.769543
H112  H     H_    0.396445 0.912059 0.123721 0.209578
H113  H     H_    0.386472 0.855644 0.100977 0.248756
H114  H     H_    0.319108 0.889613 0.049249 0.247826
C147  C     C_3   0.131187 0.383472 0.889925 -0.769542
H115  H     H_    0.103555 0.412059 0.876280 0.209577
H116  H     H_    0.113530 0.355644 0.899025 0.248751
H117  H     H_    0.180893 0.389614 0.950751 0.247827
C148  C     C_3   0.868813 0.383472 0.110076 -0.769542
H118  H     H_    0.896444 0.412059 0.123720 0.209577
H119  H     H_    0.886471 0.355645 0.100977 0.248763
H120  H     H_    0.819107 0.389613 0.049249 0.247825

loop_
_geom_bond_atom_site_label_1
_geom_bond_atom_site_label_2
_ccdc_geom_bond_type
C55   C59   A    
C69   H13   S    
Cu2   O30   S    
Cu9   O47   S    
C67   H11   S    
Cu12  O12   S    
C18   H34   S    
C140  H94   S    
Cu6   O26   S    
C135  H80   S    
Cu9   O9    S    
C24   C96   S    
C46   O22   A    
C127  H61   S    
C46   C105  S    
C101  O49   S    
C133  H75   S    
C23   C143  S    
C89   O29   A    
C70   C74   D    
C125  H56   S    
C11   C115  A    
C108  C112  A    
C127  C128  S    
C32   H40   S    
C10   H30   S    
C126  H57   S    
Cu4   O32   S    
C19   H35   S    
C9    C10   A    
C41   C49   A    
C25   C29   D    
C5    C101  A    
C125  C126  S    
C27   C31   D    
C7    C119  A    
C28   C32   D    
C20   C28   S    
C148  H118  S    
C3    O19   A    
C123  C124  S    
Cu1   O37   S    
C144  H108  S    
C1    O17   A    
C94   O14   A    
C122  H47   S    
C34   H42   S    
Cu7   O19   S    
Cu12  O5    S    
C78   C82   D    
Cu5   O17   S    
C1    C29   S    
C3    C31   S    
C8    C104  A    
C4    C32   S    
C91   O35   A    
C132  H73   S    
C128  H63   S    
C64   H8    S    
C148  H120  S    
C4    O20   A    
C100  O40   A    
C63   H7    S    
C89   O33   A    
C83   C91   S    
C42   H2    S    
C17   C25   S    
C35   H43   S    
C136  H83   S    
C21   C93   S    
C49   C53   A    
C23   C95   S    
C51   C55   A    
C6    C102  A    
C79   H23   S    
C139  H91   S    
C61   C65   A    
C25   C145  S    
C15   C139  S    
C145  H109  S    
C126  H59   S    
C34   C58   A    
C103  C107  A    
C29   H37   S    
C110  O54   S    
Cu6   O42   S    
Cu11  O11   S    
C71   H15   S    
C134  H77   S    
C69   C77   S    
C57   C66   A    
C43   C51   A    
C41   H1    S    
C53   C54   A    
O52   C127  S    
C24   C144  S    
C64   C68   A    
Cu3   O23   S    
C122  H49   S    
Cu10  O7    S    
C87   O7    A    
C130  H67   S    
C82   H26   S    
Cu11  O6    S    
C88   O8    A    
C48   C107  S    
C45   O21   A    
O53   C129  S    
C22   C94   S    
C146  H113  S    
C77   H21   S    
C60   C67   A    
C75   H19   S    
C141  H98   S    
C88   O48   A    
C70   H14   S    
C140  H96   S    
O50   C123  S    
Cu8   O44   S    
C44   C52   A    
C7    C103  A    
C13   C14   A    
C14   C138  S    
C139  H92   S    
C47   O23   A    
C37   C98   S    
O49   C121  S    
C142  H101  S    
C62   C66   A    
C90   O34   A    
Cu3   O3    S    
Cu5   O33   S    
Cu1   O1    S    
C116  C120  A    
Cu1   Cu5   S    
C138  H88   S    
C65   H9    S    
C58   C65   A    
Cu3   Cu7   S    
C145  H111  S    
C11   H31   S    
C137  H85   S    
Cu2   O22   S    
C9    H29   S    
C76   C87   S    
C131  H71   S    
C42   C50   A    
C113  C117  A    
C26   C30   D    
C115  C119  A    
C92   O36   A    
C112  C116  A    
Cu9   Cu10  S    
C105  C109  A    
C85   O5    A    
C18   C22   D    
C107  C111  A    
C94   O10   A    
C131  C132  S    
C130  H69   S    
C91   O31   A    
C93   O13   A    
C48   O28   A    
C135  H81   S    
C2    C30   S    
C9    C113  A    
C96   O16   A    
C124  H53   S    
C129  H65   S    
C72   C80   S    
C117  C118  A    
C31   H39   S    
C147  H117  S    
C68   H12   S    
C22   C142  S    
C133  H76   S    
C74   C85   S    
C98   O38   A    
C40   C44   A    
C100  O44   A    
C135  C136  S    
C47   C108  S    
C134  H79   S    
C84   C92   S    
C85   O45   A    
Cu5   O41   S    
C12   C116  A    
C44   H4    S    
C55   C56   A    
Cu3   O39   S    
C133  C134  S    
C18   C26   S    
Cu1   O29   S    
C80   C84   D    
C84   H28   S    
Cu7   O43   S    
Cu11  O16   S    
Cu5   O25   S    
C50   C54   A    
C123  H51   S    
C48   O24   A    
Cu12  O46   S    
C138  H90   S    
C54   C58   A    
C76   H20   S    
C137  H87   S    
C35   C59   A    
Cu8   O28   S    
C144  H107  S    
C30   H38   S    
C90   O30   A    
C16   C140  S    
C69   C73   D    
C10   C114  A    
Cu4   Cu8   S    
C81   C89   S    
C148  H119  S    
C45   O25   A    
C97   O37   A    
C132  H72   S    
C4    O4    A    
C71   C79   S    
C140  H95   S    
C81   H25   S    
C51   C63   A    
C52   C64   A    
C26   C146  S    
C53   C57   A    
C78   H22   S    
C127  H60   S    
C27   C147  S    
C33   C37   A    
C56   C60   A    
C2    O18   A    
C35   C39   A    
C136  H82   S    
C12   H32   S    
Cu6   O18   S    
C77   C81   D    
C125  H55   S    
C47   O27   A    
Cu11  O45   S    
C62   H6    S    
C5    C14   A    
C7    C16   A    
Cu9   O8    S    
C99   O43   A    
C95   O11   A    
C8    C15   A    
C126  H58   S    
C97   O41   A    
C123  H50   S    
Cu11  Cu12  S    
C104  C108  A    
Cu2   O2    S    
C104  O52   S    
C73   H17   S    
C119  C120  A    
C38   C42   A    
C66   H10   S    
Cu4   O24   S    
C82   C90   S    
C128  H64   S    
C122  H48   S    
C17   H33   S    
Cu8   O36   S    
C79   C83   D    
C49   C61   A    
C61   H5    S    
C143  H103  S    
C128  H62   S    
Cu10  O48   S    
C112  O56   S    
C146  H112  S    
C17   C21   D    
C143  H104  S    
Cu2   O38   S    
C46   O26   A    
C102  O50   S    
C141  H97   S    
C132  H74   S    
C86   O6    A    
Cu7   O27   S    
C87   O47   A    
C93   O9    A    
C13   C137  S    
C70   C78   S    
C147  H115  S    
C96   O12   A    
C19   C23   D    
C72   C76   D    
C40   C99   S    
C142  H100  S    
C28   C148  S    
O51   C125  S    
C136  H84   S    
C15   C16   A    
C3    O3    A    
C103  O51   S    
C1    O1    A    
C20   C24   D    
C145  H110  S    
C19   C27   S    
O54   C131  S    
Cu10  O13   S    
C109  C113  A    
C37   C41   A    
C38   C97   S    
C80   H24   S    
C101  C105  A    
C20   H36   S    
C63   C67   A    
C36   C40   A    
Cu6   O34   S    
C130  H68   S    
C143  H105  S    
C39   C43   A    
O56   C135  S    
C72   H16   S    
C5    C117  A    
Cu2   Cu6   S    
C146  H114  S    
C129  H66   S    
C92   O32   A    
C59   C68   A    
C141  H99   S    
Cu9   O14   S    
C21   C141  S    
O55   C133  S    
C147  H116  S    
Cu3   O31   S    
C43   H3    S    
Cu12  O15   S    
Cu1   O21   S    
C114  C118  A    
Cu7   O35   S    
C121  H45   S    
C121  H46   S    
C134  H78   S    
C50   C62   A    
C139  H93   S    
C124  H54   S    
C129  C130  S    
C33   H41   S    
C45   C106  S    
C8    C120  A    
Cu4   O40   S    
C142  H102  S    
C110  C114  A    
C33   C57   A    
C34   C38   A    
Cu8   O20   S    
C36   C60   A    
C11   C12   A    
Cu10  O10   S    
C36   H44   S    
C95   O15   A    
C121  C122  S    
C2    O2    A    
C98   O42   A    
C138  H89   S    
C6    C13   A    
C71   C75   D    
C39   C100  S    
C99   O39   A    
C137  H86   S    
C102  C106  A    
C111  O55   S    
C109  O53   S    
C144  H106  S    
C73   C86   S    
Cu4   O4    S    
C131  H70   S    
C75   C88   S    
C83   H27   S    
C106  C110  A    
C74   H18   S    
C111  C115  A    
C86   O46   A    
C124  H52   S    
C6    C118  A    
C52   C56   A    
