data_mof_unit_65845.cif
_audit_creation_date              2012-12-10T18:22:44-0500
_audit_creation_method            fapswitch 2.2
_symmetry_space_group_name_H-M    P1
_symmetry_Int_Tables_number       1
_space_group_crystal_system       triclinic
_cell_length_a                    41.601674
_cell_length_b                    35.629809
_cell_length_c                    21.38418
_cell_angle_alpha                 89.996684
_cell_angle_beta                  58.977017
_cell_angle_gamma                 90.001639
_cell_volume                      27163.0024741

loop_
_atom_site_label
_atom_site_type_symbol
_atom_type_description
_atom_site_fract_x
_atom_site_fract_y
_atom_site_fract_z
_atom_type_partial_charge
C1    C     C_R   0.927619 0.499998 0.072382 0.788140
C2    C     C_R   0.326919 0.499912 0.729931 -0.156891
C3    C     C_R   0.000005 0.807010 0.500001 0.142845
C4    C     C_1   0.500008 0.266613 0.499998 -0.060979
C5    C     C_1   0.000007 0.766613 0.500000 -0.060978
C6    C     C_1   0.000008 0.732773 0.499999 -0.025430
C7    C     C_1   0.500008 0.232773 0.499996 -0.025430
C8    C     C_R   0.983358 0.672719 0.565999 -0.162053
C9    C     C_R   0.016657 0.672725 0.433996 -0.162052
C10   C     C_R   0.483366 0.172719 0.565996 -0.162047
C11   C     C_R   0.516650 0.172725 0.433995 -0.162047
C12   C     C_R   0.983227 0.633450 0.566473 0.108353
C13   C     C_R   0.173080 0.999902 0.270068 -0.156891
C14   C     C_R   0.016786 0.633456 0.433522 0.108246
C15   C     C_R   0.483235 0.133450 0.566471 0.108377
C16   C     C_R   0.516778 0.133455 0.433522 0.108241
C17   C     C_R   0.000004 0.613456 0.499998 -0.112311
C18   C     C_R   0.500005 0.113456 0.499997 -0.112294
C19   C     C_3   0.978568 0.528326 0.292198 -0.133732
C20   C     C_3   0.021901 0.527977 0.707326 -0.134425
C21   C     C_3   0.478523 0.028293 0.292242 -0.133788
C22   C     C_3   0.522075 0.027842 0.707151 -0.134676
C23   C     C_R   0.000008 0.692373 0.499998 0.061771
C24   C     C_R   0.826919 0.999912 0.729931 -0.156892
C25   C     C_R   0.500008 0.192373 0.499996 0.061768
C26   C     C_R   0.499981 0.672986 0.443388 -0.158100
C27   C     C_R   0.500009 0.672985 0.556606 -0.158100
C28   C     C_R   0.999986 0.172986 0.443382 -0.158101
C29   C     C_R   0.000003 0.172985 0.556612 -0.158102
C30   C     C_R   0.499983 0.633761 0.443317 -0.190359
C31   C     C_R   0.500011 0.633759 0.556677 -0.190355
C32   C     C_R   0.999988 0.133761 0.443311 -0.190360
C33   C     C_R   0.000005 0.133759 0.556683 -0.190357
C34   C     C_R   0.499998 0.613704 0.499997 -0.036361
C35   C     C_R   0.633869 0.499884 0.309276 -0.189872
C36   C     C_R   0.999998 0.113704 0.499997 -0.036360
C37   C     C_R   0.499994 0.692649 0.499997 0.146219
C38   C     C_R   0.999994 0.192649 0.499997 0.146220
C39   C     C_1   0.499992 0.732992 0.499997 -0.064986
C40   C     C_1   0.999992 0.232992 0.499997 -0.064988
C41   C     C_1   0.999992 0.266800 0.499997 -0.065619
C42   C     C_1   0.499992 0.766800 0.499998 -0.065617
C43   C     C_R   0.966029 0.326806 0.533857 -0.159723
C44   C     C_R   0.033959 0.326808 0.466141 -0.159730
C45   C     C_R   0.466029 0.826806 0.533857 -0.159722
C46   C     C_R   0.366131 0.499890 0.690724 -0.189872
C47   C     C_R   0.533959 0.826808 0.466141 -0.159729
C48   C     C_R   0.965989 0.366031 0.533900 -0.194730
C49   C     C_R   0.034002 0.366033 0.466101 -0.194705
C50   C     C_R   0.465989 0.866031 0.533900 -0.194732
C51   C     C_R   0.534002 0.866033 0.466101 -0.194699
C52   C     C_R   0.999997 0.386077 0.500001 -0.034956
C53   C     C_R   0.499997 0.886077 0.500001 -0.034970
C54   C     C_3   0.000212 0.500095 0.310796 0.019905
C55   C     C_3   0.999791 0.500106 0.689201 0.019897
C56   C     C_3   0.500211 0.000096 0.310797 0.019904
C57   C     C_R   0.133869 0.999884 0.309276 -0.189872
C58   C     C_3   0.499792 0.000109 0.689199 0.019889
C59   C     C_R   0.999993 0.307143 0.499998 0.146112
C60   C     C_R   0.499993 0.807143 0.499998 0.146111
C61   C     C_3   0.986647 0.467198 0.284123 -0.158368
C62   C     C_3   0.012808 0.466990 0.716427 -0.158203
C63   C     C_3   0.486697 0.967177 0.284073 -0.158352
C64   C     C_3   0.512604 0.966912 0.716631 -0.158139
C65   C     C_3   0.021953 0.471874 0.207364 -0.169616
C66   C     C_3   0.977584 0.472248 0.793108 -0.169496
C67   C     C_3   0.521997 0.971908 0.207320 -0.169603
C68   C     C_R   0.866131 0.999890 0.690724 -0.189873
C69   C     C_3   0.477412 0.972389 0.793280 -0.169444
C70   C     C_3   0.035515 0.504770 0.235101 -0.144081
C71   C     C_3   0.964571 0.505362 0.764813 -0.143525
C72   C     C_3   0.535507 0.004825 0.235109 -0.144033
C73   C     C_3   0.464606 0.005583 0.764777 -0.143328
C74   C     C_3   0.013839 0.532999 0.215498 -0.134507
C75   C     C_3   0.986714 0.533230 0.783939 -0.134691
C76   C     C_3   0.513788 0.033020 0.215550 -0.134517
C77   C     C_3   0.486922 0.033313 0.783730 -0.134755
C78   C     C_R   0.613798 0.499886 0.386073 -0.036672
C79   C     C_R   0.386202 0.499890 0.613927 -0.036672
C80   C     C_R   0.113798 0.999886 0.386073 -0.036672
C81   C     C_R   0.072381 0.500000 0.927618 0.788116
C82   C     C_R   0.886202 0.999890 0.613927 -0.036672
C83   C     C_R   0.633834 0.499902 0.422690 -0.189749
C84   C     C_R   0.366166 0.499908 0.577310 -0.189750
C85   C     C_R   0.133834 0.999902 0.422690 -0.189749
C86   C     C_R   0.866166 0.999908 0.577310 -0.189749
C87   C     C_R   0.673042 0.499920 0.383345 -0.157627
C88   C     C_R   0.326958 0.499930 0.616655 -0.157628
C89   C     C_R   0.173042 0.999920 0.383345 -0.157626
C90   C     C_R   0.826958 0.999930 0.616655 -0.157629
C91   C     C_R   0.692725 0.499921 0.307012 0.145510
C92   C     C_R   0.427619 0.999998 0.072382 0.788144
C93   C     C_R   0.307275 0.499934 0.692988 0.145510
C94   C     C_R   0.192725 0.999921 0.307012 0.145510
C95   C     C_R   0.807275 0.999934 0.692988 0.145511
C96   C     C_1   0.733063 0.499943 0.266628 -0.063609
C97   C     C_1   0.266937 0.499958 0.733371 -0.063611
C98   C     C_1   0.233063 0.999943 0.266628 -0.063610
C99   C     C_1   0.766937 0.999958 0.733372 -0.063612
C100  C     C_1   0.766863 0.499959 0.232841 -0.063983
C101  C     C_1   0.233137 0.499974 0.767159 -0.063985
C102  C     C_1   0.266863 0.999959 0.232840 -0.063983
C103  C     C_R   0.572381 0.000000 0.927618 0.788114
C104  C     C_1   0.733137 0.999974 0.767159 -0.063986
C105  C     C_R   0.826859 0.533960 0.172916 -0.156427
C106  C     C_R   0.173143 0.533972 0.827087 -0.156422
C107  C     C_R   0.326859 0.033960 0.172916 -0.156429
C108  C     C_R   0.673143 0.033972 0.827089 -0.156423
C109  C     C_R   0.000152 0.500012 0.120463 0.795451
C110  C     C_R   0.999851 0.500015 0.879533 0.795469
C111  C     C_R   0.500152 0.000012 0.120463 0.795452
C112  C     C_R   0.499852 0.000015 0.879532 0.795472
C113  C     C_R   0.866069 0.534011 0.133795 -0.190267
C114  C     C_3   0.000271 0.500078 0.188773 0.004486
C115  C     C_R   0.133933 0.534019 0.866207 -0.190275
C116  C     C_R   0.366068 0.034011 0.133796 -0.190252
C117  C     C_R   0.633933 0.034019 0.866210 -0.190261
C118  C     C_R   0.886116 0.499991 0.113826 -0.038547
C119  C     C_R   0.113884 0.499998 0.886174 -0.038517
C120  C     C_R   0.386116 0.999991 0.113825 -0.038551
C121  C     C_R   0.613884 0.999998 0.886174 -0.038512
C122  C     C_R   0.866080 0.465962 0.133849 -0.194604
C123  C     C_R   0.133919 0.465971 0.866147 -0.194609
C124  C     C_R   0.366080 0.965962 0.133848 -0.194618
C125  C     C_3   0.999733 0.500089 0.811222 0.004496
C126  C     C_R   0.633919 0.965971 0.866146 -0.194625
C127  C     C_R   0.826871 0.465993 0.172969 -0.158328
C128  C     C_R   0.173127 0.466005 0.827027 -0.158334
C129  C     C_R   0.326871 0.965993 0.172968 -0.158326
C130  C     C_R   0.673127 0.966005 0.827025 -0.158334
C131  C     C_R   0.807201 0.499972 0.192559 0.145193
C132  C     C_R   0.192799 0.499985 0.807441 0.145195
C133  C     C_R   0.307201 0.999972 0.192559 0.145192
C134  C     C_R   0.692799 0.999985 0.807441 0.145196
C135  C     C_R   0.000001 0.572180 0.499999 0.865815
C136  C     C_3   0.500271 0.000079 0.188773 0.004483
C137  C     C_R   0.500001 0.072180 0.499999 0.865842
C138  C     C_R   0.000047 0.500008 0.379379 0.807790
C139  C     C_R   0.999953 0.500013 0.620621 0.807842
C140  C     C_R   0.500047 0.000008 0.379379 0.807802
C141  C     C_R   0.499953 0.000014 0.620620 0.807869
C142  C     C_R   0.999999 0.427589 0.500001 0.775746
C143  C     C_R   0.499999 0.927589 0.500001 0.775746
C144  C     C_R   0.500000 0.572175 0.499999 0.791738
C145  C     C_R   1.000000 0.072175 0.499999 0.791738
C146  C     C_R   0.572277 0.499883 0.427687 0.791783
C147  C     C_3   0.499735 0.000092 0.811220 0.004496
C148  C     C_R   0.427723 0.499884 0.572313 0.791781
C149  C     C_R   0.072277 0.999883 0.427687 0.791783
C150  C     C_R   0.927723 0.999884 0.572313 0.791781
C151  C     C_3   0.964990 0.495407 0.264379 -0.157114
C152  C     C_3   0.034931 0.494836 0.735698 -0.157076
C153  C     C_3   0.464997 0.995352 0.264371 -0.157114
C154  C     C_3   0.534899 0.994619 0.735730 -0.157068
C155  C     C_R   0.500000 0.427617 0.500001 0.791604
C156  C     C_R   0.000000 0.927617 0.500001 0.791605
C157  C     C_R   0.499916 0.326706 0.556700 -0.154473
C158  C     C_R   0.673080 0.499902 0.270068 -0.156891
C159  C     C_R   0.500094 0.326709 0.443300 -0.154478
C160  C     C_R   0.999915 0.826706 0.556702 -0.154474
C161  C     C_R   0.000094 0.826708 0.443301 -0.154478
C162  C     C_R   0.499915 0.365953 0.556769 -0.188625
C163  C     C_R   0.500090 0.365956 0.443234 -0.188618
C164  C     C_R   0.999915 0.865953 0.556770 -0.188624
C165  C     C_R   0.000090 0.865956 0.443234 -0.188618
C166  C     C_R   0.500002 0.386039 0.500002 -0.037691
C167  C     C_R   0.000002 0.886039 0.500002 -0.037691
C168  C     C_R   0.500006 0.307010 0.499999 0.142845
Cu1   Cu    Cu3+1 0.000000 0.462740 0.000000 0.937644
Cu2   Cu    Cu3+1 0.500000 0.499910 0.437240 0.938906
Cu3   Cu    Cu3+1 0.000000 0.999910 0.562760 0.938907
Cu4   Cu    Cu3+1 0.000000 0.999910 0.437240 0.938906
Cu5   Cu    Cu3+1 0.500000 0.962740 0.000000 0.937665
Cu6   Cu    Cu3+1 0.000000 0.537260 0.000000 0.946506
Cu7   Cu    Cu3+1 0.500000 0.037260 0.000000 0.946489
Cu8   Cu    Cu3+1 0.037270 0.499960 0.462740 0.972227
Cu9   Cu    Cu3+1 0.962730 0.499960 0.537260 0.972212
Cu10  Cu    Cu3+1 0.537270 0.999960 0.462740 0.972221
Cu11  Cu    Cu3+1 0.462730 0.999960 0.537260 0.972202
Cu12  Cu    Cu3+1 0.500000 0.499910 0.562760 0.938907
H1    H     H_    0.960850 0.551463 0.328303 0.148402
H2    H     H_    0.188119 0.560435 0.812169 0.134074
H3    H     H_    0.311884 0.060422 0.187837 0.134076
H4    H     H_    0.688119 0.060435 0.812173 0.134073
H5    H     H_    0.880645 0.560674 0.119222 0.155283
H6    H     H_    0.119358 0.560681 0.880783 0.155267
H7    H     H_    0.380645 0.060674 0.119224 0.155285
H8    H     H_    0.619358 0.060681 0.880787 0.155265
H9    H     H_    0.880664 0.439305 0.119321 0.153394
H10   H     H_    0.119332 0.439313 0.880673 0.153388
H11   H     H_    0.380665 0.939306 0.119319 0.153397
H12   H     H_    0.040001 0.550818 0.670835 0.148224
H13   H     H_    0.619333 0.939313 0.880670 0.153387
H14   H     H_    0.811906 0.439524 0.187932 0.133088
H15   H     H_    0.188091 0.439537 0.812063 0.133085
H16   H     H_    0.311906 0.939524 0.187930 0.133089
H17   H     H_    0.688091 0.939537 0.812059 0.133085
H18   H     H_    0.499846 0.311729 0.600871 0.133795
H19   H     H_    0.500166 0.311735 0.399129 0.133796
H20   H     H_    0.999845 0.811730 0.600872 0.133796
H21   H     H_    0.000165 0.811734 0.399130 0.133797
H22   H     H_    0.499845 0.380523 0.601275 0.154128
H23   H     H_    0.460770 0.051402 0.328383 0.148392
H24   H     H_    0.500160 0.380528 0.398728 0.154132
H25   H     H_    0.999844 0.880524 0.601275 0.154128
H26   H     H_    0.000159 0.880528 0.398729 0.154132
H27   H     H_    0.970619 0.687901 0.617194 0.161765
H28   H     H_    0.029398 0.687911 0.382801 0.161765
H29   H     H_    0.470634 0.187901 0.617191 0.161766
H30   H     H_    0.529385 0.187910 0.382800 0.161765
H31   H     H_    0.499969 0.687970 0.399305 0.132395
H32   H     H_    0.500019 0.687967 0.600689 0.132398
H33   H     H_    0.999979 0.187970 0.399295 0.132394
H34   H     H_    0.540317 0.050570 0.670520 0.148166
H35   H     H_    0.000009 0.187967 0.600699 0.132397
H36   H     H_    0.936125 0.491584 0.274917 0.129370
H37   H     H_    0.063729 0.490537 0.725225 0.129406
H38   H     H_    0.436138 0.991484 0.274902 0.129374
H39   H     H_    0.563669 0.990141 0.725288 0.129423
H40   H     H_    0.499972 0.619188 0.398894 0.153798
H41   H     H_    0.500023 0.619185 0.601100 0.153802
H42   H     H_    0.999982 0.119188 0.398884 0.153798
H43   H     H_    0.000013 0.119185 0.601110 0.153801
H44   H     H_    0.939579 0.311823 0.560220 0.133005
H45   H     H_    0.687997 0.499934 0.412462 0.132882
H46   H     H_    0.060407 0.311827 0.439777 0.133005
H47   H     H_    0.439579 0.811823 0.560221 0.133007
H48   H     H_    0.560407 0.811827 0.439777 0.133006
H49   H     H_    0.939345 0.380619 0.560458 0.153902
H50   H     H_    0.060648 0.380622 0.439544 0.153905
H51   H     H_    0.439345 0.880619 0.560459 0.153907
H52   H     H_    0.560648 0.880622 0.439543 0.153910
H53   H     H_    0.975525 0.440262 0.313639 0.130351
H54   H     H_    0.023479 0.439874 0.687367 0.130137
H55   H     H_    0.475618 0.940224 0.313548 0.130331
H56   H     H_    0.312003 0.499945 0.587538 0.132881
H57   H     H_    0.523106 0.939730 0.687738 0.130058
H58   H     H_    0.039742 0.448759 0.171308 0.140678
H59   H     H_    0.959415 0.449431 0.829557 0.140403
H60   H     H_    0.539821 0.948821 0.171228 0.140653
H61   H     H_    0.459103 0.949686 0.829873 0.140299
H62   H     H_    0.064445 0.508672 0.224168 0.159849
H63   H     H_    0.935710 0.509744 0.775672 0.160316
H64   H     H_    0.564431 0.008773 0.224184 0.159892
H65   H     H_    0.435774 0.010146 0.775603 0.160492
H66   H     H_    0.025029 0.559982 0.186223 0.160109
H67   H     H_    0.187997 0.999934 0.412462 0.132882
H68   H     H_    0.975974 0.560396 0.812751 0.160352
H69   H     H_    0.524937 0.060021 0.186316 0.160136
H70   H     H_    0.476350 0.060546 0.812371 0.160440
H71   H     H_    0.688067 0.499902 0.210961 0.133417
H72   H     H_    0.311933 0.499914 0.789039 0.133417
H73   H     H_    0.188067 0.999902 0.210961 0.133417
H74   H     H_    0.811933 0.999914 0.789039 0.133417
H75   H     H_    0.619317 0.499872 0.279422 0.154056
H76   H     H_    0.380683 0.499877 0.720578 0.154056
H77   H     H_    0.119317 0.999872 0.279422 0.154056
H78   H     H_    0.812003 0.999945 0.587538 0.132881
H79   H     H_    0.880683 0.999877 0.720578 0.154056
H80   H     H_    0.619258 0.499904 0.481728 0.154007
H81   H     H_    0.380742 0.499908 0.518272 0.154006
H82   H     H_    0.119258 0.999904 0.481728 0.154007
H83   H     H_    0.880742 0.999908 0.518272 0.154006
H84   H     H_    0.811884 0.560422 0.187835 0.134077
I1    I     I_    0.958913 0.606213 0.669367 -0.425260
I2    I     I_    0.041107 0.606227 0.330627 -0.425072
I3    I     I_    0.458935 0.106214 0.669363 -0.425352
I4    I     I_    0.541088 0.106226 0.330629 -0.425115
O1    O     O_R   0.945630 0.468530 0.054370 -0.589570
O2    O     O_R   0.445630 0.499880 0.607360 -0.586233
O3    O     O_R   0.054370 0.999880 0.392640 -0.586234
O4    O     O_R   0.945630 0.999880 0.607360 -0.586233
O5    O     O_R   0.500000 0.445540 0.553030 -0.585917
O6    O     O_R   0.500000 0.445540 0.446970 -0.585920
O7    O     O_R   1.000000 0.945540 0.553030 -0.585917
O8    O     O_R   0.000000 0.945540 0.446970 -0.585919
O9    O     O_R   0.945630 0.531470 0.054380 -0.586810
O10   O     O_R   0.054370 0.531470 0.945620 -0.586839
O11   O     O_R   0.445630 0.031470 0.054380 -0.586799
O12   O     O_R   0.054370 0.468530 0.945630 -0.589595
O13   O     O_R   0.554370 0.031470 0.945620 -0.586836
O14   O     O_R   0.000010 0.468530 0.091570 -0.586487
O15   O     O_R   0.999990 0.468530 0.908430 -0.586398
O16   O     O_R   0.500010 0.968530 0.091570 -0.586476
O17   O     O_R   0.499990 0.968530 0.908430 -0.586364
O18   O     O_R   0.000010 0.531470 0.091580 -0.587433
O19   O     O_R   0.999990 0.531470 0.908420 -0.587537
O20   O     O_R   0.500010 0.031470 0.091580 -0.587444
O21   O     O_R   0.499990 0.031470 0.908420 -0.587575
O22   O     O_R   0.031460 0.554330 0.468560 -0.560392
O23   O     O_R   0.445630 0.968530 0.054370 -0.589573
O24   O     O_R   0.968540 0.554330 0.531440 -0.560428
O25   O     O_R   0.531460 0.054330 0.468560 -0.560398
O26   O     O_R   0.468540 0.054330 0.531440 -0.560446
O27   O     O_R   0.031470 0.499960 0.376970 -0.577509
O28   O     O_R   0.968530 0.499960 0.623030 -0.577539
O29   O     O_R   0.531470 0.999960 0.376970 -0.577516
O30   O     O_R   0.468530 0.999960 0.623030 -0.577556
O31   O     O_R   0.968530 0.499940 0.439910 -0.590568
O32   O     O_R   0.031470 0.499940 0.560090 -0.590584
O33   O     O_R   0.468530 0.999940 0.439910 -0.590567
O34   O     O_R   0.554370 0.968530 0.945630 -0.589604
O35   O     O_R   0.531470 0.999940 0.560090 -0.590588
O36   O     O_R   0.031490 0.445590 0.468510 -0.592378
O37   O     O_R   0.968510 0.445590 0.531490 -0.592383
O38   O     O_R   0.531490 0.945590 0.468510 -0.592368
O39   O     O_R   0.468510 0.945590 0.531490 -0.592374
O40   O     O_R   0.500010 0.554270 0.552980 -0.586441
O41   O     O_R   0.499990 0.554270 0.447020 -0.586441
O42   O     O_R   0.000010 0.054270 0.552980 -0.586441
O43   O     O_R   0.999990 0.054270 0.447020 -0.586441
O44   O     O_R   0.554380 0.499900 0.498630 -0.586302
O45   O     O_R   0.445620 0.499900 0.501370 -0.586302
O46   O     O_R   0.054380 0.999900 0.498630 -0.586302
O47   O     O_R   0.945620 0.999900 0.501370 -0.586302
O48   O     O_R   0.554370 0.499880 0.392640 -0.586234

loop_
_geom_bond_atom_site_label_1
_geom_bond_atom_site_label_2
_ccdc_geom_bond_type
C62   H54   S    
C87   C91   A    
C111  O16   A    
C57   C80   A    
C19   H1    S    
C90   C95   A    
C105  C131  A    
Cu5   O16   S    
C106  C132  A    
C21   C76   S    
C62   C152  S    
C4    C7    T    
C5    C6    T    
C56   C140  S    
C95   C99   S    
C73   H65   S    
C74   C114  S    
C55   C62   S    
C29   C33   A    
C67   H60   S    
C33   C36   A    
C55   C139  S    
C89   C94   A    
Cu11  O33   S    
C91   C96   S    
C31   H41   S    
C47   H48   S    
C56   C72   S    
C70   C74   S    
Cu1   Cu6   S    
C77   C147  S    
C130  C134  A    
Cu4   O3    S    
C157  C168  A    
Cu4   O43   S    
C19   C74   S    
C50   C53   A    
C108  H4    S    
Cu4   O47   S    
C27   C31   A    
C28   C32   A    
C158  H71   S    
C63   C153  S    
C86   C90   A    
C150  O4    A    
C115  H6    S    
C62   C66   S    
Cu3   O46   S    
C98   C102  T    
C4    C168  S    
C18   C137  S    
C1    O9    A    
C143  O39   A    
C68   H79   S    
C54   C70   S    
C83   H80   S    
C24   H74   S    
C41   C59   S    
C129  C133  A    
C69   C147  S    
C143  O38   A    
C103  C121  S    
C122  H9    S    
C30   H40   S    
C141  O35   A    
C35   C78   A    
C84   C88   A    
C22   C58   S    
C79   C148  S    
C54   C61   S    
C119  C123  A    
C81   C119  S    
Cu3   O42   S    
C13   C94   A    
C67   C136  S    
C139  O32   A    
C136  C153  S    
C126  H13   S    
C46   C79   A    
C45   C50   A    
C57   H77   S    
C127  C131  A    
C156  O8    A    
Cu3   O7    S    
C78   C146  S    
C101  C132  S    
C89   H67   S    
C48   C52   A    
Cu9   O28   S    
C37   C39   S    
C107  H3    S    
C126  C130  A    
Cu11  O26   S    
C77   H70   S    
Cu1   O15   S    
C154  H39   S    
C157  C162  A    
C124  H11   S    
C55   C71   S    
C75   H68   S    
C15   C18   A    
C51   C53   A    
C40   C41   T    
C61   H53   S    
C21   H23   S    
C58   C141  S    
C8    C23   A    
Cu10  Cu11  S    
C106  C115  A    
C149  O46   A    
C104  C134  S    
C162  H22   S    
C32   C36   A    
C105  C113  A    
Cu10  O38   S    
C79   C84   A    
C111  C136  S    
C29   H35   S    
C13   C57   A    
C11   C25   A    
C44   C59   A    
C65   C70   S    
Cu6   O18   S    
C67   C72   S    
C45   H47   S    
C122  C127  A    
C91   C158  A    
C145  O42   A    
C29   C38   A    
C17   C135  S    
C19   C151  S    
C111  O20   A    
C146  O44   A    
C43   C59   A    
C165  C167  A    
Cu5   O34   S    
C35   H75   S    
C112  O21   A    
C14   C17   A    
Cu3   O4    S    
Cu8   O27   S    
C155  O6    A    
Cu5   Cu7   S    
Cu2   O41   S    
C58   C64   S    
C80   C149  S    
C116  H7    S    
C30   C34   A    
C3    C161  A    
C9    C23   A    
C116  C120  A    
C20   C75   S    
Cu8   O36   S    
C8    H27   S    
Cu12  O5    S    
C61   C65   S    
C8    C12   A    
C113  H5    S    
C152  H37   S    
Cu10  O25   S    
C31   C34   A    
C82   C150  S    
C64   C69   S    
C123  H10   S    
C61   C151  S    
C109  C114  S    
C48   H49   S    
C19   C54   S    
C26   C30   A    
C115  C119  A    
C65   H58   S    
C112  O17   A    
C109  O18   A    
C93   C97   S    
C10   C25   A    
C28   H33   S    
C141  O30   A    
C142  O36   A    
C108  C117  A    
C138  O27   A    
C117  H8    S    
C140  O29   A    
C112  C147  S    
C68   C82   A    
C92   C120  S    
C102  C133  S    
C69   H61   S    
C96   C100  T    
C27   H32   S    
Cu10  O29   S    
C161  C165  A    
C107  C116  A    
C36   C145  S    
Cu6   O9    S    
C44   H46   S    
Cu12  O2    S    
C83   C87   A    
Cu12  O40   S    
C72   H64   S    
C128  H15   S    
C85   H82   S    
C34   C144  S    
C160  C164  A    
C137  O26   A    
Cu7   O11   S    
C15   I3    S    
C11   H30   S    
C22   C154  S    
C74   H66   S    
C94   C98   S    
C73   C77   S    
C162  C166  A    
C78   C83   A    
C103  O34   A    
C110  O19   A    
C12   C17   A    
C69   C73   S    
C130  H17   S    
C135  O24   A    
C155  O5    A    
C159  H19   S    
C99   C104  T    
C114  C151  S    
Cu11  O39   S    
C76   H69   S    
C46   H76   S    
Cu4   O8    S    
C39   C42   T    
C2    C93   A    
C163  H24   S    
C81   O10   A    
Cu7   O21   S    
C163  C166  A    
C24   C95   A    
C85   C89   A    
C47   C51   A    
C82   C86   A    
C20   C152  S    
Cu10  O35   S    
C75   C125  S    
C9    C14   A    
C108  C134  A    
C80   C85   A    
C2    H72   S    
C11   C16   A    
C66   C71   S    
C49   C52   A    
Cu1   O12   S    
C64   H57   S    
C33   H43   S    
Cu2   O45   S    
C151  H36   S    
C84   H81   S    
C86   H83   S    
C129  H16   S    
C150  O47   A    
Cu8   O32   S    
C164  C167  A    
C22   C77   S    
C3    C5    S    
C9    H28   S    
C20   H12   S    
C21   C56   S    
C26   C37   A    
C7    C25   S    
C164  H25   S    
C35   C158  A    
C71   H63   S    
C107  C133  A    
C38   C40   S    
C109  O14   A    
C139  O28   A    
C105  H84   S    
Cu6   O19   S    
C124  C129  A    
Cu7   O20   S    
C135  O22   A    
C24   C68   A    
C63   H55   S    
C1    O1    A    
Cu9   O31   S    
C138  O31   A    
C144  O40   A    
C140  O33   A    
C44   C49   A    
Cu3   Cu4   S    
C45   C60   A    
Cu1   O1    S    
C66   H59   S    
C81   O12   A    
C65   C114  S    
C72   C76   S    
C76   C136  S    
C100  C131  S    
C160  H20   S    
C2    C46   A    
C161  H21   S    
C157  H18   S    
C10   C15   A    
C118  C122  A    
C155  C166  S    
C64   C154  S    
C49   H50   S    
C159  C168  A    
Cu1   O14   S    
C147  C154  S    
C117  C121  A    
C12   I1    S    
C106  H2    S    
C156  O7    A    
C148  O45   A    
Cu12  O44   S    
C87   H45   S    
C26   H31   S    
C165  H26   S    
C47   C60   A    
C20   C55   S    
C128  C132  A    
C88   H56   S    
C63   C67   S    
C142  O37   A    
C148  O2    A    
C149  O3    A    
C127  H14   S    
C42   C60   S    
C144  O41   A    
C110  O15   A    
C156  C167  S    
C52   C142  S    
Cu2   Cu12  S    
C53   C143  S    
C125  C152  S    
C145  O43   A    
C10   H29   S    
C28   C38   A    
C13   H73   S    
C56   C63   S    
C50   H51   S    
C153  H38   S    
C16   I4    S    
Cu8   Cu9   S    
Cu6   O10   S    
C22   H34   S    
C3    C160  A    
C159  C163  A    
Cu8   O22   S    
Cu2   O6    S    
C43   C48   A    
Cu2   O48   S    
C88   C93   A    
Cu9   O24   S    
C51   H52   S    
Cu11  O30   S    
C32   H42   S    
C66   C125  S    
C92   O11   A    
C137  O25   A    
C43   H44   S    
C121  C126  A    
C21   C153  S    
C70   H62   S    
C71   C75   S    
C123  C128  A    
C54   C138  S    
C27   C37   A    
C6    C23   S    
C92   O23   A    
C146  O48   A    
Cu9   O37   S    
C1    C118  S    
Cu5   O23   S    
C110  C125  S    
C113  C118  A    
C120  C124  A    
Cu5   O17   S    
C16   C18   A    
Cu7   O13   S    
C103  O13   A    
C97   C101  T    
C14   I2    S    
C58   C73   S    
C90   H78   S    
