data_mof_unit_24857.cif
_audit_creation_date              2012-12-10T19:03:05-0500
_audit_creation_method            fapswitch 2.2
_symmetry_space_group_name_H-M    P1
_symmetry_Int_Tables_number       1
_space_group_crystal_system       triclinic
_cell_length_a                    10.73894
_cell_length_b                    10.846165
_cell_length_c                    9.569103
_cell_angle_alpha                 90.819964
_cell_angle_beta                  90.708558
_cell_angle_gamma                 90.749551
_cell_volume                      1114.27651461

loop_
_atom_site_label
_atom_site_type_symbol
_atom_type_description
_atom_site_fract_x
_atom_site_fract_y
_atom_site_fract_z
_atom_type_partial_charge
C1    C     C_R   0.496218 0.262539 0.498959 0.789073
C2    C     C_3   0.878417 0.496927 0.497407 0.046205
C3    C     C_3   0.932205 0.626198 0.541775 -0.138902
C4    C     C_3   0.926845 0.460605 0.349735 -0.335344
C5    C     C_R   0.464943 0.066365 0.620652 0.115851
C6    C     C_R   0.480978 0.129732 0.496496 -0.092768
C7    C     C_R   0.478212 0.062657 0.369837 -0.213162
C8    C     C_R   0.478972 0.934008 0.371250 -0.190969
C9    C     C_R   0.483188 0.871255 0.499213 -0.065447
C10   C     C_R   0.466005 0.939365 0.622373 0.101754
C11   C     C_3   0.536245 0.940012 0.757966 -0.458437
C12   C     C_R   0.260047 0.496636 0.499071 0.753047
C13   C     C_3   0.534007 0.079453 0.756006 -0.435147
C14   C     C_R   0.600096 0.543764 0.076790 0.252369
C15   C     C_R   0.405764 0.445974 0.072057 -0.080500
C16   C     C_R   0.405437 0.446464 0.923407 -0.073307
C17   C     C_R   0.602786 0.540988 0.929270 0.219234
C18   C     C_3   0.658463 0.669075 0.932133 -0.257754
C19   C     C_3   0.650457 0.670697 0.089973 -0.525530
C20   C     C_R   0.497079 0.737867 0.500493 0.845833
C21   C     C_R   0.740079 0.497435 0.499871 0.773512
C22   C     C_3   0.071503 0.397807 0.599709 -0.377561
C23   C     C_3   0.927939 0.399228 0.600633 -0.393984
C24   C     C_3   0.076327 0.624565 0.542840 -0.421184
C25   C     C_3   0.069799 0.464992 0.348623 -0.351489
C26   C     C_3   0.122282 0.495676 0.497389 0.132598
Cu1   Cu    Cu3+1 0.499990 0.499980 0.640670 0.949270
Cu2   Cu    Cu3+1 0.500010 0.500020 0.359330 0.945097
H1    H     H_    0.107387 0.416798 0.707603 0.184622
H2    H     H_    0.890223 0.522650 0.267986 0.217847
H3    H     H_    0.116034 0.695673 0.472713 0.180176
H4    H     H_    0.482492 0.108841 0.270369 0.164890
H5    H     H_    0.482636 0.884788 0.272384 0.155131
H6    H     H_    0.479394 0.901761 0.843798 0.185660
H7    H     H_    0.631727 0.903246 0.746803 0.257363
H8    H     H_    0.475743 0.120353 0.839501 0.192478
H9    H     H_    0.627873 0.122497 0.744750 0.212009
H10   H     H_    0.328454 0.403774 0.125695 0.135591
H11   H     H_    0.103741 0.304508 0.567986 0.156307
H12   H     H_    0.327848 0.404655 0.866433 0.138074
H13   H     H_    0.596575 0.735519 0.881965 0.152881
H14   H     H_    0.740888 0.673257 0.147550 0.222736
H15   H     H_    0.580772 0.736929 0.129210 0.198759
H16   H     H_    0.890579 0.306120 0.571009 0.163923
H17   H     H_    0.896085 0.419569 0.708499 0.220732
H18   H     H_    0.111631 0.647594 0.650132 0.163157
H19   H     H_    0.903145 0.642983 0.650156 0.163559
H20   H     H_    0.101060 0.536117 0.273475 0.205329
H21   H     H_    0.105273 0.374458 0.311371 0.152163
H22   H     H_    0.893685 0.365801 0.320969 0.163060
N1    N     N_R   0.500800 0.500930 0.147930 -0.186068
N2    N     N_R   0.500800 0.500890 0.852020 -0.200091
O1    O     O_R   0.500000 0.319640 0.618810 -0.581209
O2    O     O_R   0.500010 0.319680 0.381230 -0.586189
O3    O     O_R   0.317690 0.499960 0.618790 -0.593575
O4    O     O_R   0.317700 0.500000 0.381210 -0.594669
O5    O     O_R   0.499990 0.680320 0.618770 -0.580460
O6    O     O_R   0.500000 0.680360 0.381190 -0.583702
O7    O     O_R   0.682300 0.500000 0.618790 -0.577272
O8    O     O_R   0.682310 0.500040 0.381210 -0.582801
C27   C     C_2   0.882500 0.731330 0.455378 0.816841
O9    O     O_2   0.807130 0.802050 0.506259 -0.603756
O10   O     O_R   0.924413 0.749402 0.319344 -0.780571
H23   H     H_    0.885655 0.823887 0.274083 0.333825
C28   C     C_2   0.792114 0.678950 0.888600 0.877276
O11   O     O_2   0.862010 0.591610 0.902242 -0.637618
O12   O     O_R   0.838269 0.792793 0.844395 -0.763125
H24   H     H_    0.931445 0.792421 0.828621 0.324354

loop_
_geom_bond_atom_site_label_1
_geom_bond_atom_site_label_2
_ccdc_geom_bond_type
C8    C9    A    
C2    C4    S    
C1    O2    A    
Cu1   O1    S    
C15   H10   S    
C6    C7    A    
C23   H17   S    
C22   H1    S    
Cu2   O6    S    
C9    C10   A    
C9    C20   S    
C13   H9    S    
C15   N1    A    
C25   H20   S    
C19   H14   S    
C20   O5    A    
C24   H18   S    
C2    C21   S    
C11   H7    S    
C17   C18   S    
Cu2   O4    S    
C24   H3    S    
C7    C8    A    
Cu1   O7    S    
C18   C28   S    
C11   C13   S    
C14   C17   A    
C3    C24   S    
C12   O4    A    
Cu2   O8    S    
C16   H12   S    
C5    C6    A    
C5    C13   S    
C17   N2    A    
C3    H19   S    
C19   H15   S    
C21   O7    A    
C2    C3    S    
C8    H5    S    
C3    C27   S    
C14   N1    A    
Cu1   O5    S    
C27   O9    D    
C24   C26   S    
Cu2   N1    S    
C25   H21   S    
C12   O3    A    
C10   C11   S    
Cu1   O3    S    
C20   O6    A    
O12   H24   S    
C4    C25   S    
C5    C10   A    
C21   O8    A    
Cu1   N2    S    
C13   H8    S    
C16   N2    A    
C28   O11   D    
C22   C26   S    
C18   H13   S    
C4    H22   S    
C2    C23   S    
C27   O10   S    
C1    O1    A    
C22   C23   S    
C18   C19   S    
Cu2   O2    S    
C7    H4    S    
C1    C6    S    
C28   O12   S    
C25   C26   S    
C22   H11   S    
C14   C19   S    
C11   H6    S    
C4    H2    S    
C23   H16   S    
C15   C16   A    
C12   C26   S    
O10   H23   S    
Cu1   Cu2   S    
