data_mof_unit_60202.cif
_audit_creation_date              2012-10-26T18:18:32-0400
_audit_creation_method            fapswitch 2.2
_symmetry_space_group_name_H-M    P1
_symmetry_Int_Tables_number       1
_space_group_crystal_system       triclinic
_cell_length_a                    18.801202
_cell_length_b                    18.661264
_cell_length_c                    19.047415
_cell_angle_alpha                 109.642726
_cell_angle_beta                  109.488882
_cell_angle_gamma                 109.063188
_cell_volume                      5158.21494906

loop_
_atom_site_label
_atom_site_type_symbol
_atom_type_description
_atom_site_fract_x
_atom_site_fract_y
_atom_site_fract_z
_atom_type_partial_charge
C1    C     C_R   0.880212 0.380766 0.998556 0.582427
C2    C     C_R   0.184517 0.499424 0.182261 0.020652
C3    C     C_R   0.259220 0.503755 0.178084 -0.157727
C4    C     C_R   0.883657 0.502425 0.882388 0.563619
C5    C     C_R   0.324242 0.504794 0.243190 -0.155784
C6    C     C_R   0.313515 0.498648 0.311268 0.018080
C7    C     C_R   0.238196 0.492647 0.311468 0.017256
C8    C     C_3   0.190575 0.486254 0.359767 -0.269105
C9    C     C_3   0.120607 0.487450 0.289804 -0.277119
C10   C     C_R   0.254697 0.758207 0.073977 0.017010
C11   C     C_R   0.183257 0.685304 0.998712 0.019978
C12   C     C_R   0.813734 0.311906 0.996664 0.041204
C13   C     C_R   0.177191 0.677235 0.920252 -0.153728
C14   C     C_R   0.241804 0.742283 0.920172 -0.154707
C15   C     C_R   0.314466 0.814249 0.998563 0.019563
C16   C     C_R   0.118499 0.618898 0.000101 0.549948
C17   C     C_R   0.318205 0.818683 0.073908 0.018129
C18   C     C_3   0.370727 0.871766 0.169395 -0.273314
C19   C     C_3   0.298665 0.802096 0.169484 -0.271038
C20   C     C_R   0.497417 0.380751 0.379026 0.550712
C21   C     C_R   0.614725 0.497958 0.613299 0.555475
C22   C     C_R   0.496838 0.618837 0.615295 0.553112
C23   C     C_R   0.739775 0.240930 0.918137 0.104830
C24   C     C_R   0.378937 0.499638 0.378566 0.553042
C25   C     C_R   0.501407 0.881671 0.882362 0.551423
C26   C     C_R   0.618848 0.118858 0.000099 0.550174
C27   C     C_R   0.498715 0.118646 0.117706 0.548131
C28   C     C_R   0.117852 0.499625 0.117487 0.550667
C29   C     C_R   0.381299 0.881314 0.999908 0.551530
C30   C     C_R   0.481292 0.312008 0.234993 0.014434
C31   C     C_R   0.494713 0.312241 0.311636 0.018628
C32   C     C_R   0.496741 0.240351 0.318965 -0.154108
C33   C     C_R   0.497722 0.176156 0.255155 -0.156728
C34   C     C_R   0.675269 0.177557 0.919558 -0.149542
C35   C     C_R   0.493621 0.182108 0.182414 0.016374
C36   C     C_R   0.479578 0.247298 0.170864 0.028356
C37   C     C_3   0.526521 0.310328 0.149046 -0.275197
C38   C     C_3   0.528496 0.381481 0.219759 -0.271068
C39   C     C_R   0.508059 0.762682 0.686818 0.017645
C40   C     C_2   0.756158 0.507538 0.682486 -0.159253
C41   C     C_R   0.500251 0.685411 0.684644 0.017160
C42   C     C_R   0.495334 0.673996 0.752877 -0.154044
C43   C     C_R   0.498029 0.739576 0.819744 -0.156296
C44   C     C_R   0.502803 0.815631 0.817286 0.020542
C45   C     C_R   0.686047 0.182481 0.997879 -0.008970
C46   C     C_R   0.507490 0.823922 0.749120 0.018970
C47   C     C_3   0.511754 0.881006 0.709955 -0.275780
C48   C     C_3   0.511633 0.810638 0.638310 -0.271519
C49   C     C_2   0.678865 0.491835 0.676335 -0.115293
C50   C     C_2   0.817140 0.495163 0.743462 -0.160273
C51   C     C_2   0.821210 0.509716 0.818959 -0.111075
C52   C     C_R   0.826450 0.311067 0.072766 -0.024302
C53   C     C_3   0.744545 0.174924 0.788741 -0.284132
C54   C     C_R   0.764329 0.246624 0.073204 0.019146
C55   C     C_3   0.779300 0.309614 0.156958 -0.268434
C56   C     C_3   0.847217 0.380578 0.156182 -0.271859
C57   C     C_R   0.177503 0.494741 0.250877 0.018273
Cu1   Cu    Cu3+1 0.999590 0.561790 0.061400 0.921563
Cu2   Cu    Cu3+1 0.000410 0.438210 0.938600 0.927599
Cu3   Cu    Cu3+1 0.558560 0.561730 0.496790 0.917778
Cu4   Cu    Cu3+1 0.434970 0.438120 0.496790 0.925937
Cu5   Cu    Cu3+1 0.438600 0.999980 0.938570 0.922683
Cu6   Cu    Cu3+1 0.561400 0.999920 0.061330 0.924137
H1    H     H_    0.772937 0.524564 0.638809 0.144282
H2    H     H_    0.235768 0.735644 0.859437 0.126860
H3    H     H_    0.433680 0.872621 0.194715 0.143582
H4    H     H_    0.658173 0.465592 0.713372 0.106405
H5    H     H_    0.374729 0.936869 0.194472 0.132571
H6    H     H_    0.319897 0.762324 0.194244 0.134585
H7    H     H_    0.261498 0.827134 0.195245 0.146809
H8    H     H_    0.502062 0.236299 0.375758 0.124092
H9    H     H_    0.503521 0.123274 0.263412 0.122742
H10   H     H_    0.591855 0.318369 0.163130 0.123527
H11   H     H_    0.485152 0.296862 0.083639 0.143379
H12   H     H_    0.914172 0.408115 0.208162 0.130303
H13   H     H_    0.595038 0.430751 0.274937 0.149121
H14   H     H_    0.488255 0.409002 0.195098 0.133336
H15   H     H_    0.490050 0.615200 0.754794 0.129160
H16   H     H_    0.862274 0.478567 0.727987 0.141258
H17   H     H_    0.494167 0.729934 0.871631 0.125155
H18   H     H_    0.451949 0.886254 0.687717 0.143869
H19   H     H_    0.573835 0.944179 0.750445 0.127392
H20   H     H_    0.451520 0.775065 0.574941 0.133612
H21   H     H_    0.573461 0.833274 0.637032 0.144722
H22   H     H_    0.782844 0.535581 0.838620 0.107284
H23   H     H_    0.267874 0.507762 0.125817 0.124500
H24   H     H_    0.616607 0.125438 0.859821 0.121672
H25   H     H_    0.722023 0.317960 0.150910 0.123985
H26   H     H_    0.807269 0.295899 0.209007 0.143263
H27   H     H_    0.829105 0.429913 0.149312 0.150206
H28   H     H_    0.666373 0.228255 0.802519 0.243093
H29   H     H_    0.697359 0.107039 0.767408 0.118508
H30   H     H_    0.811469 0.188614 0.827195 0.175416
H31   H     H_    0.738911 0.180401 0.731083 0.141016
H32   H     H_    0.381760 0.509183 0.239750 0.124496
H33   H     H_    0.168428 0.422866 0.358996 0.148002
H34   H     H_    0.225631 0.545661 0.424114 0.134191
H35   H     H_    0.058565 0.424329 0.248128 0.131402
H36   H     H_    0.114531 0.547054 0.313832 0.141797
H37   H     H_    0.122500 0.621665 0.859560 0.125115
N1    N     N_2   0.726537 0.237016 0.838676 -0.500058
O1    O     O_R   0.909480 0.462010 0.051860 -0.521686
O2    O     O_R   0.552410 0.909770 0.962140 -0.509784
O3    O     O_R   0.538310 0.090150 0.948110 -0.517927
O4    O     O_R   0.910180 0.357650 0.948150 -0.492345
O5    O     O_R   0.642020 0.090090 0.051780 -0.501986
O6    O     O_R   0.447590 0.090130 0.037760 -0.503254
O7    O     O_R   0.551300 0.090080 0.141420 -0.516777
O8    O     O_R   0.357980 0.909810 0.948120 -0.510333
O9    O     O_R   0.461690 0.909750 0.051790 -0.512534
O10   O     O_R   0.910060 0.552180 0.962250 -0.507613
O11   O     O_R   0.910760 0.447820 0.858550 -0.500966
O12   O     O_R   0.445180 0.357580 0.407200 -0.508704
O13   O     O_R   0.089820 0.642350 0.051850 -0.508141
O14   O     O_R   0.090520 0.537990 0.948140 -0.518273
O15   O     O_R   0.089240 0.552180 0.141450 -0.513517
O16   O     O_R   0.089940 0.447820 0.037750 -0.513316
O17   O     O_R   0.549550 0.461960 0.407200 -0.516892
O18   O     O_R   0.638540 0.552110 0.586390 -0.502177
O19   O     O_R   0.534170 0.447730 0.586390 -0.512163
O20   O     O_R   0.548350 0.642270 0.586380 -0.506196
O21   O     O_R   0.443970 0.537890 0.586380 -0.515261
O22   O     O_R   0.459360 0.552110 0.407190 -0.516969
O23   O     O_R   0.354990 0.447740 0.407190 -0.506432
O24   O     O_R   0.448700 0.909820 0.858480 -0.513201

loop_
_geom_bond_atom_site_label_1
_geom_bond_atom_site_label_2
_ccdc_geom_bond_type
C55   C56   S    
C9    H35   S    
C41   C42   A    
C35   C36   A    
C8    H33   S    
C37   H11   S    
C50   H16   S    
C26   O5    A    
C20   O17   A    
C2    C57   A    
C7    C8    S    
C39   C41   A    
C38   H13   S    
C12   C23   A    
Cu5   Cu6   S    
Cu4   O23   S    
C29   O8    A    
C36   C37   S    
C21   O19   A    
C28   O16   A    
C30   C31   A    
C22   C41   S    
C23   N1    S    
C10   C17   A    
C18   H5    S    
C40   C49   D    
C24   O23   A    
C30   C38   S    
Cu3   O18   S    
C17   C18   S    
C18   C19   S    
C47   H19   S    
C55   H25   S    
C25   O24   A    
C28   O15   A    
C33   H9    S    
C26   O3    A    
C46   C47   S    
C31   C32   A    
C53   N1    S    
C8    C9    S    
C15   C29   S    
Cu1   O1    S    
C26   C45   S    
C52   C54   A    
C56   H27   S    
C4    O11   A    
C20   O12   A    
C9    H36   S    
C56   H12   S    
C13   C14   A    
C3    H23   S    
Cu1   O15   S    
C51   H22   S    
C1    C12   S    
H28   N1    S    
C25   C44   S    
C21   C49   S    
C12   C52   A    
C44   C46   A    
C22   O21   A    
C32   H8    S    
Cu5   O3    S    
C4    C51   S    
C53   H30   S    
Cu1   O10   S    
C29   O9    A    
Cu6   O2    S    
C25   O2    A    
Cu5   O6    S    
C27   C35   S    
Cu1   Cu2   S    
C24   O22   A    
C48   H21   S    
Cu4   O21   S    
Cu3   O22   S    
C8    H34   S    
C37   C38   S    
C11   C16   S    
C47   C48   S    
C27   O6    A    
C10   C19   S    
C23   C34   A    
C6    C24   S    
C53   H29   S    
Cu2   O11   S    
C50   C51   D    
C34   C45   A    
Cu2   O4    S    
Cu6   O5    S    
Cu3   O17   S    
C39   C46   A    
C4    O10   A    
C45   C54   A    
C42   H15   S    
C43   C44   A    
Cu4   O12   S    
C19   H6    S    
C42   C43   A    
Cu2   O16   S    
C16   O14   A    
C22   O20   A    
C15   C17   A    
C37   H10   S    
C54   C55   S    
C49   H4    S    
C53   H31   S    
C3    C5    A    
C16   O13   A    
Cu5   O24   S    
C6    C7    A    
C38   H14   S    
C18   H3    S    
C40   H1    S    
C48   H20   S    
C30   C36   A    
C32   C33   A    
Cu6   O9    S    
C2    C3    A    
C43   H17   S    
C21   O18   A    
C11   C13   A    
C5    C6    A    
Cu5   O8    S    
C27   O7    A    
C13   H37   S    
C40   C50   S    
C33   C35   A    
C14   H2    S    
C9    C57   S    
C34   H24   S    
C47   H18   S    
Cu3   O20   S    
C55   H26   S    
C10   C11   A    
C5    H32   S    
Cu2   O14   S    
Cu1   O13   S    
C14   C15   A    
Cu3   Cu4   S    
C19   H7    S    
C2    C28   S    
Cu6   O7    S    
C1    O1    A    
C7    C57   A    
C52   C56   S    
C1    O4    A    
C39   C48   S    
Cu4   O19   S    
C20   C31   S    
