data_mof_unit_56323.cif
_audit_creation_date              2012-12-10T17:35:38-0500
_audit_creation_method            fapswitch 2.2
_symmetry_space_group_name_H-M    P1
_symmetry_Int_Tables_number       1
_space_group_crystal_system       triclinic
_cell_length_a                    10.733022
_cell_length_b                    12.390707
_cell_length_c                    13.177021
_cell_angle_alpha                 116.813362
_cell_angle_beta                  76.760226
_cell_angle_gamma                 101.586675
_cell_volume                      1512.79409553

loop_
_atom_site_label
_atom_site_type_symbol
_atom_type_description
_atom_site_fract_x
_atom_site_fract_y
_atom_site_fract_z
_atom_type_partial_charge
C1    C     C_R   0.511450 0.854673 0.285883 0.835459
C2    C     C_3   0.121920 0.000449 0.501648 0.015386
C3    C     C_3   0.078043 0.127520 0.584566 -0.388526
C4    C     C_3   0.037317 0.904957 0.541637 -0.361593
C5    C     C_R   0.381385 0.267309 0.034367 -0.135519
C6    C     C_R   0.472356 0.225678 0.836609 -0.029050
C7    C     C_R   0.602226 0.809548 0.079129 -0.043750
C8    C     C_R   0.665163 0.725691 0.978185 -0.193328
C9    C     C_R   0.644897 0.602555 0.953172 -0.032541
C10   C     C_R   0.542557 0.558458 0.020037 -0.010719
C11   C     C_R   0.481230 0.643907 0.125981 -0.014814
C12   C     C_R   0.740020 0.999254 0.498780 0.839773
C13   C     C_R   0.497922 0.432743 0.985409 0.070635
C14   C     C_R   0.417739 0.392085 0.065607 0.081748
C15   C     C_R   0.360528 0.476380 0.169631 -0.242328
C16   C     C_R   0.379539 0.599050 0.192693 0.393921
C17   C     C_R   0.516292 0.348757 0.869870 -0.146685
C18   C     C_R   0.410819 0.183888 0.920248 -0.163724
C19   C     C_R   0.523747 0.770518 0.161287 -0.131498
C20   C     C_R   0.703740 0.344435 0.325105 -0.248352
C21   C     C_R   0.316832 0.755882 0.637227 0.053329
C22   C     C_R   0.261105 0.650627 0.649969 -0.072889
C23   C     C_R   0.483915 0.144655 0.713644 0.839512
C24   C     C_R   0.321834 0.544606 0.588169 -0.203346
C25   C     C_R   0.445491 0.545026 0.521257 -0.028069
C26   C     C_R   0.491068 0.651613 0.502094 0.291457
C27   C     C_R   0.521659 0.442729 0.467144 -0.074103
C28   C     C_R   0.630329 0.443950 0.381901 0.099655
C29   C     C_R   0.665677 0.545648 0.356300 -0.085915
C30   C     C_R   0.599160 0.647458 0.417754 -0.237468
C31   C     C_R   0.500201 0.341621 0.496852 0.118008
C32   C     C_R   0.673613 0.246619 0.354003 0.109672
C33   C     C_R   0.259997 0.000851 0.501602 0.820919
C34   C     C_3   0.957742 0.968489 0.376190 0.141874
C35   C     C_3   0.101201 0.969087 0.378462 -0.370262
C36   C     C_3   0.933864 0.127685 0.585076 0.242020
C37   C     C_3   0.895424 0.902388 0.537382 -0.416303
C38   C     C_3   0.878399 0.000357 0.499661 -0.011372
Cu1   Cu    Cu3+1 0.529690 0.098270 0.475420 0.992087
Cu2   Cu    Cu3+1 0.470310 0.901730 0.524580 0.967666
H1    H     H_    0.048920 0.927463 0.631119 0.187064
H2    H     H_    0.096736 0.152855 0.672646 0.211984
H3    H     H_    0.376838 0.088482 0.896309 0.156123
H4    H     H_    0.287453 0.445378 0.225622 0.185175
H5    H     H_    0.323184 0.235183 0.096325 0.154219
H6    H     H_    0.554368 0.379859 0.803359 0.158559
H7    H     H_    0.735935 0.757472 0.921275 0.159937
H8    H     H_    0.920394 0.875637 0.317100 0.141204
H9    H     H_    0.730178 0.170755 0.309829 0.197830
H10   H     H_    0.785589 0.341748 0.258713 0.177478
H11   H     H_    0.268315 0.837406 0.681811 0.122511
H12   H     H_    0.266165 0.462170 0.588166 0.162288
H13   H     H_    0.633682 0.721411 0.394670 0.196616
H14   H     H_    0.131946 0.878251 0.317644 0.207730
H15   H     H_    0.163092 0.035804 0.348213 0.216489
H16   H     H_    0.925019 0.198242 0.557689 0.178805
H17   H     H_    0.135331 0.197523 0.556494 0.174637
H18   H     H_    0.837638 0.917414 0.623398 0.239461
H19   H     H_    0.860315 0.810165 0.475448 0.174992
H20   H     H_    0.067400 0.812566 0.485583 0.237227
N1    N     N_R   0.574690 0.246280 0.438200 -0.214804
N2    N     N_R   0.426100 0.754320 0.561190 -0.200407
O1    O     O_R   0.537340 0.972510 0.318130 -0.579680
O2    O     O_R   0.487200 0.806530 0.359650 -0.563768
O3    O     O_R   0.707380 0.082980 0.479220 -0.540912
O4    O     O_R   0.657240 0.917000 0.520740 -0.613869
O5    O     O_R   0.512800 0.193470 0.640350 -0.578444
O6    O     O_R   0.462660 0.027490 0.681870 -0.591741
O7    O     O_R   0.342760 0.083000 0.479260 -0.594219
O8    O     O_R   0.292620 0.917020 0.520780 -0.562774
Cl1   Cl    Cl    0.944692 0.068335 0.314846 -0.672762
Cl2   Cl    Cl    0.845714 0.172367 0.728761 -0.625377
C39   C     C_1   0.624909 0.934996 0.096151 0.310803
N3    N     N_1   0.642807 0.034889 0.107865 -0.273293
C40   C     C_1   0.739037 0.527570 0.865535 0.275621
N4    N     N_1   0.814145 0.467334 0.795376 -0.194385
Cl3   Cl    Cl    0.253968 0.684144 0.287739 -0.666486
C41   C     C_1   0.773595 0.550636 0.268775 0.227230
N5    N     N_1   0.859728 0.554969 0.198931 -0.226499
C42   C     C_1   0.409626 0.342964 0.596602 0.281968
N6    N     N_1   0.336883 0.345293 0.677339 -0.312146
C43   C     C_1   0.138965 0.650683 0.723223 0.254364
N7    N     N_1   0.040982 0.651630 0.782568 -0.249720

loop_
_geom_bond_atom_site_label_1
_geom_bond_atom_site_label_2
_ccdc_geom_bond_type
C2    C35   S    
C24   H12   S    
C3    H2    S    
C39   N3    T    
C31   N1    A    
C7    C8    A    
C7    C39   S    
C11   C19   A    
C29   C30   A    
Cu2   O8    S    
C22   C43   S    
C28   C29   A    
C32   N1    A    
C16   Cl3   S    
C4    H1    S    
C15   C16   A    
Cu2   N2    S    
C34   C35   S    
C23   O5    A    
C20   H10   S    
C29   C41   S    
C8    C9    A    
C9    C10   A    
C37   H18   S    
C33   O7    A    
Cu2   O4    S    
C13   C14   A    
C35   H14   S    
Cu1   O3    S    
C6    C18   A    
C1    O1    A    
Cu1   N1    S    
C30   H13   S    
C1    C19   S    
C27   C31   A    
C31   C42   S    
C17   H6    S    
Cu1   Cu2   S    
C41   N5    T    
C5    C18   A    
C20   C28   A    
C25   C26   A    
C12   O4    A    
C35   H15   S    
C23   O6    A    
C2    C4    S    
C40   N4    T    
C37   C38   S    
C36   H16   S    
C11   C16   A    
C4    H20   S    
Cu1   O7    S    
C24   C25   A    
C5    C14   A    
C37   H19   S    
C33   O8    A    
C3    H17   S    
C2    C33   S    
C26   C30   A    
C7    C19   A    
C22   C24   A    
C34   H8    S    
C1    O2    A    
C21   H11   S    
C20   C32   A    
C6    C17   A    
C34   C38   S    
Cu1   O5    S    
C42   N6    T    
C10   C13   A    
C15   H4    S    
C25   C27   A    
Cu1   O1    S    
C12   O3    A    
Cu2   O2    S    
C13   C17   A    
C36   C38   S    
C2    C3    S    
C26   N2    A    
C8    H7    S    
C18   H3    S    
C5    H5    S    
C3    C36   S    
C6    C23   S    
C12   C38   S    
C32   H9    S    
C10   C11   A    
C4    C37   S    
C43   N7    T    
Cu2   O6    S    
C27   C28   A    
C14   C15   A    
C9    C40   S    
C21   N2    A    
C21   C22   A    
C34   Cl1   S    
C36   Cl2   S    
