data_mof_unit_39536.cif
_audit_creation_date              2013-03-05T15:45:34-0500
_audit_creation_method            fapswitch 2.2
_symmetry_space_group_name_H-M    P1
_symmetry_Int_Tables_number       1
_space_group_crystal_system       triclinic
_cell_length_a                    27.316421
_cell_length_b                    10.592202
_cell_length_c                    9.999395
_cell_angle_alpha                 89.10746
_cell_angle_beta                  89.667442
_cell_angle_gamma                 89.698262
_cell_volume                      2892.79691197

loop_
_atom_site_label
_atom_site_type_symbol
_atom_site_description
_atom_site_fract_x
_atom_site_fract_y
_atom_site_fract_z
_atom_type_partial_charge
O1    O     O_R   0.499990 0.319060 0.613040 -0.610655
O2    O     O_R   0.500010 0.319100 0.386900 -0.624938
C1    C     C_R   0.505226 0.262797 0.500824 0.942408
O3    O     O_R   0.428750 0.500000 0.613050 -0.608406
O4    O     O_R   0.428760 0.500040 0.386920 -0.604364
C2    C     C_R   0.405691 0.501979 0.500501 0.879719
Zn1   Zn    Zn3+2 0.499990 0.499970 0.650990 0.942046
Zn2   Zn    Zn3+2 0.500010 0.500030 0.349010 0.931571
O5    O     O_R   0.499990 0.680900 0.613100 -0.618096
O6    O     O_R   0.500010 0.680940 0.386960 -0.603128
O7    O     O_R   0.571240 0.499960 0.613080 -0.616187
O8    O     O_R   0.571250 0.500000 0.386950 -0.618780
C3    C     C_R   0.500111 0.738016 0.498822 0.932116
C4    C     C_R   0.594131 0.502819 0.499599 0.938528
C5    C     C_R   0.173182 0.523617 0.613813 0.505002
O9    O     O_2   0.195440 0.444084 0.701352 -0.560815
N1    N     N_R   0.199702 0.580657 0.513572 -0.354035
C6    C     C_R   0.177963 0.659390 0.421541 0.506985
C7    C     C_R   0.273498 0.505773 0.396012 -0.090629
C8    C     C_R   0.323966 0.485530 0.392813 -0.213891
C9    C     C_R   0.330301 0.571797 0.615593 -0.212330
C10   C     C_R   0.280244 0.594141 0.617528 -0.095675
C11   C     C_R   0.251544 0.560525 0.508390 0.300244
C12   C     C_R   0.099488 0.624761 0.530247 -0.052312
C13   C     C_R   0.122893 0.546550 0.625564 -0.020117
C14   C     C_R   0.095698 0.491631 0.729503 -0.134574
C15   C     C_R   0.127355 0.681543 0.427086 -0.020851
C16   C     C_R   0.352544 0.517834 0.503122 -0.048232
H1    H     H_    0.351729 0.599345 0.701061 0.166436
H2    H     H_    0.263622 0.637555 0.704122 0.153591
H3    H     H_    0.112865 0.430511 0.803613 0.190995
C17   C     C_R   0.645471 0.538006 0.498887 -0.174327
C18   C     C_R   0.969717 0.609634 0.650605 0.044124
C19   C     C_R   0.972634 0.720806 0.431779 0.043769
C20   C     C_R   0.945562 0.667431 0.540139 0.075875
C21   C     C_R   0.941375 0.569622 0.762010 -0.215430
C22   C     C_R   0.890661 0.572416 0.758134 -0.135753
C23   C     C_R   0.866555 0.616273 0.643712 -0.047109
C24   C     C_R   0.893737 0.667705 0.536111 -0.053230
C25   C     C_R   0.869060 0.715187 0.422617 -0.026512
C26   C     C_R   0.818101 0.702662 0.415257 0.504701
N2    N     N_R   0.792931 0.646153 0.518092 -0.322210
C27   C     C_R   0.815754 0.606301 0.632526 0.578696
C28   C     C_R   0.728826 0.516849 0.422364 -0.317991
C29   C     C_R   0.679669 0.479817 0.414019 0.464415
C30   C     C_R   0.659124 0.639206 0.579132 -0.421849
C31   C     C_R   0.707038 0.684276 0.576220 0.568411
C32   C     C_R   0.742246 0.618356 0.502360 0.172591
O10   O     O_2   0.789441 0.553511 0.733326 -0.551209
C33   C     C_R   0.020974 0.590422 0.644598 0.043315
C34   C     C_R   0.048186 0.644476 0.536945 0.072056
C35   C     C_R   0.024539 0.715751 0.434416 0.042914
C36   C     C_R   0.045755 0.513516 0.739487 -0.216483
H4    H     H_    0.757187 0.464224 0.371221 0.162900
H5    H     H_    0.870441 0.536882 0.844207 0.189007
H6    H     H_    0.957365 0.535579 0.854100 0.143208
H7    H     H_    0.027269 0.464151 0.819933 0.144688
O11   O     O_2   0.205282 0.716765 0.325769 -0.561183
C37   C     C_R   0.104282 0.759608 0.332598 -0.134312
H8    H     H_    0.340555 0.444111 0.305057 0.162142
H9    H     H_    0.251455 0.478863 0.311541 0.154467
H10   H     H_    0.125074 0.806903 0.254189 0.190943
C38   C     C_R   0.946618 0.772589 0.321695 -0.216294
C39   C     C_R   0.895819 0.769212 0.317233 -0.141099
O12   O     O_2   0.793959 0.744261 0.305615 -0.580796
C40   C     C_R   0.053829 0.776450 0.335876 -0.216233
H11   H     H_    0.964438 0.811434 0.234092 0.143519
H12   H     H_    0.632289 0.683435 0.643733 0.178121
H13   H     H_    0.877642 0.806727 0.229052 0.190414
H14   H     H_    0.038930 0.838960 0.260308 0.144295
C41   C     C_2   0.536205 0.927884 0.417958 -0.161267
C42   C     C_2   0.502038 0.871322 0.494076 -0.368279
H15   H     H_    0.562232 0.870741 0.362537 0.162598
H16   H     H_    0.473986 0.921149 0.549770 0.146444
C43   C     C_2   0.536816 0.065757 0.403344 0.196708
C44   C     C_2   0.517896 0.131477 0.506167 -0.419713
H17   H     H_    0.512410 0.086867 0.603641 0.148413
C45   C     C_2   0.517541 0.591884 0.923186 -0.130079
N3    N     N_2   0.500520 0.501330 0.852150 -0.189592
H18   H     H_    0.531824 0.674936 0.871939 0.162926
H19   H     H_    0.489625 0.419464 0.899361 0.164601
C46   C     C_2   0.520063 0.588460 0.073372 -0.137051
N4    N     N_2   0.500540 0.501360 0.147810 -0.200343
H20   H     H_    0.538958 0.665046 0.121625 0.159025
H21   H     H_    0.480444 0.432140 0.103581 0.164330
O13   O     O_3   0.721602 0.782367 0.657009 -0.616810
C47   C     C_3   0.697367 0.896414 0.620772 0.052889
H22   H     H_    0.703069 0.963807 0.703203 0.184564
H23   H     H_    0.657040 0.885536 0.611666 0.123034
C48   C     C_3   0.718897 0.954211 0.491684 -0.382025
H24   H     H_    0.759283 0.962059 0.501299 0.251213
H25   H     H_    0.710840 0.892120 0.406079 0.234444
C49   C     C_3   0.697260 0.084933 0.462705 -0.871901
H26   H     H_    0.656769 0.079774 0.455187 0.267327
H27   H     H_    0.712154 0.122251 0.366486 0.277007
H28   H     H_    0.706997 0.151088 0.543343 0.272596
C50   C     C_3   0.556427 0.129528 0.275933 -0.332377
C51   C     C_3   0.587318 0.044851 0.185699 -0.933369
H29   H     H_    0.618957 0.004726 0.241483 0.266669
H30   H     H_    0.564724 0.967515 0.145269 0.262053
H31   H     H_    0.601680 0.101755 0.100015 0.257091
H32   H     H_    0.525214 0.166258 0.215893 0.220066
H33   H     H_    0.579896 0.210211 0.304202 0.235770
O14   O     O_3   0.665804 0.374509 0.342480 -0.657300
C52   C     C_3   0.678331 0.386458 0.205067 0.070433
H34   H     H_    0.682326 0.289517 0.165406 0.167295
H35   H     H_    0.713907 0.434033 0.185619 0.147428
C53   C     C_3   0.637550 0.454254 0.127291 -0.351154
H36   H     H_    0.602647 0.402293 0.141969 0.241523
H37   H     H_    0.632800 0.551533 0.165531 0.225120
C54   C     C_3   0.649434 0.461809 0.977962 -0.896898
H38   H     H_    0.684040 0.514343 0.960551 0.291054
H39   H     H_    0.619525 0.512106 0.924269 0.270790
H40   H     H_    0.653132 0.365499 0.936547 0.260571

loop_
_geom_bond_atom_site_label_1
_geom_bond_atom_site_label_2
_geom_bond_distance
_ccdc_geom_bond_type
C47   H22   1.110953 S    
C49   H26   1.110762 S    
Zn2   N4    2.011678 S    
C17   C29   1.404893 A    
C20   C24   1.416461 A    
C7    C8    1.394311 A    
C12   C15   1.407725 A    
C50   C51   1.529384 S    
C40   H14   1.077109 S    
Zn1   O7    1.980706 S    
C52   H35   1.111791 S    
N1    C11   1.431766 S    
C21   C22   1.386247 A    
C37   C40   1.389019 A    
O4    C2    1.296044 A    
O7    C4    1.292460 A    
C45   H18   1.084410 S    
C5    C13   1.398352 A    
C5    O9    1.350329 S    
C43   C50   1.528226 S    
C18   C21   1.413739 A    
C53   H36   1.111255 S    
C5    N1    1.368152 A    
C19   C20   1.420056 A    
C26   N2    1.365774 A    
O5    C3    1.284615 A    
C19   C35   1.418986 A    
C6    O11   1.349708 S    
C2    C16   1.460722 S    
C54   H38   1.110949 S    
C8    H8    1.083112 S    
C50   H32   1.110830 S    
C12   C34   1.417106 A    
C14   H3    1.083546 S    
C49   H27   1.110297 S    
C9    C10   1.386545 A    
O3    Zn1   1.984814 S    
O14   C52   1.417992 S    
C33   C34   1.419562 A    
C52   C53   1.531576 S    
C38   H11   1.076819 S    
C33   C36   1.414107 A    
C34   C35   1.420113 A    
C31   O13   1.387311 S    
C12   C13   1.407264 A    
C42   H16   1.084349 S    
C24   C25   1.408125 A    
N3    H19   1.025529 S    
C36   H7    1.077232 S    
O13   C47   1.417592 S    
C27   O10   1.350378 S    
C26   O12   1.349557 S    
C8    C16   1.402757 A    
C18   C33   1.414876 A    
C9    H1    1.083285 S    
O1    C1    1.285601 A    
C7    C11   1.402684 A    
C43   C44   1.349496 D    
C30   H12   1.083693 S    
C22   C23   1.395518 A    
C21   H6    1.077684 S    
C29   O14   1.389900 S    
C45   C46   1.503612 S    
C48   H25   1.111284 S    
C31   C32   1.399540 A    
Zn2   O8    1.984817 S    
N1    C6    1.368288 A    
C54   H39   1.109588 S    
N2    C32   1.427104 S    
C39   H13   1.083529 S    
C44   H17   1.086481 S    
C1    C44   1.431874 S    
C50   H33   1.112041 S    
O3    C2    1.292719 A    
C25   C26   1.401487 A    
N4    H21   1.025507 S    
C9    C16   1.403259 A    
O8    C4    1.292215 A    
C51   H29   1.110444 S    
C49   H28   1.110842 S    
C46   H20   1.084802 S    
C47   H23   1.112599 S    
N2    C27   1.366265 A    
C14   C36   1.385886 A    
C35   C40   1.414538 A    
C28   C29   1.404220 A    
C48   C49   1.526888 S    
Zn1   N3    2.011891 S    
Zn1   O5    1.947741 S    
C30   C31   1.395542 A    
C37   H10   1.083449 S    
C10   H2    1.083078 S    
O1    Zn1   1.959239 S    
C17   C30   1.402309 A    
O2    Zn2   1.947742 S    
C6    C15   1.401899 A    
C4    C17   1.452935 S    
O6    C3    1.279763 A    
O4    Zn2   1.980704 S    
C3    C42   1.413315 S    
C51   H31   1.110760 S    
C52   H34   1.111101 S    
C51   H30   1.110825 S    
C25   C39   1.396025 A    
C53   C54   1.527202 S    
O2    C1    1.285885 A    
C13   C14   1.395430 A    
C41   C42   1.338956 D    
C15   C37   1.396698 A    
C41   C43   1.465579 S    
C45   N3    1.292474 D    
C48   H24   1.111589 S    
C23   C24   1.408028 A    
C7    H9    1.082807 S    
C19   C38   1.415544 A    
C18   C20   1.418940 A    
C53   H37   1.111334 S    
C54   H40   1.110838 S    
C38   C39   1.389268 A    
C22   H5    1.083557 S    
C28   H4    1.082660 S    
C23   C27   1.397516 A    
Zn2   O6    1.959238 S    
C46   N4    1.291808 D    
C47   C48   1.535322 S    
C41   H15   1.086404 S    
C10   C11   1.399056 A    
C28   C32   1.401652 A    
