data_mof_unit_37344.cif
_audit_creation_date              2012-12-10T18:47:43-0500
_audit_creation_method            fapswitch 2.2
_symmetry_space_group_name_H-M    P1
_symmetry_Int_Tables_number       1
_space_group_crystal_system       triclinic
_cell_length_a                    9.86823
_cell_length_b                    10.633255
_cell_length_c                    15.538881
_cell_angle_alpha                 90.155122
_cell_angle_beta                  69.157639
_cell_angle_gamma                 89.991893
_cell_volume                      1523.81366323

loop_
_atom_site_label
_atom_site_type_symbol
_atom_type_description
_atom_site_fract_x
_atom_site_fract_y
_atom_site_fract_z
_atom_type_partial_charge
C1    C     C_R   0.501277 0.739735 0.497648 0.916930
C2    C     C_R   0.498723 0.260265 0.502351 0.916930
C3    C     C_R   0.334806 0.539465 0.100979 -0.153755
C4    C     C_R   0.665195 0.460536 0.899020 -0.153755
C5    C     C_R   0.232485 0.559178 0.059761 -0.207878
C6    C     C_R   0.767516 0.440823 0.940238 -0.207878
C7    C     C_R   0.547246 0.933255 0.561431 -0.227950
C8    C     C_R   0.452754 0.066745 0.438569 -0.227950
C9    C     C_R   0.545420 0.062312 0.565240 0.160594
C10   C     C_R   0.454579 0.937688 0.434760 0.160594
C11   C     C_R   0.498444 0.127924 0.502937 -0.111678
C12   C     C_R   0.501556 0.872076 0.497063 -0.111678
C13   C     C_R   0.935137 0.390837 0.487750 -0.044704
C14   C     C_R   0.064862 0.609163 0.512251 -0.044704
C15   C     C_R   0.078523 0.390845 0.487919 -0.037602
C16   C     C_R   0.921477 0.609155 0.512081 -0.037602
C17   C     C_R   0.411078 0.510114 0.674819 0.908824
C18   C     C_R   0.588922 0.489886 0.325181 0.908823
C19   C     C_R   0.360526 0.534103 0.773611 -0.099368
C20   C     C_R   0.639474 0.465898 0.226389 -0.099368
C21   C     C_R   0.170734 0.562730 0.921650 -0.200014
C22   C     C_R   0.829266 0.437270 0.078350 -0.200014
C23   C     C_R   0.212665 0.542757 0.827005 -0.211729
C24   C     C_R   0.787335 0.457243 0.172995 -0.211729
C25   C     C_R   0.463404 0.553183 0.815458 0.092650
C26   C     C_R   0.536596 0.446818 0.184542 0.092650
C27   C     C_R   0.421658 0.533861 0.910003 0.056988
C28   C     C_R   0.578343 0.466139 0.089997 0.056987
C29   C     C_R   0.273663 0.551093 0.964421 0.147570
C30   C     C_R   0.726337 0.448908 0.035579 0.147570
C31   C     C_R   0.522676 0.500237 0.951509 0.075043
C32   C     C_R   0.477324 0.499764 0.048491 0.075042
H1    H     H_    0.121591 0.581239 0.102379 0.152743
H2    H     H_    0.878409 0.418762 0.897620 0.152743
H3    H     H_    0.869017 0.460555 0.204564 0.174619
H4    H     H_    0.130983 0.539445 0.795436 0.174619
H5    H     H_    0.058387 0.582772 0.961143 0.151093
H6    H     H_    0.941614 0.417228 0.038857 0.151093
H7    H     H_    0.300638 0.554456 0.174456 0.187430
H8    H     H_    0.699363 0.445546 0.825543 0.187430
H9    H     H_    0.581308 0.880480 0.609796 0.193964
H10   H     H_    0.418691 0.119520 0.390204 0.193964
H11   H     H_    0.887168 0.303225 0.477704 0.158032
H12   H     H_    0.112831 0.696774 0.522297 0.158033
H13   H     H_    0.137703 0.303207 0.478033 0.158081
H14   H     H_    0.862296 0.696792 0.521968 0.158081
N1    N     N_R   0.142780 0.500030 0.500020 -0.084979
N2    N     N_R   0.857220 0.499970 0.499980 -0.084979
O1    O     O_R   0.385370 0.683250 0.500010 -0.610180
O2    O     O_R   0.614630 0.316750 0.499990 -0.610181
O3    O     O_R   0.614700 0.683220 0.500000 -0.624132
O4    O     O_R   0.385300 0.316780 0.500000 -0.624132
O5    O     O_R   0.319830 0.500020 0.632250 -0.620441
O6    O     O_R   0.680170 0.499980 0.367750 -0.620441
O7    O     O_R   0.549160 0.499990 0.632240 -0.575467
O8    O     O_R   0.450840 0.500010 0.367760 -0.575467
Zn1   Zn    Zn3+2 0.346870 0.500020 0.500000 0.986910
Zn2   Zn    Zn3+2 0.653130 0.499980 0.500000 0.986910
I1    I     I_    0.354913 0.324257 0.249173 -0.372495
I2    I     I_    0.645086 0.675744 0.750827 -0.372495
I3    I     I_    0.604784 0.149693 0.670121 -0.339099
I4    I     I_    0.395212 0.850307 0.329881 -0.339099

loop_
_geom_bond_atom_site_label_1
_geom_bond_atom_site_label_2
_ccdc_geom_bond_type
C21   C29   A    
C13   N2    A    
C19   C23   A    
N2    Zn2   S    
C14   N1    A    
C25   I2    S    
C18   O8    A    
N1    Zn1   S    
C1    O3    A    
C26   I1    S    
C17   O7    A    
C26   C28   A    
C31   C32   A    
C15   N1    A    
C3    C5    A    
O2    Zn2   S    
C16   N2    A    
C28   C30   A    
C17   O5    A    
C3    H7    S    
O3    Zn2   S    
C9    C11   A    
C10   I4    S    
C1    C12   S    
C2    O4    A    
C8    C11   A    
C9    I3    S    
C2    C11   S    
C10   C12   A    
C28   C32   A    
C14   H12   S    
C21   H5    S    
C17   C19   S    
C8    H10   S    
C5    C29   A    
C13   C15   A    
C21   C23   A    
C3    C32   A    
C19   C25   A    
C22   C24   A    
C7    C12   A    
C24   H3    S    
C27   C29   A    
O4    Zn1   S    
C15   H13   S    
C27   C31   A    
C4    C31   A    
C6    H2    S    
C13   H11   S    
O1    Zn1   S    
O8    Zn1   S    
C18   C20   S    
C8    C10   A    
C23   H4    S    
O6    Zn2   S    
O7    Zn2   S    
C16   H14   S    
C2    O2    A    
C7    C9    A    
C18   O6    A    
O5    Zn1   S    
C22   C30   A    
C6    C30   A    
C14   C16   A    
C4    C6    A    
C1    O1    A    
C20   C24   A    
C4    H8    S    
C7    H9    S    
C5    H1    S    
C20   C26   A    
C25   C27   A    
C22   H6    S    
