data_mof_unit_47971.cif
_audit_creation_date              2013-03-05T15:51:39-0500
_audit_creation_method            fapswitch 2.2
_symmetry_space_group_name_H-M    P1
_symmetry_Int_Tables_number       1
_space_group_crystal_system       triclinic
_cell_length_a                    10.663877
_cell_length_b                    10.826772
_cell_length_c                    9.671214
_cell_angle_alpha                 88.759547
_cell_angle_beta                  91.045234
_cell_angle_gamma                 95.409665
_cell_volume                      1111.21257364

loop_
_atom_site_label
_atom_site_type_symbol
_atom_site_description
_atom_site_fract_x
_atom_site_fract_y
_atom_site_fract_z
_atom_type_partial_charge
O1    O     O_R   0.499990 0.319640 0.618810 -0.618740
O2    O     O_R   0.500000 0.319660 0.381240 -0.483574
C1    C     C_R   0.508683 0.263017 0.502616 0.867345
O3    O     O_R   0.316850 0.499960 0.618770 -0.613925
O4    O     O_R   0.316860 0.499980 0.381190 -0.541785
C2    C     C_R   0.259978 0.499569 0.498784 0.853672
Cu1   Cu    Cu3+1 0.499990 0.499990 0.640660 1.023463
Cu2   Cu    Cu3+1 0.500010 0.500010 0.359340 1.113214
O5    O     O_R   0.500000 0.680340 0.618760 -0.528933
O6    O     O_R   0.500010 0.680360 0.381190 -0.535827
O7    O     O_R   0.683140 0.500020 0.618810 -0.520923
O8    O     O_R   0.683150 0.500040 0.381230 -0.521167
C3    C     C_R   0.492152 0.736452 0.498481 0.914877
C4    C     C_R   0.740303 0.500390 0.501499 1.014015
C5    C     C_3   0.035182 0.393608 0.559720 -0.252111
C6    C     C_3   0.947291 0.404160 0.431741 0.544102
H1    H     H_    0.064503 0.306233 0.606939 0.198138
C7    C     C_3   0.877194 0.500743 0.505143 -0.315937
C8    C     C_3   0.965179 0.492091 0.632329 -0.070845
C9    C     C_3   0.055861 0.598349 0.571316 -0.371753
C10   C     C_3   0.967623 0.605240 0.443466 0.575173
C11   C     C_3   0.037190 0.508832 0.369516 0.533906
C12   C     C_3   0.123760 0.500065 0.496906 -0.256370
H2    H     H_    0.101914 0.678824 0.628157 0.177808
C13   C     C_R   0.498874 0.100394 0.769636 -0.092922
C14   C     C_R   0.422398 0.038474 0.873363 -0.085302
C15   C     C_R   0.354445 0.924953 0.842357 -0.095435
H3    H     H_    0.294095 0.875579 0.918207 0.185252
C16   C     C_R   0.371529 0.868543 0.717328 -0.150883
H4    H     H_    0.323065 0.777586 0.700609 0.139335
C17   C     C_R   0.447146 0.930267 0.614637 0.078541
C18   C     C_R   0.488755 0.055889 0.631593 0.032163
C19   C     C_R   0.520679 0.128570 0.509904 -0.193885
C20   C     C_R   0.547496 0.068549 0.388019 0.668463
H5    H     H_    0.564173 0.896123 0.291954 0.219962
C21   C     C_R   0.534732 0.940331 0.383768 -0.163620
C22   C     C_R   0.484809 0.870233 0.496416 -0.206710
C23   C     C_R   0.691526 0.653044 0.142087 0.648000
C24   C     C_R   0.792699 0.710850 0.071482 -0.233310
H6    H     H_    0.866460 0.766950 0.125952 0.265309
C25   C     C_R   0.792713 0.711245 0.931020 -0.378005
H7    H     H_    0.867035 0.766773 0.876862 0.218808
C26   C     C_R   0.692347 0.652713 0.858476 0.645396
C27   C     C_R   0.594255 0.573628 0.925235 0.040118
C28   C     C_R   0.594168 0.573598 0.075102 -0.012327
N1    N     N_R   0.501210 0.501210 0.147910 -0.174168
C29   C     C_R   0.407796 0.434427 0.070891 0.062128
H8    H     H_    0.336132 0.380493 0.867221 0.129962
C30   C     C_R   0.409604 0.434632 0.924293 -0.170268
N2    N     N_R   0.501250 0.501290 0.852040 -0.174186
F1    F     F_    0.890013 0.304897 0.359294 -0.574851
C31   C     C_2   0.296234 0.364288 0.132615 0.465227
H9    H     H_    0.205015 0.367744 0.081690 0.105311
O9    O     O_2   0.304312 0.294590 0.232052 -0.481521
F2    F     F_    0.689590 0.693109 0.271411 -0.614119
F3    F     F_    0.694155 0.689735 0.725920 -0.627549
C32   C     C_2   0.933496 0.484994 0.782426 0.500546
H10   H     H_    0.977702 0.553831 0.852175 0.065915
O10   O     O_2   0.860986 0.400740 0.827833 -0.485709
F4    F     F_    0.932993 0.714646 0.384751 -0.592975
F5    F     F_    0.074572 0.518432 0.233323 -0.642953
F6    F     F_    0.591914 0.133550 0.274695 -0.618659
C33   C     C_2   0.610141 0.186147 0.811049 0.494983
H11   H     H_    0.612439 0.237577 0.905835 0.074849
O11   O     O_2   0.703765 0.197540 0.739320 -0.470058
C34   C     C_2   0.414000 0.088194 0.014488 0.416421
H12   H     H_    0.457133 0.179342 0.039714 0.096426
O12   O     O_2   0.356428 0.027825 0.105153 -0.497523

loop_
_geom_bond_atom_site_label_1
_geom_bond_atom_site_label_2
_geom_bond_distance
_ccdc_geom_bond_type
O4    Cu2   1.968285 S    
C34   O12   1.221530 D    
C26   C27   1.440829 A    
C6    F1    1.382817 S    
C16   H4    1.082083 S    
C15   C16   1.388996 A    
C7    C10   1.533544 S    
C25   H7    1.084240 S    
C4    C7    1.459225 S    
C3    C22   1.457567 S    
C8    C9    1.545465 S    
C9    C12   1.540104 S    
Cu2   O8    1.960550 S    
C15   H3    1.083251 S    
C17   C18   1.402435 A    
C18   C19   1.429741 A    
C9    C10   1.544862 S    
C13   C18   1.427922 A    
C5    C12   1.541128 S    
C19   C20   1.405017 A    
C14   C15   1.402047 A    
Cu1   Cu2   2.720705 S    
C29   C30   1.418222 A    
O1    Cu1   1.968552 S    
C28   N1    1.395635 A    
C31   H9    1.085710 S    
C11   F5    1.382031 S    
C5    C8    1.545600 S    
C25   C26   1.379613 A    
C32   H10   1.084718 S    
C29   C31   1.477936 S    
O3    Cu1   1.960551 S    
H8    C30   1.083387 S    
C2    C12   1.452911 S    
O6    C3    1.305938 A    
C6    C7    1.534601 S    
C21   C22   1.398381 A    
C9    H2    1.110278 S    
C20   C21   1.383442 A    
C31   O9    1.216347 D    
C10   C11   1.532649 S    
Cu1   O7    1.968284 S    
O2    C1    1.318392 A    
O4    C2    1.298387 A    
C33   O11   1.221301 D    
O7    C4    1.297440 A    
Cu2   N1    2.044811 S    
C32   O10   1.218561 D    
O3    C2    1.299394 A    
C1    C19   1.473278 S    
C5    C6    1.547640 S    
C14   C34   1.485255 S    
Cu1   O5    1.959487 S    
C26   F3    1.334804 S    
C20   F6    1.357752 S    
C34   H12   1.079672 S    
C27   C28   1.449412 A    
C24   C25   1.358358 A    
C10   F4    1.381158 S    
C16   C17   1.407840 A    
C30   N2    1.354372 A    
C13   C33   1.490405 S    
C27   N2    1.396452 A    
C24   H6    1.083416 S    
C5    H1    1.110425 S    
O5    C3    1.305622 A    
N1    C29   1.389378 A    
C7    C8    1.539999 S    
C23   C28   1.438265 A    
C6    C11   1.533674 S    
C13   C14   1.420735 A    
C11   C12   1.532668 S    
C8    C32   1.495139 S    
Cu2   O6    1.968553 S    
O2    Cu2   1.959489 S    
C23   F2    1.333794 S    
C17   C22   1.410374 A    
Cu1   N2    2.044446 S    
O8    C4    1.303179 A    
C33   H11   1.081520 S    
O1    C1    1.300594 A    
H5    C21   1.083063 S    
C23   C24   1.379499 A    
