data_mof_unit_31513.cif
_audit_creation_date              2012-10-26T20:00:54-0400
_audit_creation_method            fapswitch 2.2
_symmetry_space_group_name_H-M    P1
_symmetry_Int_Tables_number       1
_space_group_crystal_system       triclinic
_cell_length_a                    11.66222
_cell_length_b                    13.010209
_cell_length_c                    13.395109
_cell_angle_alpha                 92.06582
_cell_angle_beta                  76.612981
_cell_angle_gamma                 99.904861
_cell_volume                      1947.70240421

loop_
_atom_site_label
_atom_site_type_symbol
_atom_type_description
_atom_site_fract_x
_atom_site_fract_y
_atom_site_fract_z
_atom_type_partial_charge
C1    C     C_R   0.521044 0.700889 0.501430 0.555267
C2    C     C_R   0.396324 0.489095 0.808849 -0.003642
C3    C     C_R   0.468432 0.185854 0.495602 -0.007434
C4    C     C_R   0.435960 0.492341 0.696180 0.541681
C5    C     C_R   0.534248 0.814360 0.501688 -0.026095
C6    C     C_R   0.655937 0.984330 0.512973 0.055200
C7    C     C_R   0.641235 0.875520 0.514181 -0.130015
C8    C     C_R   0.440290 0.861656 0.488053 -0.133251
C9    C     C_R   0.451474 0.969603 0.488535 0.026956
C10   C     C_R   0.558996 0.032151 0.502304 0.027488
C11   C     C_R   0.564447 0.140212 0.508223 -0.110528
C12   C     C_R   0.435237 0.473610 0.979475 0.014389
C13   C     C_R   0.364075 0.123249 0.479373 -0.119805
C14   C     C_R   0.355369 0.015544 0.476542 -0.120284
C15   C     C_R   0.949771 0.605483 0.586488 -0.165352
C16   C     C_R   0.479173 0.299134 0.498403 0.546019
C17   C     C_R   0.829864 0.594147 0.579459 0.055000
C18   C     C_R   0.854607 0.452491 0.464645 0.055273
C19   C     C_R   0.975634 0.460550 0.469848 -0.000699
C20   C     C_R   0.023921 0.538605 0.531117 0.005628
C21   C     C_R   0.145316 0.547401 0.535440 0.044843
C22   C     C_R   0.169285 0.404210 0.422590 0.069072
C23   C     C_R   0.464073 0.454189 0.872199 0.006077
C24   C     C_R   0.049370 0.392818 0.415555 -0.175251
C25   C     C_R   0.563338 0.502256 0.303887 0.553233
C26   C     C_R   0.703644 0.397908 0.048412 -0.124044
C27   C     C_R   0.596403 0.485832 0.193005 -0.002051
C28   C     C_R   0.292723 0.529514 0.853770 -0.159123
C29   C     C_R   0.254025 0.533286 0.959456 -0.131920
C30   C     C_R   0.321231 0.502619 0.023566 0.062994
C31   C     C_2   0.774336 0.044038 0.520274 0.555691
C32   C     C_2   0.259378 0.487132 0.133077 0.547534
C33   C     C_R   0.522223 0.463205 0.036355 0.045416
C34   C     C_R   0.620143 0.412257 0.991793 0.047990
C35   C     C_R   0.633931 0.376638 0.891158 -0.131585
C36   C     C_R   0.558216 0.398491 0.831647 -0.113483
C37   C     C_R   0.518971 0.507132 0.133961 -0.087685
C38   C     C_R   0.690406 0.432687 0.149423 -0.127640
Cu1   Cu    Cu3+1 0.386470 0.492430 0.492410 0.960712
Cu2   Cu    Cu3+1 0.613530 0.507570 0.507590 0.943297
H1    H     H_    0.750818 0.414979 0.194336 0.134705
H2    H     H_    0.773390 0.646151 0.622189 0.136256
H3    H     H_    0.706075 0.334751 0.857080 0.119227
H4    H     H_    0.816793 0.393468 0.416888 0.133360
H5    H     H_    0.777427 0.357547 0.015331 0.119698
H6    H     H_    0.455913 0.557897 0.166381 0.144015
H7    H     H_    0.239677 0.556684 0.806835 0.133871
H8    H     H_    0.168691 0.557608 0.991337 0.158994
H9    H     H_    0.573009 0.368686 0.754226 0.149622
H10   H     H_    0.642167 0.189642 0.524721 0.172132
H11   H     H_    0.908887 0.162385 0.467323 0.334523
H12   H     H_    0.289027 0.157366 0.469357 0.138401
H13   H     H_    0.150417 0.540247 0.256619 0.343517
H14   H     H_    0.273385 0.968117 0.465236 0.122686
H15   H     H_    0.714808 0.838443 0.522918 0.157982
H16   H     H_    0.357689 0.814469 0.477650 0.131612
H17   H     H_    0.183279 0.606707 0.582846 0.114767
H18   H     H_    0.225273 0.351229 0.381126 0.169421
H19   H     H_    0.984133 0.666131 0.634639 0.098392
H20   H     H_    0.014918 0.331852 0.367779 0.127064
N1    N     N_R   0.215880 0.481050 0.481000 -0.235096
N2    N     N_R   0.784100 0.518950 0.519000 -0.234729
O1    O     O_R   0.419710 0.645650 0.494620 -0.510223
O2    O     O_R   0.827924 0.129278 0.455373 -0.720670
O3    O     O_2   0.267881 0.410610 0.179507 -0.533307
O4    O     O_R   0.187926 0.558509 0.182030 -0.708047
O5    O     O_R   0.611450 0.658430 0.507430 -0.506361
O6    O     O_R   0.357340 0.490460 0.641450 -0.502098
O7    O     O_R   0.549080 0.503250 0.654260 -0.509517
O8    O     O_R   0.388550 0.341570 0.492570 -0.508716
O9    O     O_R   0.580290 0.354350 0.505380 -0.518854
O10   O     O_R   0.450920 0.496750 0.345740 -0.478900
O11   O     O_R   0.642660 0.509540 0.358550 -0.500083
O12   O     O_2   0.827382 0.015828 0.580403 -0.523517

loop_
_geom_bond_atom_site_label_1
_geom_bond_atom_site_label_2
_ccdc_geom_bond_type
C28   H7    S    
Cu2   O9    S    
Cu1   O6    S    
C35   C36   A    
C7    H15   S    
C8    H16   S    
C12   C23   A    
C1    C5    S    
C28   C29   A    
C18   C19   A    
C27   C38   A    
Cu2   N2    S    
Cu2   O11   S    
C34   C35   A    
C17   H2    S    
C26   H5    S    
C26   C34   A    
C19   C20   A    
C8    C9    A    
Cu2   O5    S    
Cu1   O10   S    
C35   H3    S    
C9    C10   A    
C21   N1    A    
C3    C13   A    
C6    C31   S    
C13   C14   A    
C16   O9    A    
C1    O1    A    
C4    O7    A    
C5    C7    A    
C15   C20   A    
Cu1   N1    S    
Cu2   O7    S    
C29   H8    S    
C16   O8    A    
C38   H1    S    
Cu1   Cu2   S    
C4    O6    A    
C26   C38   A    
C31   O12   D    
C33   C37   A    
C2    C4    S    
C9    C14   A    
C6    C10   A    
C21   H17   S    
C29   C30   A    
C18   H4    S    
C17   N2    A    
C13   H12   S    
C24   H20   S    
C33   C34   A    
C25   O10   A    
H13   O4    S    
C14   H14   S    
C22   C24   A    
C32   O4    S    
C15   C17   A    
C12   C30   A    
C15   H19   S    
C31   O2    S    
C18   N2    A    
H11   O2    S    
C22   H18   S    
C5    C8    A    
C6    C7    A    
C25   C27   S    
Cu1   O1    S    
C19   C24   A    
C12   C33   A    
C11   H10   S    
C22   N1    A    
C30   C32   S    
C27   C37   A    
C1    O5    A    
Cu1   O8    S    
C25   O11   A    
C3    C11   A    
C10   C11   A    
C3    C16   S    
C20   C21   A    
C23   C36   A    
C2    C23   A    
C2    C28   A    
C37   H6    S    
C36   H9    S    
C32   O3    D    
