data_mof_unit_53077.cif
_audit_creation_date              2012-12-10T18:55:56-0500
_audit_creation_method            fapswitch 2.2
_symmetry_space_group_name_H-M    P1
_symmetry_Int_Tables_number       1
_space_group_crystal_system       triclinic
_cell_length_a                    10.597648
_cell_length_b                    9.825415
_cell_length_c                    14.868229
_cell_angle_alpha                 90.075363
_cell_angle_beta                  90.526296
_cell_angle_gamma                 90.006446
_cell_volume                      1548.10685457

loop_
_atom_site_label
_atom_site_type_symbol
_atom_type_description
_atom_site_fract_x
_atom_site_fract_y
_atom_site_fract_z
_atom_type_partial_charge
C1    C     C_R   0.260336 0.500021 0.499853 1.047571
C2    C     C_R   0.739664 0.500032 0.499820 1.056234
C3    C     C_R   0.496112 0.499921 0.327368 0.991752
C4    C     C_R   0.498970 0.500048 0.672400 0.989313
C5    C     C_R   0.571422 0.072145 0.560957 -0.035256
C6    C     C_R   0.428756 0.927856 0.438899 -0.052231
C7    C     C_R   0.428766 0.071867 0.438893 -0.058242
C8    C     C_R   0.571424 0.928141 0.560951 -0.049309
C9    C     C_R   0.066067 0.455279 0.577044 0.310655
C10   C     C_R   0.933925 0.545632 0.422653 0.310083
C11   C     C_R   0.935874 0.455209 0.576982 0.303878
C12   C     C_R   0.064181 0.545619 0.422674 0.298985
C13   C     C_R   0.483123 0.618901 0.090307 0.456097
C14   C     C_R   0.525842 0.399690 0.912119 0.492507
C15   C     C_R   0.375385 0.587839 0.897346 0.496613
C16   C     C_R   0.397597 0.386371 0.097037 0.506092
C17   C     C_R   0.499151 0.618527 0.182886 -0.282168
C18   C     C_R   0.542578 0.400608 0.819887 -0.260572
C19   C     C_R   0.400027 0.593445 0.806123 -0.257694
C20   C     C_R   0.424509 0.384910 0.189372 -0.325971
C21   C     C_R   0.475488 0.500204 0.231435 -0.115780
C22   C     C_R   0.482853 0.499810 0.767884 -0.152181
C23   C     C_R   0.433980 0.502015 0.047910 -0.046752
C24   C     C_R   0.441303 0.493528 0.950862 -0.059950
C25   C     C_R   0.871939 0.500170 0.499768 -0.343649
C26   C     C_R   0.128081 0.500167 0.499819 -0.346825
H1    H     H_    0.628521 0.126938 0.609632 0.156044
H2    H     H_    0.371828 0.873096 0.390094 0.156585
H3    H     H_    0.371867 0.126404 0.390068 0.128403
H4    H     H_    0.628526 0.873580 0.609619 0.140944
H5    H     H_    0.534212 0.709241 0.216178 0.186322
H6    H     H_    0.604018 0.325952 0.789215 0.196765
H7    H     H_    0.351425 0.668165 0.764893 0.190373
H8    H     H_    0.406435 0.294867 0.228872 0.165393
N1    N     N_R   0.500000 0.857200 0.500000 -0.088270
N2    N     N_R   0.500000 0.142800 0.500000 -0.086468
O1    O     O_R   0.316770 0.614620 0.499990 -0.603400
O2    O     O_R   0.683230 0.385380 0.500010 -0.601603
O3    O     O_R   0.683230 0.614620 0.500010 -0.599773
O4    O     O_R   0.316770 0.385380 0.499990 -0.599707
O5    O     O_R   0.499990 0.614660 0.369060 -0.609149
O6    O     O_R   0.500010 0.385340 0.630940 -0.597574
O7    O     O_R   0.500010 0.614660 0.630940 -0.639929
O8    O     O_R   0.499990 0.385340 0.369060 -0.643486
Zn1   Zn    Zn3+2 0.500000 0.653120 0.500000 0.999898
Zn2   Zn    Zn3+2 0.500000 0.346880 0.500000 1.003750
O9    O     O_3   0.510217 0.734556 0.040581 -0.608160
C27   C     C_3   0.640191 0.767805 0.045826 0.043125
H9    H     H_    0.678165 0.763605 0.976556 0.168427
H10   H     H_    0.698480 0.696444 0.087373 0.141530
C28   C     C_3   0.655330 0.912911 0.081878 -0.310981
H11   H     H_    0.603485 0.984828 0.037248 0.254500
H12   H     H_    0.614321 0.919620 0.150227 0.217213
C29   C     C_3   0.793821 0.955166 0.086822 -0.922233
H13   H     H_    0.847966 0.884525 0.130869 0.291541
H14   H     H_    0.801168 0.059489 0.115164 0.265098
H15   H     H_    0.835652 0.955234 0.018653 0.260511
O10   O     O_3   0.585770 0.301022 0.963339 -0.611562
C30   C     C_3   0.702418 0.350640 0.996964 0.052358
H16   H     H_    0.712965 0.312901 0.067054 0.185897
H17   H     H_    0.708372 0.464037 0.000706 0.104091
C31   C     C_3   0.811005 0.294908 0.940496 -0.319204
H18   H     H_    0.796613 0.184362 0.928141 0.242949
H19   H     H_    0.812095 0.347901 0.874596 0.256053
C32   C     C_3   0.938301 0.315272 0.987448 -0.930848
H20   H     H_    0.953228 0.424169 0.003934 0.266726
H21   H     H_    0.015170 0.281076 0.942479 0.283579
H22   H     H_    0.942797 0.254828 0.050464 0.257112
O11   O     O_3   0.293386 0.681098 0.934650 -0.604720
C33   C     C_3   0.168819 0.629859 0.929351 0.075107
H23   H     H_    0.147469 0.575151 0.992844 0.164773
H24   H     H_    0.152971 0.558413 0.871704 0.177073
C34   C     C_3   0.077840 0.749423 0.918006 -0.292145
H25   H     H_    0.088969 0.820848 0.975612 0.231577
H26   H     H_    0.101238 0.804916 0.855211 0.238705
C35   C     C_3   0.940894 0.701914 0.912394 -0.965018
H27   H     H_    0.928930 0.622523 0.859708 0.303812
H28   H     H_    0.879480 0.789537 0.894735 0.262251
H29   H     H_    0.910779 0.660769 0.978293 0.257627
O12   O     O_3   0.351654 0.273571 0.049648 -0.609458
C36   C     C_3   0.265489 0.192359 0.098259 0.081476
H30   H     H_    0.185693 0.167693 0.052113 0.169414
H31   H     H_    0.221970 0.245033 0.156710 0.138007
C37   C     C_3   0.328693 0.058140 0.125750 -0.366065
H32   H     H_    0.358291 0.002560 0.064277 0.274307
H33   H     H_    0.414432 0.078571 0.167038 0.208976
C38   C     C_3   0.239432 0.967888 0.179187 -0.859482
H34   H     H_    0.211389 0.019721 0.242370 0.255451
H35   H     H_    0.287783 0.871067 0.196757 0.289815
H36   H     H_    0.153691 0.943912 0.138621 0.269105
Cl1   Cl    Cl    0.151026 0.403431 0.674343 -0.586305
Cl2   Cl    Cl    0.848780 0.598648 0.325670 -0.590660
Cl3   Cl    Cl    0.853226 0.403006 0.674083 -0.640703
Cl4   Cl    Cl    0.146925 0.598706 0.325740 -0.598957

loop_
_geom_bond_atom_site_label_1
_geom_bond_atom_site_label_2
_ccdc_geom_bond_type
C38   H34   S    
C7    H3    S    
C6    H2    S    
C7    N2    A    
C14   C18   A    
C37   C38   S    
C9    Cl1   S    
C36   H30   S    
O4    Zn2   S    
C35   H28   S    
C11   C25   A    
C5    N2    A    
C6    N1    A    
C13   C23   A    
O6    Zn2   S    
C14   C24   A    
C31   H19   S    
C1    O4    A    
C5    H1    S    
C2    O3    A    
C27   C28   S    
C3    O5    A    
C32   H21   S    
C23   C24   S    
C35   H29   S    
N2    Zn2   S    
C33   H23   S    
C1    O1    A    
O3    Zn1   S    
C20   H8    S    
C11   Cl3   S    
C27   H10   S    
C10   Cl2   S    
C30   H16   S    
C34   H26   S    
C12   Cl4   S    
C15   O11   S    
C36   H31   S    
O8    Zn2   S    
C9    C26   A    
C34   H25   S    
C14   O10   S    
C29   H14   S    
C3    O8    A    
C30   H17   S    
C28   H11   S    
C19   C22   A    
C35   H27   S    
C19   H7    S    
C13   O9    S    
O10   C30   S    
C17   C21   A    
C12   C26   A    
C28   H12   S    
C8    N1    A    
C15   C19   A    
C31   H18   S    
C4    C22   S    
C2    O2    A    
O9    C27   S    
C16   C20   A    
C32   H22   S    
C33   C34   S    
C37   H32   S    
O7    Zn1   S    
C10   C12   A    
C10   C25   A    
C27   H9    S    
C16   C23   A    
C9    C11   A    
C1    C26   S    
C17   H5    S    
C34   C35   S    
C3    C21   S    
C18   H6    S    
O1    Zn1   S    
N1    Zn1   S    
C36   C37   S    
C29   H13   S    
C15   C24   A    
C30   C31   S    
C31   C32   S    
C18   C22   A    
C37   H33   S    
O12   C36   S    
C5    C8    A    
C6    C7    A    
C4    O7    A    
C13   C17   A    
C28   C29   S    
C8    H4    S    
C38   H35   S    
C4    O6    A    
C2    C25   S    
O11   C33   S    
O2    Zn2   S    
C20   C21   A    
C32   H20   S    
C38   H36   S    
O5    Zn1   S    
C33   H24   S    
C16   O12   S    
C29   H15   S    
