data_mof_unit_42341.cif
_audit_creation_date              2013-03-05T15:55:19-0500
_audit_creation_method            fapswitch 2.2
_symmetry_space_group_name_H-M    P1
_symmetry_Int_Tables_number       1
_space_group_crystal_system       triclinic
_cell_length_a                    27.736361
_cell_length_b                    10.674605
_cell_length_c                    9.924983
_cell_angle_alpha                 89.737317
_cell_angle_beta                  90.878305
_cell_angle_gamma                 93.301081
_cell_volume                      2933.29566596

loop_
_atom_site_label
_atom_site_type_symbol
_atom_site_description
_atom_site_fract_x
_atom_site_fract_y
_atom_site_fract_z
_atom_type_partial_charge
O1    O     O_R   0.500000 0.316780 0.614690 -0.683419
O2    O     O_R   0.500000 0.316750 0.385360 -0.560477
C1    C     C_R   0.502608 0.259730 0.501506 0.895858
O3    O     O_R   0.428760 0.500030 0.614650 -0.582099
O4    O     O_R   0.428750 0.500010 0.385320 -0.489879
C2    C     C_R   0.405928 0.499975 0.499103 0.992812
Zn1   Zn    Zn3+2 0.500000 0.500020 0.653130 0.978699
Zn2   Zn    Zn3+2 0.500000 0.499980 0.346870 1.047441
O5    O     O_R   0.500000 0.683250 0.614640 -0.610270
O6    O     O_R   0.500000 0.683220 0.385310 -0.632831
O7    O     O_R   0.571250 0.499990 0.614680 -0.661017
O8    O     O_R   0.571240 0.499970 0.385350 -0.556269
C3    C     C_R   0.494166 0.737905 0.499644 0.862792
C4    C     C_R   0.593967 0.500246 0.500933 0.907334
C5    C     C_R   0.174755 0.386457 0.514477 0.608457
O9    O     O_2   0.197746 0.278657 0.524658 -0.526400
N1    N     N_R   0.200740 0.497910 0.498318 -0.309534
C6    C     C_R   0.179085 0.609285 0.488457 0.632332
C7    C     C_R   0.276136 0.502278 0.373326 0.417118
C8    C     C_R   0.326841 0.503189 0.373936 0.457764
C9    C     C_R   0.327504 0.496589 0.619598 0.575942
C10   C     C_R   0.277544 0.495704 0.618190 -0.279419
C11   C     C_R   0.252068 0.498449 0.496292 0.100505
C12   C     C_R   0.101145 0.497547 0.509915 -0.062751
C13   C     C_R   0.124348 0.384060 0.520455 -0.068899
C14   C     C_R   0.097100 0.271732 0.541904 -0.249518
C15   C     C_R   0.128812 0.611372 0.494744 -0.127389
C16   C     C_R   0.352856 0.499972 0.497395 -0.390340
H1    H     H_    0.258312 0.493090 0.712440 0.207649
H2    H     H_    0.115086 0.185513 0.559191 0.199321
C17   C     C_R   0.646807 0.499730 0.504006 -0.188569
C18   C     C_R   0.972019 0.382632 0.498981 -0.085165
C19   C     C_R   0.977154 0.610770 0.537430 0.092150
C20   C     C_R   0.949348 0.496385 0.519688 -0.007856
C21   C     C_R   0.943288 0.276571 0.454058 0.701716
C22   C     C_R   0.893205 0.278063 0.451445 -0.223221
C23   C     C_R   0.870444 0.386012 0.488203 -0.127482
C24   C     C_R   0.898463 0.496099 0.520764 -0.059089
C25   C     C_R   0.875617 0.606278 0.552947 -0.010138
C26   C     C_R   0.825160 0.604038 0.552503 0.534728
N2    N     N_R   0.798699 0.496245 0.519738 -0.346189
C27   C     C_R   0.820091 0.388234 0.488170 0.574478
C28   C     C_R   0.723190 0.491900 0.390139 -0.173139
C29   C     C_R   0.673129 0.493042 0.384123 0.618316
C30   C     C_R   0.671567 0.505500 0.628754 -0.270626
C31   C     C_R   0.721601 0.504372 0.633888 -0.081678
C32   C     C_R   0.747362 0.497400 0.514685 0.207273
O10   O     O_2   0.792624 0.283494 0.457262 -0.531404
C33   C     C_R   0.022679 0.381276 0.518118 0.042924
C34   C     C_R   0.050343 0.497285 0.514691 -0.055058
C35   C     C_R   0.027534 0.613024 0.516454 -0.068590
C36   C     C_R   0.046549 0.269513 0.545353 0.516674
H3    H     H_    0.743386 0.486896 0.297965 0.174917
H4    H     H_    0.872360 0.194813 0.417698 0.225400
O11   O     O_2   0.206245 0.717382 0.473592 -0.523236
C37   C     C_R   0.105834 0.724154 0.484694 -0.182337
H5    H     H_    0.126370 0.812142 0.467958 0.221169
C38   C     C_R   0.953555 0.718003 0.577125 -0.102302
C39   C     C_R   0.903542 0.715691 0.584627 -0.136523
O12   O     O_2   0.802626 0.708932 0.582492 -0.531198
C40   C     C_R   0.055982 0.725779 0.494733 0.596646
H6    H     H_    0.973128 0.803490 0.608251 0.221693
H7    H     H_    0.652365 0.510900 0.722563 0.212702
H8    H     H_    0.886861 0.800434 0.614278 0.206036
H9    H     H_    0.740417 0.508578 0.730323 0.169969
H10   H     H_    0.503114 0.112093 0.286801 0.169212
C41   C     C_R   0.511157 0.105969 0.757728 -0.157649
H11   H     H_    0.533720 0.191062 0.770315 0.184378
C42   C     C_R   0.497207 0.042074 0.874904 -0.245443
H12   H     H_    0.506727 0.081792 0.972595 0.159976
C43   C     C_R   0.469103 0.930280 0.866161 -0.101567
H13   H     H_    0.455355 0.885688 0.957128 0.164775
C44   C     C_R   0.458732 0.875679 0.740706 0.486073
C45   C     C_R   0.479141 0.932654 0.622384 -0.037305
C46   C     C_R   0.497897 0.056852 0.629037 0.056655
C47   C     C_R   0.502725 0.124842 0.505713 -0.094333
C48   C     C_R   0.499209 0.062675 0.382001 -0.161500
H14   H     H_    0.494325 0.887885 0.283163 0.172299
C49   C     C_R   0.492225 0.934941 0.379253 -0.181606
C50   C     C_R   0.484868 0.868992 0.499589 -0.126620
H15   H     H_    0.553661 0.644702 0.129356 0.182020
C51   C     C_R   0.434616 0.326510 0.130856 0.713039
C52   C     C_R   0.404642 0.244462 0.054488 -0.215812
H16   H     H_    0.379695 0.177918 0.103830 0.196851
C53   C     C_R   0.405836 0.247538 0.916272 -0.254468
H17   H     H_    0.382198 0.183638 0.857749 0.196464
C54   C     C_R   0.437218 0.332726 0.852606 -0.024873
H18   H     H_    0.435460 0.329238 0.746003 0.220996
C55   C     C_R   0.468831 0.416763 0.925029 0.029082
C56   C     C_R   0.468341 0.415656 0.069829 -0.008041
N3    N     N_R   0.499540 0.498800 0.142780 -0.144504
C57   C     C_R   0.529531 0.579752 0.073783 -0.053264
C58   C     C_R   0.529907 0.580454 0.931574 0.478384
N4    N     N_R   0.499520 0.498720 0.857170 -0.161543
F1    F     F_    0.350604 0.494259 0.741103 -0.604046
O13   O     O_3   0.249016 0.504781 0.255470 -0.710082
H19   H     H_    0.270757 0.507068 0.177161 0.393365
F2    F     F_    0.036161 0.837128 0.470805 -0.653818
O14   O     O_3   0.426608 0.772037 0.737082 -0.700634
H20   H     H_    0.413329 0.762873 0.644140 0.324958
F3    F     F_    0.427528 0.313429 0.262769 -0.637180
O15   O     O_3   0.561884 0.666192 0.872199 -0.765116
H21   H     H_    0.560358 0.653720 0.774520 0.386898
F4    F     F_    0.650857 0.487153 0.261362 -0.646326
F5    F     F_    0.963053 0.176077 0.398090 -0.595562
O16   O     O_3   0.020551 0.162751 0.588472 -0.685271
H22   H     H_    0.042734 0.094461 0.604809 0.364321
F6    F     F_    0.350343 0.507693 0.254700 -0.619689

loop_
_geom_bond_atom_site_label_1
_geom_bond_atom_site_label_2
_geom_bond_distance
_ccdc_geom_bond_type
C38   H6    1.078554 S    
C54   H18   1.059133 S    
C19   C38   1.411470 A    
C26   O12   1.349923 S    
C10   H1    1.083376 S    
N2    C27   1.366523 A    
C7    C8    1.405780 A    
C35   C40   1.418163 A    
C12   C15   1.407960 A    
C4    C17   1.465769 S    
C28   C29   1.389629 A    
C29   F4    1.357648 S    
C53   H17   1.083033 S    
Zn1   O7    2.018478 S    
C39   H8    1.083407 S    
C58   N4    1.385291 A    
C22   C23   1.397909 A    
O4    C2    1.303023 A    
O7    C4    1.301183 A    
C5    C13   1.399033 A    
O16   H22   0.991846 S    
C5    O9    1.349989 S    
C23   C27   1.398170 A    
C37   H5    1.083539 S    
C44   O14   1.380224 S    
C44   C45   1.429532 A    
C55   N4    1.367455 A    
C42   C43   1.389611 A    
O5    C3    1.291629 A    
O1    Zn1   1.994591 S    
H15   C57   1.082403 S    
C28   H3    1.083114 S    
C2    C16   1.471868 S    
C52   H16   1.083404 S    
C48   C49   1.366459 A    
C3    C50   1.437390 S    
C36   O16   1.382842 S    
C45   C50   1.413623 A    
C9    C10   1.385042 A    
O15   H21   0.979107 S    
O3    Zn1   2.006761 S    
N1    C6    1.364969 A    
C53   C54   1.379959 A    
C12   C34   1.410436 A    
C17   C29   1.409684 A    
C41   H11   1.079575 S    
C18   C21   1.416137 A    
C12   C13   1.406859 A    
C31   H9    1.082971 S    
O3    C2    1.301495 A    
C45   C46   1.397499 A    
N3    C57   1.355312 A    
C43   C44   1.396139 A    
C15   C37   1.396712 A    
C27   O10   1.349975 S    
C8    C16   1.413722 A    
C38   C39   1.389109 A    
C30   C31   1.388642 A    
C30   H7    1.083087 S    
O1    C1    1.285243 A    
C21   C22   1.389963 A    
C18   C20   1.416420 A    
C7    C11   1.399332 A    
C46   C47   1.424260 A    
C23   C24   1.407098 A    
C21   F5    1.357348 S    
C14   C36   1.401880 A    
O14   H20   0.991166 S    
Zn2   O8    2.006758 S    
C33   C36   1.420304 A    
C25   C39   1.398068 A    
O13   H19   0.990354 S    
C34   C35   1.420370 A    
N2    C32   1.424774 S    
C37   C40   1.388936 A    
Zn2   N3    2.025527 S    
N1    C11   1.423793 S    
C47   C48   1.397785 A    
C1    C47   1.440479 S    
C6    O11   1.349981 S    
C26   N2    1.366471 A    
C52   C53   1.372899 A    
C9    C16   1.410533 A    
O8    C4    1.300379 A    
C14   H2    1.083581 S    
C54   C55   1.409328 A    
C41   C46   1.418121 A    
C25   C26   1.398269 A    
C41   C42   1.394107 A    
Zn1   O5    1.991146 S    
Zn1   N4    2.025319 S    
C31   C32   1.395936 A    
C20   C24   1.411413 A    
O2    Zn2   1.991144 S    
C6    C15   1.398223 A    
O6    C3    1.295074 A    
C58   O15   1.374452 S    
O4    Zn2   2.018481 S    
C5    N1    1.365149 A    
C19   C35   1.414768 A    
C9    F1    1.357684 S    
C51   C56   1.434209 A    
O2    C1    1.304070 A    
C13   C14   1.397301 A    
C43   H13   1.082969 S    
H14   C49   1.083830 S    
C40   F2    1.356492 S    
C56   N3    1.399644 A    
C24   C25   1.407928 A    
C57   C58   1.411602 A    
C51   F3    1.332409 S    
C19   C20   1.416350 A    
H10   C48   1.083856 S    
C42   H12   1.082858 S    
C18   C33   1.415901 A    
C22   H4    1.083422 S    
C49   C50   1.395309 A    
Zn2   O6    1.994590 S    
C33   C34   1.419296 A    
C17   C30   1.406478 A    
C10   C11   1.392736 A    
C51   C52   1.391274 A    
C55   C56   1.437402 A    
C28   C32   1.397020 A    
C7    O13   1.381966 S    
C8    F6    1.359134 S    
