data_mof_unit_37990.cif
_audit_creation_date              2012-12-10T17:12:45-0500
_audit_creation_method            fapswitch 2.2
_symmetry_space_group_name_H-M    P1
_symmetry_Int_Tables_number       1
_space_group_crystal_system       triclinic
_cell_length_a                    23.406878
_cell_length_b                    10.721244
_cell_length_c                    10.020615
_cell_angle_alpha                 90.423164
_cell_angle_beta                  89.444535
_cell_angle_gamma                 90.296996
_cell_volume                      2514.46224188

loop_
_atom_site_label
_atom_site_type_symbol
_atom_type_description
_atom_site_fract_x
_atom_site_fract_y
_atom_site_fract_z
_atom_type_partial_charge
C1    C     C_R   0.500684 0.262511 0.498915 0.947319
C2    C     C_R   0.119823 0.587975 0.448452 0.583717
C3    C     C_R   0.237361 0.505054 0.622583 -0.178326
C4    C     C_R   0.389325 0.498898 0.500584 0.883006
C5    C     C_R   0.296649 0.508171 0.622252 -0.219375
C6    C     C_R   0.327049 0.494923 0.501599 -0.127691
C7    C     C_R   0.297498 0.476763 0.381702 -0.287953
C8    C     C_R   0.238227 0.473054 0.382342 0.700524
C9    C     C_R   0.208184 0.488125 0.502716 0.181376
C10   C     C_R   0.761883 0.449117 0.390132 -0.199800
C11   C     C_R   0.702689 0.452111 0.388430 -0.203600
C12   C     C_R   0.968242 0.290411 0.615070 -0.153833
C13   C     C_R   0.672605 0.498821 0.499194 -0.084778
C14   C     C_R   0.702013 0.543149 0.611238 -0.326156
C15   C     C_R   0.761749 0.538731 0.614474 0.540516
C16   C     C_R   0.502454 0.737339 0.500486 0.967277
C17   C     C_R   0.791133 0.493426 0.501815 0.256128
C18   C     C_2   0.515193 0.931313 0.387950 -0.249650
C19   C     C_2   0.511461 0.868490 0.502142 -0.383839
C20   C     C_2   0.519542 0.066392 0.388677 0.528809
C21   C     C_2   0.498861 0.130184 0.494569 -0.427828
C22   C     C_2   0.537878 0.558921 0.925361 0.758382
C23   C     C_R   0.027719 0.289673 0.615280 -0.143817
C24   C     C_2   0.543385 0.535316 0.073110 -0.004824
C25   C     C_R   0.610553 0.500049 0.499471 0.900771
C26   C     C_R   0.880728 0.589532 0.444635 0.545256
C27   C     C_R   0.879179 0.393365 0.557054 0.531883
C28   C     C_R   0.938802 0.390385 0.558434 -0.022386
C29   C     C_R   0.969521 0.490476 0.501602 -0.015362
C30   C     C_R   0.940368 0.591151 0.444147 -0.026620
C31   C     C_3   0.774467 0.542242 0.844703 0.081210
C32   C     C_3   0.750198 0.648789 0.930261 -0.328448
C33   C     C_3   0.731748 0.603170 0.067986 -0.898319
C34   C     C_R   0.058712 0.389064 0.559190 -0.022655
C35   C     C_3   0.518965 0.114459 0.163670 0.084649
C36   C     C_3   0.557371 0.050943 0.059384 -0.333760
C37   C     C_3   0.528603 0.043496 0.923413 -0.917630
C38   C     C_3   0.424069 0.375540 0.870031 0.281600
C39   C     C_3   0.395110 0.286895 0.969011 -0.433207
C40   C     C_3   0.332114 0.267957 0.936041 -0.883068
C41   C     C_R   0.029533 0.489947 0.502297 -0.018382
C42   C     C_R   0.060221 0.590367 0.446172 -0.033327
C43   C     C_R   0.030786 0.690340 0.389481 -0.142682
C44   C     C_R   0.971336 0.690624 0.388269 -0.150348
C45   C     C_R   0.118393 0.390373 0.557973 0.538894
F1    F     F_    0.574527 0.641093 0.867043 -0.710558
F2    F     F_    0.449272 0.532106 0.101129 -0.593044
F3    F     F_    0.209908 0.454978 0.266199 -0.644458
H1    H     H_    0.945470 0.212535 0.659224 0.195373
H2    H     H_    0.949786 0.768952 0.343722 0.194546
H3    H     H_    0.213981 0.516839 0.715571 0.181134
H4    H     H_    0.318524 0.522074 0.715924 0.171569
H5    H     H_    0.320115 0.465064 0.287642 0.205798
H6    H     H_    0.785253 0.412603 0.304767 0.153805
H7    H     H_    0.812550 0.504311 0.895505 0.180827
H8    H     H_    0.743079 0.463647 0.838657 0.133870
H9    H     H_    0.783302 0.722662 0.942083 0.247012
H10   H     H_    0.712826 0.690561 0.880298 0.242920
H11   H     H_    0.698459 0.529443 0.058881 0.251621
H12   H     H_    0.680482 0.416921 0.301479 0.173586
H13   H     H_    0.713823 0.682045 0.127054 0.281592
H14   H     H_    0.769078 0.565477 0.121642 0.270602
H15   H     H_    0.508968 0.209932 0.128644 0.196427
H16   H     H_    0.477312 0.063439 0.171133 0.112360
H17   H     H_    0.597996 0.104368 0.049285 0.238590
H18   H     H_    0.567709 0.955107 0.092619 0.230290
H19   H     H_    0.487869 0.990248 0.930749 0.263638
H20   H     H_    0.557237 0.995208 0.850951 0.280708
H21   H     H_    0.519858 0.138589 0.885671 0.283658
H22   H     H_    0.421844 0.330620 0.770555 0.159731
H23   H     H_    0.678525 0.582603 0.694744 0.198135
H24   H     H_    0.400138 0.465259 0.870544 0.162312
H25   H     H_    0.416900 0.195100 0.965576 0.213644
H26   H     H_    0.398467 0.324817 0.072099 0.277576
H27   H     H_    0.309114 0.358268 0.941478 0.279071
H28   H     H_    0.312339 0.203015 0.009131 0.285145
H29   H     H_    0.327584 0.227533 0.834248 0.264109
H30   H     H_    0.514896 0.883444 0.292086 0.184160
H31   H     H_    0.516987 0.912247 0.599167 0.167174
H32   H     H_    0.476607 0.086235 0.577307 0.117461
H33   H     H_    0.584796 0.549552 0.118506 0.073475
H34   H     H_    0.049272 0.211208 0.659547 0.196652
H35   H     H_    0.053543 0.768449 0.345760 0.197016
N1    N     N_R   0.851812 0.491862 0.500798 -0.339486
N2    N     N_R   0.147376 0.488734 0.503064 -0.340902
N3    N     N_2   0.500610 0.501330 0.852150 0.025652
N4    N     N_2   0.500630 0.501360 0.147810 0.133501
O1    O     O_R   0.499990 0.319060 0.613040 -0.633722
O2    O     O_R   0.583840 0.500020 0.613040 -0.585359
O3    O     O_R   0.583850 0.500060 0.386900 -0.644645
O4    O     O_2   0.851684 0.684624 0.390138 -0.549128
O5    O     O_3   0.792869 0.589036 0.719443 -0.638601
O6    O     O_3   0.548760 0.126275 0.285720 -0.619346
O7    O     O_3   0.481528 0.393433 0.906550 -0.612227
O8    O     O_2   0.848631 0.299032 0.611242 -0.561530
O9    O     O_2   0.147370 0.294099 0.610256 -0.542966
O10   O     O_2   0.150175 0.684068 0.397246 -0.527346
O11   O     O_R   0.500010 0.319100 0.386900 -0.585042
O12   O     O_R   0.416150 0.499940 0.613100 -0.675335
O13   O     O_R   0.416160 0.499980 0.386960 -0.567039
O14   O     O_R   0.499990 0.680900 0.613100 -0.591769
O15   O     O_R   0.500010 0.680940 0.386960 -0.603575
Zn1   Zn    Zn3+2 0.499990 0.499970 0.650990 1.010091
Zn2   Zn    Zn3+2 0.500010 0.500030 0.349010 1.037591

loop_
_geom_bond_atom_site_label_1
_geom_bond_atom_site_label_2
_ccdc_geom_bond_type
O12   Zn1   S    
C20   O6    S    
C38   H22   S    
C1    C21   S    
C23   H34   S    
C37   H21   S    
C43   H35   S    
C41   C42   A    
C27   O8    S    
C35   C36   S    
C32   H10   S    
C43   C44   A    
C13   C25   S    
C12   H1    S    
C7    C8    A    
C12   C23   A    
C28   C29   A    
C25   O3    A    
C12   C28   A    
C36   C37   S    
C38   C39   S    
C36   H18   S    
C10   C17   A    
C37   H20   S    
O13   Zn2   S    
C2    N2    A    
C18   C19   D    
C14   H23   S    
C39   H26   S    
N3    O7    S    
C9    N2    S    
C15   O5    S    
C2    O10   S    
C33   H14   S    
C5    H4    S    
C35   H16   S    
C31   H8    S    
C1    O1    A    
C39   H25   S    
C33   H11   S    
O14   Zn1   S    
C13   C14   A    
O2    Zn1   S    
C30   C44   A    
C34   C41   A    
C32   H9    S    
N3    Zn1   S    
C35   O6    S    
C38   H24   S    
C4    C6    S    
C39   C40   S    
C3    H3    S    
C36   H17   S    
C8    C9    A    
C26   O4    S    
C40   H28   S    
F2    N4    S    
C45   N2    A    
C24   H33   S    
C8    F3    S    
C29   C30   A    
C3    C9    A    
C31   C32   S    
C18   H30   S    
C23   C34   A    
C38   O7    S    
C34   C45   A    
O15   Zn2   S    
O3    Zn2   S    
C16   O15   A    
C22   F1    S    
C26   C30   A    
C4    O13   A    
C22   C24   S    
C42   C43   A    
C7    H5    S    
C11   H12   S    
O1    Zn1   S    
C44   H2    S    
C15   C17   A    
C27   N1    A    
C26   N1    A    
C29   C41   A    
C40   H29   S    
C3    C5    A    
C1    O11   A    
C6    C7    A    
C25   O2    A    
C40   H27   S    
C17   N1    S    
C32   C33   S    
C11   C13   A    
C5    C6    A    
C2    C42   A    
C16   C19   S    
O11   Zn2   S    
C37   H19   S    
C21   H32   S    
C18   C20   S    
C22   N3    D    
C10   H6    S    
C24   N4    D    
C10   C11   A    
N4    Zn2   S    
C16   O14   A    
C20   C21   D    
C33   H13   S    
C31   O5    S    
C4    O12   A    
C27   C28   A    
C14   C15   A    
C35   H15   S    
C31   H7    S    
C45   O9    S    
C19   H31   S    
