data_mof_unit_35353.cif
_audit_creation_date              2012-12-10T19:18:31-0500
_audit_creation_method            fapswitch 2.2
_symmetry_space_group_name_H-M    P1
_symmetry_Int_Tables_number       1
_space_group_crystal_system       triclinic
_cell_length_a                    15.7754
_cell_length_b                    14.976127
_cell_length_c                    10.541957
_cell_angle_alpha                 89.398066
_cell_angle_beta                  91.23001
_cell_angle_gamma                 89.910964
_cell_volume                      2489.86841937

loop_
_atom_site_label
_atom_site_type_symbol
_atom_type_description
_atom_site_fract_x
_atom_site_fract_y
_atom_site_fract_z
_atom_type_partial_charge
C1    C     C_R   0.338099 0.500093 0.497855 0.910071
C2    C     C_3   0.500470 0.501825 0.122992 -0.081772
C3    C     C_3   0.051244 0.583587 0.568046 -0.114415
C4    C     C_3   0.049462 0.408881 0.543098 -0.077300
C5    C     C_3   0.952319 0.417915 0.566800 -0.132667
C6    C     C_3   0.952661 0.585244 0.574459 -0.125338
C7    C     C_1   0.750197 0.500431 0.503351 -0.240417
C8    C     C_3   0.082470 0.500635 0.487565 0.094647
C9    C     C_3   0.916236 0.504021 0.492303 0.155088
C10   C     C_3   0.944147 0.507212 0.343665 0.157539
C11   C     C_3   0.047032 0.511242 0.344854 -0.046441
C12   C     C_1   0.825098 0.502776 0.501043 -0.106931
C13   C     C_1   0.174629 0.500459 0.487221 -0.045454
C14   C     C_R   0.499976 0.500588 0.257153 0.889166
C15   C     C_1   0.249691 0.500372 0.491119 -0.189323
C16   C     C_3   0.410321 0.052599 0.457618 -0.373355
C17   C     C_3   0.410356 0.948285 0.457576 -0.368641
C18   C     C_3   0.521732 0.051145 0.630802 -0.360367
C19   C     C_3   0.521837 0.946806 0.630748 -0.376507
C20   C     C_3   0.498736 0.089797 0.497130 0.256836
C21   C     C_3   0.498786 0.910207 0.497087 0.257707
C22   C     C_3   0.564268 0.948412 0.402987 -0.368233
C23   C     C_3   0.564246 0.052764 0.403022 -0.375633
C24   C     C_1   0.498671 0.809369 0.497142 0.001864
C25   C     C_1   0.498622 0.190635 0.497187 0.001626
C26   C     C_R   0.661968 0.499965 0.502479 0.916185
C27   C     C_R   0.501177 0.499399 0.743072 0.883692
C28   C     C_3   0.497750 0.584827 0.036883 0.024044
C29   C     C_3   0.433366 0.455926 0.040034 -0.009808
C30   C     C_3   0.429450 0.539364 0.952847 -0.284990
C31   C     C_3   0.501827 0.498104 0.877184 -0.084376
C32   C     C_3   0.569082 0.543956 0.960024 -0.000347
C33   C     C_3   0.504673 0.415129 0.963240 0.022234
C34   C     C_3   0.572880 0.460529 0.047413 -0.289596
H1    H     H_    0.371320 0.570825 0.911050 0.149714
H2    H     H_    0.361754 0.923162 0.523982 0.162216
H3    H     H_    0.361712 0.076873 0.524055 0.162122
H4    H     H_    0.585351 0.075577 0.661881 0.167517
H5    H     H_    0.585545 0.921831 0.661639 0.165877
H6    H     H_    0.475425 0.075345 0.700839 0.173748
H7    H     H_    0.475656 0.921602 0.700875 0.167955
H8    H     H_    0.549234 0.078214 0.305567 0.168810
H9    H     H_    0.549248 0.924453 0.305529 0.176749
H10   H     H_    0.628780 0.077166 0.429351 0.162924
H11   H     H_    0.628809 0.923406 0.429300 0.162622
H12   H     H_    0.392040 0.078050 0.361323 0.169263
H13   H     H_    0.392099 0.924345 0.361254 0.171817
H14   H     H_    0.630900 0.428966 0.089396 0.147323
H15   H     H_    0.933993 0.569225 0.672721 0.165339
H16   H     H_    0.948110 0.431200 0.669809 0.139768
H17   H     H_    0.057721 0.358284 0.469361 0.159886
H18   H     H_    0.068996 0.642887 0.510598 0.154579
N1    N     N_1   0.498630 0.731150 0.497460 -0.080441
N2    N     N_1   0.498630 0.268850 0.497460 -0.080891
O1    O     O_R   0.377210 0.574260 0.500130 -0.613145
O2    O     O_R   0.377210 0.425740 0.500130 -0.608136
O3    O     O_R   0.500050 0.574220 0.314080 -0.616763
O4    O     O_R   0.500050 0.425780 0.314080 -0.613894
O5    O     O_R   0.622930 0.574200 0.500140 -0.615008
O6    O     O_R   0.622930 0.425800 0.500140 -0.615966
O7    O     O_R   0.500090 0.574240 0.686180 -0.613998
O8    O     O_R   0.500090 0.425760 0.686180 -0.619093
Zn1   Zn    Zn3+2 0.500090 0.599130 0.500180 0.978393
Zn2   Zn    Zn3+2 0.500090 0.400870 0.500180 0.977089
C35   C     C_3   0.903680 0.595401 0.280320 -0.417842
C36   C     C_3   0.910622 0.608752 0.134594 -0.377912
C37   C     C_3   0.906850 0.707321 0.095861 -0.847093
H19   H     H_    0.847311 0.738077 0.129225 0.262454
H20   H     H_    0.961997 0.743867 0.136749 0.268070
H21   H     H_    0.908298 0.713546 0.990850 0.245711
H22   H     H_    0.969939 0.579327 0.099325 0.235657
H23   H     H_    0.856341 0.575677 0.085283 0.217550
H24   H     H_    0.835040 0.599278 0.300156 0.196419
H25   H     H_    0.932604 0.654112 0.323262 0.224649
C38   C     C_3   0.900269 0.427953 0.262464 -0.383896
C39   C     C_3   0.935515 0.331670 0.251306 -0.373349
C40   C     C_3   0.865557 0.265367 0.214426 -0.922131
H26   H     H_    0.814806 0.263426 0.285595 0.259878
H27   H     H_    0.836800 0.284334 0.120822 0.263056
H28   H     H_    0.893026 0.197321 0.207335 0.258765
H29   H     H_    0.980677 0.328555 0.172541 0.240743
H30   H     H_    0.968579 0.307276 0.337062 0.234038
H31   H     H_    0.832742 0.423800 0.289103 0.207708
H32   H     H_    0.895680 0.447167 0.161419 0.191914
C41   C     C_1   0.494102 0.678222 0.077712 0.202341
N3    N     N_1   0.491261 0.751757 0.109981 -0.227060
C42   C     C_1   0.359640 0.406973 0.086757 0.158315
N4    N     N_1   0.301800 0.367962 0.123614 -0.185443
C43   C     C_1   0.643716 0.591552 0.913237 0.147622
N5    N     N_1   0.702541 0.629024 0.876483 -0.233364
C44   C     C_1   0.508334 0.321761 0.922234 0.194768
N6    N     N_1   0.511163 0.248259 0.889815 -0.230925
C45   C     C_3   0.099244 0.604622 0.696826 -0.400811
C46   C     C_3   0.061775 0.568381 0.821199 -0.388054
C47   C     C_3   0.128853 0.565906 0.927953 -0.839291
H33   H     H_    0.182749 0.522285 0.902287 0.253777
H34   H     H_    0.152717 0.634277 0.947239 0.267829
H35   H     H_    0.100928 0.538392 0.015543 0.259391
H36   H     H_    0.009179 0.612540 0.850624 0.219142
H37   H     H_    0.035682 0.500551 0.810196 0.215639
H38   H     H_    0.166694 0.584563 0.691715 0.214615
H39   H     H_    0.101768 0.678517 0.706944 0.187330
C48   C     C_3   0.101839 0.373666 0.661876 -0.414948
C49   C     C_3   0.165455 0.299725 0.628950 -0.384124
C50   C     C_3   0.225763 0.278986 0.740685 -0.827312
H40   H     H_    0.263966 0.338906 0.765236 0.261692
H41   H     H_    0.189479 0.257374 0.824746 0.261331
H42   H     H_    0.269672 0.224412 0.714779 0.245728
H43   H     H_    0.130899 0.237813 0.603251 0.211259
H44   H     H_    0.203640 0.320286 0.546388 0.246036
H45   H     H_    0.138391 0.428407 0.706022 0.242581
H46   H     H_    0.060076 0.347587 0.736848 0.194521
C51   C     C_3   0.895418 0.332188 0.558978 -0.403279
C52   C     C_3   0.938304 0.242739 0.593433 -0.349340
C53   C     C_3   0.875483 0.165619 0.581766 -0.894443
H47   H     H_    0.821502 0.175612 0.646118 0.261665
H48   H     H_    0.850946 0.160504 0.482563 0.264701
H49   H     H_    0.907745 0.101955 0.608311 0.250502
H50   H     H_    0.991245 0.229195 0.529092 0.218880
H51   H     H_    0.962656 0.243979 0.692836 0.224567
H52   H     H_    0.842571 0.340809 0.626257 0.204062
H53   H     H_    0.862509 0.327366 0.466767 0.243761
C54   C     C_3   0.919253 0.684110 0.565691 -0.459701
C55   C     C_3   0.822724 0.696849 0.569456 -0.291126
C56   C     C_3   0.799074 0.794161 0.592616 -0.894773
H54   H     H_    0.824514 0.816060 0.686305 0.261545
H55   H     H_    0.824708 0.837882 0.516815 0.257003
H56   H     H_    0.728943 0.801172 0.591973 0.252901
H57   H     H_    0.793351 0.677662 0.477397 0.233185
H58   H     H_    0.796206 0.655209 0.646820 0.243501
H59   H     H_    0.946050 0.718145 0.650980 0.212572
H60   H     H_    0.945948 0.723724 0.487209 0.194525
C57   C     C_1   0.080801 0.595698 0.289936 0.130198
N7    N     N_1   0.107834 0.661135 0.247674 -0.223593
C58   C     C_1   0.087007 0.443903 0.263593 0.117786
N8    N     N_1   0.121296 0.392811 0.200849 -0.217235

loop_
_geom_bond_atom_site_label_1
_geom_bond_atom_site_label_2
_ccdc_geom_bond_type
C42   N4    T    
C45   C46   S    
C54   H60   S    
C47   H33   S    
C4    C8    S    
C3    C6    S    
C6    C9    S    
C52   C53   S    
C47   H35   S    
C54   C55   S    
C40   H26   S    
C50   H41   S    
C8    C13   S    
C23   H8    S    
C30   H1    S    
C2    C29   S    
C19   C21   S    
C1    O2    A    
C11   C57   S    
C30   C31   S    
C38   H32   S    
C10   C35   S    
C20   C25   S    
C53   H47   S    
C4    C48   S    
C29   C33   S    
C35   H24   S    
C48   H45   S    
C18   C19   S    
O7    Zn1   S    
C18   H6    S    
O8    Zn2   S    
C27   O7    A    
C36   H23   S    
C51   H53   S    
C36   H22   S    
C16   C17   S    
C53   H48   S    
O1    Zn1   S    
C56   H56   S    
O2    Zn2   S    
C1    C15   S    
C17   H2    S    
C26   O5    A    
C52   H50   S    
C16   H3    S    
C54   H59   S    
C2    C34   S    
C36   C37   S    
C21   C22   S    
C56   H54   S    
C6    C54   S    
C28   C32   S    
C49   C50   S    
O3    Zn1   S    
C40   H27   S    
O4    Zn2   S    
C7    C12   T    
C14   O4    A    
C50   H42   S    
C4    H17   S    
C27   C31   S    
C37   H19   S    
C58   N8    T    
C25   N2    T    
C3    C8    S    
C39   H30   S    
C44   N6    T    
C45   H38   S    
C24   N1    T    
C41   N3    T    
C17   C21   S    
C23   H10   S    
C48   H46   S    
C37   H20   S    
C32   C34   S    
C45   H39   S    
C38   C39   S    
C5    C9    S    
C29   C30   S    
C27   O8    A    
C11   C58   S    
C10   C38   S    
C22   H9    S    
C20   C23   S    
C46   H37   S    
C16   C20   S    
C53   H49   S    
C31   C33   S    
C33   C34   S    
C55   H58   S    
C3    C45   S    
C39   C40   S    
C7    C26   S    
C19   H5    S    
C13   C15   T    
C32   C43   S    
C57   N7    T    
C5    H16   S    
C34   H14   S    
C16   H12   S    
C48   C49   S    
C51   C52   S    
C9    C10   S    
C40   H28   S    
C14   O3    A    
C5    C51   S    
C31   C32   S    
C17   H13   S    
C4    C5    S    
C39   H29   S    
C3    H18   S    
C47   H34   S    
C50   H40   S    
O5    Zn1   S    
O6    Zn2   S    
C37   H21   S    
C28   C30   S    
C1    O1    A    
C49   H44   S    
N1    Zn1   S    
C38   H31   S    
C49   H43   S    
N2    Zn2   S    
C46   H36   S    
C8    C11   S    
C55   H57   S    
C18   C20   S    
C6    H15   S    
C18   H4    S    
C46   C47   S    
C2    C14   S    
C9    C12   S    
C29   C42   S    
C10   C11   S    
C35   H25   S    
C22   H11   S    
C51   H52   S    
C35   C36   S    
C21   C24   S    
C28   C41   S    
C56   H55   S    
C22   C23   S    
C2    C28   S    
C43   N5    T    
C26   O6    A    
C52   H51   S    
C19   H7    S    
C55   C56   S    
C33   C44   S    
