data_mof_unit_30827.cif
_audit_creation_date              2012-12-11T15:56:42-0500
_audit_creation_method            fapswitch 2.2
_symmetry_space_group_name_H-M    P1
_symmetry_Int_Tables_number       1
_space_group_crystal_system       triclinic
_cell_length_a                    14.653464
_cell_length_b                    7.16777
_cell_length_c                    13.582462
_cell_angle_alpha                 89.902415
_cell_angle_beta                  99.89169
_cell_angle_gamma                 90.112891
_cell_volume                      1405.39052437

loop_
_atom_site_label
_atom_site_type_symbol
_atom_type_description
_atom_site_fract_x
_atom_site_fract_y
_atom_site_fract_z
_atom_type_partial_charge
O1    O     O_R   0.336930 0.638190 0.166330 -0.519377
O2    O     O_R   0.663070 0.361810 0.833670 -0.533791
O3    O     O_R   0.163070 0.138190 0.333670 -0.512799
O4    O     O_R   0.836930 0.861810 0.666330 -0.533270
O5    O     O_R   0.147900 0.305430 0.139630 -0.528779
O6    O     O_R   0.852100 0.694570 0.860370 -0.523691
O7    O     O_R   0.352100 0.805430 0.360370 -0.534935
O8    O     O_R   0.647900 0.194570 0.639630 -0.524370
C1    C     C_R   0.115040 0.477548 0.113190 0.737588
C2    C     C_R   0.884826 0.522418 0.886967 0.713367
C3    C     C_R   0.384956 0.977586 0.386816 0.720051
C4    C     C_R   0.615235 0.022372 0.612948 0.709242
O9    O     O_R   0.335280 0.308290 0.154310 -0.530301
O10   O     O_R   0.664720 0.691710 0.845690 -0.533008
O11   O     O_R   0.164720 0.808290 0.345690 -0.552435
O12   O     O_R   0.835280 0.191710 0.654310 -0.531441
O13   O     O_R   0.351790 0.140890 0.348460 -0.539192
O14   O     O_R   0.648210 0.859110 0.651540 -0.542352
O15   O     O_R   0.148210 0.640890 0.151540 -0.537980
O16   O     O_R   0.851790 0.359110 0.848460 -0.541777
C5    C     C_R   0.363742 0.477372 0.132983 0.790086
C6    C     C_R   0.635995 0.522142 0.867117 0.801764
C7    C     C_R   0.136660 0.976840 0.367623 0.739529
C8    C     C_R   0.864048 0.022761 0.633048 0.804776
O17   O     O_3   0.255200 0.472570 0.313680 -0.382915
O18   O     O_3   0.744800 0.527430 0.686320 -0.380465
O19   O     O_3   0.244800 0.972570 0.186320 -0.370284
O20   O     O_3   0.755200 0.027430 0.813680 -0.382049
V1    V     V_3+5 0.249040 0.196590 0.238190 1.488010
V2    V     V_3+5 0.750960 0.803410 0.761810 1.443675
V3    V     V_3+5 0.250960 0.696590 0.261810 1.457315
V4    V     V_3+5 0.749040 0.303410 0.738190 1.444315
C9    C     C_R   0.075108 0.874075 0.522319 0.064743
C10   C     C_R   0.925704 0.124941 0.478779 0.047698
C11   C     C_R   0.425183 0.373341 0.980333 0.069863
C12   C     C_R   0.575141 0.624330 0.021600 0.051088
C13   C     C_R   0.006787 0.880351 0.583905 0.419733
C14   C     C_R   0.989747 0.107694 0.412444 0.401134
C15   C     C_R   0.494131 0.375881 0.918906 0.353179
C16   C     C_R   0.510953 0.608965 0.087907 0.373258
C17   C     C_R   0.933404 0.010673 0.564534 -0.257648
C18   C     C_R   0.066352 0.985496 0.434961 -0.269966
C19   C     C_R   0.567254 0.508394 0.936559 -0.230221
C20   C     C_R   0.434128 0.487082 0.065946 -0.218756
C21   C     C_1   0.534055 0.008150 0.532973 -0.164562
C22   C     C_1   0.466180 0.991758 0.466743 -0.177831
C23   C     C_1   0.965985 0.508204 0.966975 -0.164585
C24   C     C_1   0.033833 0.491717 0.033232 -0.170974
N1    N     N_3   0.155535 0.760730 0.553678 -0.619668
H1    H     H_    0.214919 0.842445 0.554953 0.224792
H2    H     H_    0.155939 0.651517 0.502957 0.244936
N2    N     N_3   0.850721 0.255286 0.457272 -0.647715
H3    H     H_    0.809375 0.217925 0.389661 0.231227
H4    H     H_    0.878393 0.387603 0.448532 0.241579
N3    N     N_3   0.342368 0.264686 0.952558 -0.637754
H5    H     H_    0.314838 0.290782 0.877586 0.260940
H6    H     H_    0.358480 0.123374 0.961502 0.242915
N4    N     N_3   0.650693 0.753924 0.042673 -0.649232
H7    H     H_    0.692167 0.715764 0.110085 0.230613
H8    H     H_    0.623686 0.886382 0.051816 0.242485
O21   O     O_3   0.017454 0.772957 0.670048 -0.540072
C25   C     C_3   0.990390 0.587588 0.644308 -0.102254
H9    H     H_    0.919043 0.580630 0.600327 0.122750
H10   H     H_    0.990466 0.506966 0.714076 0.133865
H11   H     H_    0.039625 0.518133 0.602556 0.136534
O22   O     O_3   0.979503 0.220154 0.328282 -0.547516
C26   C     C_3   0.934757 0.116752 0.245455 -0.231718
H12   H     H_    0.866592 0.061490 0.257809 0.116396
H13   H     H_    0.978915 0.000404 0.226976 0.125428
H14   H     H_    0.921710 0.210639 0.179529 0.157406
O23   O     O_3   0.483388 0.265379 0.834096 -0.555676
C27   C     C_3   0.519813 0.086050 0.860224 -0.125761
H15   H     H_    0.589394 0.091284 0.908269 0.133305
H16   H     H_    0.527516 0.011278 0.790776 0.144032
H17   H     H_    0.472351 0.001906 0.897705 0.109513
O24   O     O_3   0.521157 0.723088 0.171241 -0.547051
C28   C     C_3   0.565472 0.621199 0.254918 -0.231957
H18   H     H_    0.633608 0.565373 0.243220 0.117716
H19   H     H_    0.521007 0.505455 0.274062 0.120031
H20   H     H_    0.578503 0.716379 0.320173 0.159250

loop_
_geom_bond_atom_site_label_1
_geom_bond_atom_site_label_2
_ccdc_geom_bond_type
O17   V3    S    
N3    H5    S    
O1    C5    A    
O19   V1    S    
O13   V1    S    
O3    C7    A    
O15   V3    S    
C21   C22   T    
O7    C3    A    
C7    C18   S    
C9    C18   A    
O9    V1    S    
C14   C18   A    
C12   N4    S    
O4    C8    A    
N4    H8    S    
O1    V3    S    
O2    V4    S    
O3    V1    S    
C25   H10   S    
C1    O15   A    
C6    C19   S    
C2    O16   A    
N1    H2    S    
O2    C6    A    
O14   V2    S    
O11   C7    A    
O22   C26   S    
O12   C8    A    
C8    C17   S    
C10   C17   A    
O10   V2    S    
C27   H17   S    
N2    H4    S    
O5    V1    S    
C28   H19   S    
O7    V3    S    
C11   N3    S    
C26   H12   S    
O8    V4    S    
C14   O22   S    
C12   C16   A    
O24   C28   S    
C27   H16   S    
O18   V4    S    
C4    C21   S    
C15   C19   A    
N4    H7    S    
C28   H18   S    
C9    C13   A    
C16   O24   S    
C26   H13   S    
C11   C15   A    
O5    C1    A    
C25   H9    S    
C5    C20   S    
C23   C24   T    
O8    C4    A    
O9    C5    A    
C11   C20   A    
O6    V2    S    
N3    H6    S    
N2    H3    S    
O16   V4    S    
C28   H20   S    
C3    O13   A    
C25   H11   S    
C10   C14   A    
C27   H15   S    
C12   C19   A    
O6    C2    A    
C13   O21   S    
O11   V3    S    
O12   V4    S    
C10   N2    S    
C26   H14   S    
O10   C6    A    
O20   V2    S    
O23   C27   S    
C13   C17   A    
O21   C25   S    
C16   C20   A    
C1    C24   S    
N1    H1    S    
C4    O14   A    
C2    C23   S    
C15   O23   S    
C3    C22   S    
C9    N1    S    
O4    V2    S    
