data_mof_unit_67838.cif
_audit_creation_date              2012-10-26T23:17:15-0400
_audit_creation_method            fapswitch 2.2
_symmetry_space_group_name_H-M    P1
_symmetry_Int_Tables_number       1
_space_group_crystal_system       triclinic
_cell_length_a                    7.862815
_cell_length_b                    8.701251
_cell_length_c                    10.473883
_cell_angle_alpha                 91.978285
_cell_angle_beta                  86.036929
_cell_angle_gamma                 92.569567
_cell_volume                      713.797267612

loop_
_atom_site_label
_atom_site_type_symbol
_atom_type_description
_atom_site_fract_x
_atom_site_fract_y
_atom_site_fract_z
_atom_type_partial_charge
C1    C     C_R   0.543542 0.793383 0.495619 0.952219
C2    C     C_3   0.504106 0.493086 0.876707 -0.174504
C3    C     C_3   0.472837 0.358056 0.044049 0.157199
C4    C     C_3   0.527155 0.641964 0.955948 0.157213
C5    C     C_2   0.561837 0.953094 0.474620 -0.024963
C6    C     C_2   0.438102 0.046904 0.525326 -0.024875
C7    C     C_3   0.713426 0.001938 0.384104 -0.748223
C8    C     C_3   0.286384 0.998011 0.615700 -0.748557
C9    C     C_R   0.456448 0.206620 0.504383 0.952215
C10   C     C_R   0.500949 0.493312 0.741765 0.930647
C11   C     C_R   0.499050 0.506687 0.258234 0.930573
C12   C     C_3   0.349211 0.440328 0.963976 -0.252480
C13   C     C_3   0.650783 0.559692 0.036021 -0.252539
C14   C     C_3   0.373166 0.589878 0.045271 0.193740
C15   C     C_3   0.626827 0.410138 0.954727 0.193744
C16   C     C_3   0.495889 0.506930 0.123292 -0.174508
H1    H     H_    0.227193 0.390130 0.930617 0.217933
H2    H     H_    0.772800 0.609890 0.069381 0.217918
H3    H     H_    0.765896 0.903182 0.326300 0.245245
H4    H     H_    0.676879 0.084086 0.313405 0.265937
H5    H     H_    0.817160 0.052582 0.441012 0.269455
H6    H     H_    0.233414 0.096745 0.673188 0.245415
H7    H     H_    0.182973 0.946969 0.558711 0.269537
H8    H     H_    0.322948 0.916172 0.686623 0.265954
I1    I     I_    0.165801 0.726587 0.116391 -0.241000
I2    I     I_    0.834208 0.273428 0.883636 -0.240997
I3    I     I_    0.418110 0.138936 0.125365 -0.261314
I4    I     I_    0.581800 0.861063 0.874578 -0.261296
I5    I     I_    0.039139 0.310649 0.319660 -0.161822
I6    I     I_    0.960854 0.689325 0.680359 -0.161868
N1    N     N_2   0.950320 0.457950 0.465730 0.025939
N2    N     N_2   0.049680 0.542050 0.534270 0.025903
O1    O     O_R   0.389250 0.738570 0.508410 -0.622826
O2    O     O_R   0.610750 0.261430 0.491590 -0.622777
O3    O     O_R   0.678390 0.711620 0.486450 -0.611149
O4    O     O_R   0.321610 0.288380 0.513550 -0.611205
O5    O     O_R   0.355460 0.513510 0.697030 -0.612162
O6    O     O_R   0.644540 0.486490 0.302970 -0.612190
O7    O     O_R   0.644600 0.486560 0.675070 -0.590065
O8    O     O_R   0.355400 0.513440 0.324930 -0.590058
Zn1   Zn    Zn3+2 0.306940 0.517990 0.514670 1.042282
Zn2   Zn    Zn3+2 0.693060 0.482010 0.485330 1.042312

loop_
_geom_bond_atom_site_label_1
_geom_bond_atom_site_label_2
_ccdc_geom_bond_type
C12   H1    S    
C9    O4    A    
C2    C4    S    
N2    Zn1   S    
N1    Zn2   S    
C11   O6    A    
C11   C16   S    
C8    H6    S    
N1    N2    D    
O2    Zn2   S    
O1    Zn1   S    
C6    C9    S    
C3    I3    S    
C1    O1    A    
I5    N1    S    
C4    C14   S    
I6    N2    S    
C2    C15   S    
O4    Zn1   S    
C5    C6    D    
C13   H2    S    
C10   O5    A    
C1    C5    S    
O8    Zn1   S    
C4    I4    S    
C12   C14   S    
O6    Zn2   S    
O7    Zn2   S    
C7    H3    S    
C13   C15   S    
C14   I1    S    
O5    Zn1   S    
C9    O2    A    
C14   C16   S    
C11   O8    A    
C2    C10   S    
C8    H7    S    
C3    C15   S    
C1    O3    A    
C2    C12   S    
C13   C16   S    
C4    C13   S    
C5    C7    S    
O3    Zn2   S    
C15   I2    S    
C6    C8    S    
C3    C12   S    
C8    H8    S    
C7    H5    S    
C7    H4    S    
C3    C16   S    
C10   O7    A    
