data_mof_unit_62447.cif
_audit_creation_date              2012-12-10T18:22:08-0500
_audit_creation_method            fapswitch 2.2
_symmetry_space_group_name_H-M    P1
_symmetry_Int_Tables_number       1
_space_group_crystal_system       triclinic
_cell_length_a                    41.383656
_cell_length_b                    35.646767
_cell_length_c                    21.562676
_cell_angle_alpha                 89.99971
_cell_angle_beta                  59.408769
_cell_angle_gamma                 89.999913
_cell_volume                      27381.9246307

loop_
_atom_site_label
_atom_site_type_symbol
_atom_type_description
_atom_site_fract_x
_atom_site_fract_y
_atom_site_fract_z
_atom_type_partial_charge
C1    C     C_R   0.927611 0.499980 0.572852 0.817773
C2    C     C_R   0.072389 0.499980 0.427147 0.817775
C3    C     C_R   0.427611 0.999980 0.572853 0.817755
C4    C     C_R   0.572389 0.999980 0.427147 0.817768
C5    C     C_3   0.976517 0.466189 0.237223 0.103633
C6    C     C_3   0.023476 0.466184 0.762786 0.103622
C7    C     C_3   0.476513 0.966191 0.237227 0.103637
C8    C     C_3   0.523500 0.966200 0.762760 0.103656
C9    C     C_R   0.672983 0.500968 0.886386 0.408443
C10   C     C_R   0.327017 0.500915 0.113610 0.408443
C11   C     C_R   0.172983 0.000967 0.886387 0.408442
C12   C     C_R   0.827017 0.000938 0.113612 0.408443
C13   C     C_R   0.633711 0.500999 0.924439 -0.216630
C14   C     C_R   0.366289 0.500947 0.075557 -0.216642
C15   C     C_R   0.133711 0.000998 0.924440 -0.216626
C16   C     C_R   0.866289 0.000969 0.075559 -0.216633
C17   C     C_R   0.613731 0.499789 0.887717 -0.102868
C18   C     C_R   0.386269 0.499789 0.112284 -0.102879
C19   C     C_R   0.113731 0.999789 0.887717 -0.102868
C20   C     C_R   0.886269 0.999789 0.112284 -0.102874
C21   C     C_R   0.633814 0.498406 0.812026 -0.180850
C22   C     C_R   0.366185 0.498457 0.187978 -0.180831
C23   C     C_R   0.133814 0.998408 0.812026 -0.180854
C24   C     C_R   0.866186 0.998436 0.187976 -0.180843
C25   C     C_R   0.673016 0.498359 0.773913 -0.221322
C26   C     C_R   0.326983 0.498409 0.226091 -0.221327
C27   C     C_R   0.173016 0.998360 0.773913 -0.221322
C28   C     C_R   0.826983 0.998388 0.226090 -0.221325
C29   C     C_R   0.692740 0.499683 0.810733 0.049814
C30   C     C_R   0.307260 0.499681 0.189267 0.049810
C31   C     C_R   0.192740 0.999682 0.810733 0.049815
C32   C     C_R   0.807260 0.999682 0.189267 0.049812
C33   C     C_1   0.733133 0.499766 0.770257 0.037272
C34   C     C_1   0.266867 0.499766 0.229742 0.037268
C35   C     C_1   0.233133 0.999766 0.770258 0.037270
C36   C     C_1   0.766867 0.999766 0.229742 0.037269
C37   C     C_1   0.766934 0.499847 0.736423 -0.020507
C38   C     C_1   0.233065 0.499847 0.263576 -0.020509
C39   C     C_1   0.266934 0.999847 0.736424 -0.020509
C40   C     C_1   0.733065 0.999847 0.263576 -0.020509
C41   C     C_R   0.826913 0.465965 0.674392 -0.139547
C42   C     C_R   0.173085 0.465963 0.325524 -0.139508
C43   C     C_R   0.326914 0.965964 0.674401 -0.139559
C44   C     C_R   0.673086 0.965964 0.325569 -0.139529
C45   C     C_R   0.998919 0.499947 0.380857 0.847398
C46   C     C_R   0.001081 0.499947 0.619142 0.847402
C47   C     C_R   0.498919 0.999947 0.380857 0.847395
C48   C     C_R   0.501080 0.999947 0.619143 0.847386
C49   C     C_R   0.866118 0.465958 0.634423 -0.154785
C50   C     C_R   0.133881 0.465957 0.365494 -0.154775
C51   C     C_R   0.366118 0.965958 0.634431 -0.154828
C52   C     C_R   0.633881 0.965958 0.365539 -0.154794
C53   C     C_R   0.886141 0.499974 0.615443 -0.039709
C54   C     C_R   0.113858 0.499975 0.384556 -0.039776
C55   C     C_R   0.386141 0.999974 0.615444 -0.039749
C56   C     C_R   0.613858 0.999975 0.384556 -0.039750
C57   C     C_R   0.866122 0.533954 0.637767 -0.198871
C58   C     C_R   0.133879 0.533956 0.362314 -0.198847
C59   C     C_R   0.366122 0.033954 0.637760 -0.198850
C60   C     C_R   0.633878 0.033955 0.362270 -0.198853
C61   C     C_R   0.826909 0.533877 0.677781 -0.144560
C62   C     C_R   0.173092 0.533879 0.322300 -0.144618
C63   C     C_R   0.326909 0.033877 0.677775 -0.144572
C64   C     C_R   0.673091 0.033878 0.322256 -0.144594
C65   C     C_R   0.807260 0.499903 0.695964 0.132553
C66   C     C_R   0.192740 0.499903 0.304035 0.132534
C67   C     C_R   0.307260 0.999903 0.695966 0.132546
C68   C     C_R   0.692740 0.999903 0.304035 0.132543
C69   C     C_R   1.000000 0.572269 1.000000 0.884338
C70   C     C_R   0.500000 0.072269 1.000000 0.884339
C71   C     C_R   0.000260 0.500071 0.119956 0.821372
C72   C     C_R   0.999740 0.500071 0.880044 0.821380
C73   C     C_R   0.500260 0.000071 0.119956 0.821371
C74   C     C_R   0.499740 0.000069 0.880044 0.821362
C75   C     C_R   1.000000 0.427429 0.000000 0.876930
C76   C     C_R   0.500000 0.927429 0.999999 0.876907
C77   C     C_R   0.500000 0.427946 0.000000 0.772293
C78   C     C_R   0.000000 0.927946 0.000000 0.772292
C79   C     C_R   0.572204 0.499980 0.928197 0.796120
C80   C     C_R   0.427795 0.499980 0.071804 0.796120
C81   C     C_R   0.072204 0.999980 0.928197 0.796119
C82   C     C_R   0.927795 0.999980 0.071804 0.796119
C83   C     C_3   0.977899 0.534158 0.306179 -0.478368
C84   C     C_3   0.022109 0.534153 0.693812 -0.478391
C85   C     C_3   0.477903 0.034160 0.306175 -0.478357
C86   C     C_3   0.522082 0.034168 0.693839 -0.478326
C87   C     C_R   0.500000 0.572240 1.000000 0.790132
C88   C     C_R   0.000000 0.072240 1.000000 0.790132
C89   C     C_R   0.526988 0.327084 0.939628 -0.171349
C90   C     C_R   0.473013 0.327083 0.060371 -0.171347
C91   C     C_R   0.026988 0.827084 0.939628 -0.171350
C92   C     C_R   0.973013 0.827083 0.060371 -0.171348
C93   C     C_R   0.527761 0.366661 0.938768 0.233241
C94   C     C_R   0.472240 0.366661 0.061233 0.233235
C95   C     C_R   0.027761 0.866661 0.938768 0.233240
C96   C     C_R   0.972240 0.866660 0.061232 0.233236
C97   C     C_R   0.500000 0.386449 0.000000 -0.164245
C98   C     C_R   0.000000 0.886449 0.000000 -0.164245
C99   C     C_R   0.500001 0.307571 1.000000 0.026159
C100  C     C_R   0.000001 0.807571 1.000000 0.026159
C101  C     C_1   0.500001 0.267116 1.000000 -0.017419
C102  C     C_1   0.000001 0.767116 0.999999 -0.017420
C103  C     C_1   0.000001 0.733265 0.999999 0.003148
C104  C     C_1   0.500001 0.233265 1.000000 0.003149
C105  C     C_R   0.022527 0.673176 0.936048 -0.174857
C106  C     C_R   0.977474 0.673176 0.063950 -0.174855
C107  C     C_R   0.522527 0.173176 0.936049 -0.174855
C108  C     C_R   0.477473 0.173176 0.063950 -0.174855
C109  C     C_R   0.022702 0.633904 0.935568 0.323657
C110  C     C_R   0.977298 0.633903 0.064431 0.323657
C111  C     C_R   0.522703 0.133904 0.935569 0.323660
C112  C     C_R   0.477298 0.133903 0.064431 0.323658
C113  C     C_R   0.000000 0.613763 1.000000 -0.198269
C114  C     C_R   0.500000 0.113763 1.000000 -0.198271
C115  C     C_3   0.982089 0.536242 0.230911 -0.446832
C116  C     C_3   0.017919 0.536239 0.769080 -0.446819
C117  C     C_3   0.482092 0.036244 0.230907 -0.446840
C118  C     C_3   0.517893 0.036250 0.769107 -0.446863
C119  C     C_R   0.000000 0.692839 0.999999 -0.003272
C120  C     C_R   0.500000 0.192839 1.000000 -0.003272
C121  C     C_R   0.500080 0.672772 0.056104 -0.145514
C122  C     C_R   0.499918 0.672772 0.943895 -0.145514
C123  C     C_R   0.000042 0.172771 0.056142 -0.145513
C124  C     C_R   0.999958 0.172772 0.943856 -0.145513
C125  C     C_R   0.500079 0.633619 0.056181 -0.179157
C126  C     C_R   0.499920 0.633619 0.943818 -0.179153
C127  C     C_R   0.000041 0.133619 0.056219 -0.179154
C128  C     C_R   0.999959 0.133619 0.943780 -0.179152
C129  C     C_R   0.500000 0.613635 1.000000 -0.038604
C130  C     C_R   0.000000 0.113635 1.000000 -0.038600
C131  C     C_R   0.499999 0.692340 0.999999 0.136221
C132  C     C_R   0.000000 0.192340 0.999999 0.136224
C133  C     C_1   0.499999 0.732525 0.999999 -0.051859
C134  C     C_1   0.000000 0.232525 0.999999 -0.051859
C135  C     C_1   0.000000 0.266233 1.000000 0.008238
C136  C     C_1   0.499999 0.766233 0.999998 0.008240
C137  C     C_R   0.032108 0.325904 0.986361 -0.182477
C138  C     C_R   0.967892 0.325904 0.013641 -0.182485
C139  C     C_R   0.532106 0.825904 0.986369 -0.182479
C140  C     C_R   0.467894 0.825905 0.013626 -0.182476
C141  C     C_R   0.032538 0.365075 0.986166 0.320441
C142  C     C_R   0.967462 0.365074 0.013838 0.320446
C143  C     C_R   0.532536 0.865074 0.986173 0.320447
C144  C     C_R   0.467464 0.865075 0.013821 0.320437
C145  C     C_R   1.000000 0.385605 0.000001 -0.213830
C146  C     C_R   0.500000 0.885605 0.999998 -0.213841
C147  C     C_3   0.041925 0.500548 0.246737 0.558067
C148  C     C_3   0.958076 0.500557 0.753262 0.558069
C149  C     C_3   0.541925 0.000543 0.246737 0.558068
C150  C     C_3   0.458075 0.000525 0.753264 0.558070
C151  C     C_R   0.000000 0.306428 0.000000 -0.005125
C152  C     C_R   0.499999 0.806428 0.999998 -0.005126
C153  C     C_3   0.980274 0.463675 0.304735 -0.439941
C154  C     C_3   0.019717 0.463671 0.695273 -0.439927
C155  C     C_3   0.480270 0.963677 0.304740 -0.439948
C156  C     C_3   0.519744 0.963685 0.695246 -0.439972
C157  C     C_3   0.000040 0.499721 0.310857 0.026115
C158  C     C_3   0.999960 0.499721 0.689143 0.026112
C159  C     C_3   0.500040 0.999721 0.310857 0.026111
C160  C     C_3   0.499960 0.999720 0.689144 0.026110
C161  C     C_3   0.000651 0.499682 0.188389 0.035806
C162  C     C_3   0.999349 0.499682 0.811610 0.035808
C163  C     C_3   0.500651 0.999681 0.188390 0.035807
C164  C     C_3   0.499349 0.999680 0.811611 0.035807
C165  C     C_3   0.041627 0.499410 0.174821 -0.403881
C166  C     C_3   0.958373 0.499419 0.825179 -0.403885
C167  C     C_3   0.541627 0.999406 0.174821 -0.403879
C168  C     C_3   0.458373 0.999389 0.825179 -0.403872
Cu1   Cu    Cu3+1 0.000000 0.537250 0.500000 0.967084
Cu2   Cu    Cu3+1 0.500000 0.037250 0.500000 0.967071
Cu3   Cu    Cu3+1 1.000000 0.462700 0.500000 1.014291
Cu4   Cu    Cu3+1 0.500000 0.962700 0.500000 1.014333
Cu5   Cu    Cu3+1 0.962700 0.499940 0.037300 1.059640
Cu6   Cu    Cu3+1 0.037300 0.499940 0.962700 1.059636
Cu7   Cu    Cu3+1 0.462700 0.999940 0.037300 1.059641
Cu8   Cu    Cu3+1 0.537300 0.999940 0.962700 1.059643
Cu9   Cu    Cu3+1 0.499970 0.500070 0.937560 0.978497
Cu10  Cu    Cu3+1 0.500030 0.500070 0.062440 0.978493
Cu11  Cu    Cu3+1 0.999970 0.000070 0.937560 0.978496
Cu12  Cu    Cu3+1 0.000030 0.000070 0.062440 0.978494
H1    H     H_    0.987202 0.561105 0.317876 0.205473
H2    H     H_    0.012813 0.561102 0.682107 0.205472
H3    H     H_    0.487208 0.061107 0.317869 0.205472
H4    H     H_    0.512765 0.061111 0.682158 0.205469
H5    H     H_    0.057861 0.475123 0.141828 0.211558
H6    H     H_    0.942134 0.475136 0.858177 0.211557
H7    H     H_    0.557859 0.975118 0.141830 0.211558
H8    H     H_    0.442150 0.975095 0.858163 0.211558
H9    H     H_    0.618907 0.502055 0.982734 0.191204
H10   H     H_    0.381094 0.501961 0.017260 0.191210
H11   H     H_    0.118907 0.002053 0.982734 0.191205
H12   H     H_    0.881094 0.002001 0.017263 0.191209
H13   H     H_    0.619276 0.497359 0.782159 0.169836
H14   H     H_    0.380723 0.497452 0.217850 0.169839
H15   H     H_    0.119276 0.997362 0.782159 0.169834
H16   H     H_    0.880723 0.997412 0.217846 0.169836
H17   H     H_    0.687976 0.497322 0.715576 0.155584
H18   H     H_    0.312022 0.497414 0.284431 0.155586
H19   H     H_    0.187976 0.997324 0.715576 0.155584
H20   H     H_    0.812023 0.997374 0.284428 0.155585
H21   H     H_    0.811936 0.439512 0.688312 0.143872
H22   H     H_    0.188062 0.439510 0.311539 0.143914
H23   H     H_    0.311936 0.939512 0.688327 0.143880
H24   H     H_    0.688063 0.939512 0.311619 0.143895
H25   H     H_    0.880704 0.439333 0.618245 0.165957
H26   H     H_    0.119294 0.439331 0.381606 0.166024
H27   H     H_    0.380704 0.939333 0.618260 0.165979
H28   H     H_    0.619295 0.939332 0.381686 0.165995
H29   H     H_    0.880720 0.560593 0.624309 0.162441
H30   H     H_    0.119283 0.560596 0.375838 0.162434
H31   H     H_    0.380719 0.060593 0.624296 0.162442
H32   H     H_    0.619281 0.060595 0.375759 0.162438
H33   H     H_    0.947641 0.531260 0.347750 0.188142
H34   H     H_    0.052366 0.531248 0.652242 0.188135
H35   H     H_    0.447645 0.031266 0.347747 0.188145
H36   H     H_    0.552342 0.031287 0.652266 0.188152
H37   H     H_    0.811924 0.560301 0.694376 0.144683
H38   H     H_    0.188078 0.560305 0.305770 0.144655
H39   H     H_    0.311924 0.060302 0.694364 0.144682
H40   H     H_    0.688077 0.060303 0.305691 0.144668
H41   H     H_    0.547628 0.310972 0.894083 0.151215
H42   H     H_    0.452373 0.310971 0.105916 0.151215
H43   H     H_    0.047628 0.810971 0.894084 0.151215
H44   H     H_    0.952373 0.810971 0.105915 0.151216
H45   H     H_    0.039853 0.688375 0.886324 0.179153
H46   H     H_    0.960148 0.688375 0.113675 0.179154
H47   H     H_    0.539854 0.188376 0.886325 0.179154
H48   H     H_    0.460147 0.188375 0.113675 0.179155
H49   H     H_    0.500145 0.687769 0.099753 0.141091
H50   H     H_    0.499854 0.687769 0.900246 0.141092
H51   H     H_    0.000076 0.187769 0.099821 0.141089
H52   H     H_    0.999925 0.187769 0.900177 0.141088
H53   H     H_    0.500144 0.619058 0.100189 0.161018
H54   H     H_    0.499856 0.619058 0.899810 0.161019
H55   H     H_    0.000074 0.119058 0.100258 0.161015
H56   H     H_    0.999926 0.119058 0.899741 0.161015
H57   H     H_    0.056982 0.310545 0.976030 0.186068
H58   H     H_    0.943018 0.310545 0.023972 0.186066
H59   H     H_    0.556978 0.810545 0.976047 0.186067
H60   H     H_    0.443021 0.810546 0.023947 0.186066
H61   H     H_    0.953905 0.540500 0.237285 0.230059
H62   H     H_    0.046103 0.540490 0.762706 0.230052
H63   H     H_    0.453909 0.040504 0.237281 0.230062
H64   H     H_    0.546075 0.040520 0.762734 0.230070
H65   H     H_    0.999423 0.561042 0.201133 0.204193
H66   H     H_    0.000590 0.561042 0.798852 0.204202
H67   H     H_    0.499429 0.061042 0.201126 0.204189
H68   H     H_    0.500547 0.061041 0.798898 0.204173
H69   H     H_    0.056832 0.524223 0.141205 0.161959
H70   H     H_    0.943173 0.524235 0.858790 0.161955
H71   H     H_    0.556835 0.024217 0.141203 0.161962
H72   H     H_    0.443156 0.024195 0.858804 0.161973
H73   H     H_    0.995556 0.437874 0.303544 0.238749
H74   H     H_    0.004430 0.437874 0.696472 0.238748
H75   H     H_    0.495549 0.937875 0.303551 0.238749
H76   H     H_    0.504476 0.937876 0.696424 0.238751
H77   H     H_    0.951758 0.461072 0.353347 0.139946
H78   H     H_    0.048233 0.461061 0.646662 0.139958
H79   H     H_    0.451754 0.961078 0.353352 0.139945
H80   H     H_    0.548261 0.961097 0.646633 0.139937
H81   H     H_    0.946656 0.473903 0.257352 0.149335
H82   H     H_    0.053338 0.473891 0.742654 0.149332
H83   H     H_    0.446653 0.973908 0.257355 0.149335
H84   H     H_    0.553357 0.973928 0.742635 0.149343
O1    O     O_R   0.945620 0.531450 0.554380 -0.589968
O2    O     O_R   0.054380 0.531450 0.445620 -0.589968
O3    O     O_R   0.445620 0.031450 0.554380 -0.589972
O4    O     O_R   0.554380 0.031450 0.445620 -0.589969
O5    O     O_R   0.554340 0.500070 0.892900 -0.585306
O6    O     O_R   0.445660 0.500070 0.107100 -0.585310
O7    O     O_R   0.054340 0.000070 0.892900 -0.585310
O8    O     O_R   0.945660 0.000070 0.107100 -0.585312
O9    O     O_R   0.554350 0.500090 0.998410 -0.580510
O10   O     O_R   0.445650 0.500090 0.001590 -0.580512
O11   O     O_R   0.054350 0.000090 0.998410 -0.580507
O12   O     O_R   0.945650 0.000090 0.001590 -0.580508
O13   O     O_R   0.500010 0.554450 0.947200 -0.584280
O14   O     O_R   0.499990 0.554450 0.052800 -0.584288
O15   O     O_R   0.000010 0.054450 0.947200 -0.584282
O16   O     O_R   0.999990 0.054450 0.052800 -0.584286
O17   O     O_R   0.945570 0.468490 0.554430 -0.574985
O18   O     O_R   0.054430 0.468490 0.445570 -0.574997
O19   O     O_R   0.445570 0.968490 0.554430 -0.574978
O20   O     O_R   0.554430 0.968490 0.445570 -0.574987
O21   O     O_R   0.999990 0.531450 0.408860 -0.590072
O22   O     O_R   0.000010 0.531450 0.591140 -0.590069
O23   O     O_R   0.499990 0.031450 0.408860 -0.590077
O24   O     O_R   0.500010 0.031450 0.591140 -0.590097
O25   O     O_R   0.999940 0.468490 0.408900 -0.561979
O26   O     O_R   0.000060 0.468490 0.591100 -0.561983
O27   O     O_R   0.499940 0.968490 0.408900 -0.561969
O28   O     O_R   0.500060 0.968490 0.591100 -0.561941
O29   O     O_R   0.968510 0.554330 0.031500 -0.549805
O30   O     O_R   0.031490 0.554330 0.968500 -0.549806
O31   O     O_R   0.468510 0.054330 0.031500 -0.549804
O32   O     O_R   0.531490 0.054330 0.968500 -0.549807
O33   O     O_R   0.968510 0.499950 0.122650 -0.573345
O34   O     O_R   0.031490 0.499950 0.877350 -0.573354
O35   O     O_R   0.468510 0.999950 0.122650 -0.573346
O36   O     O_R   0.531490 0.999950 0.877350 -0.573335
O37   O     O_R   0.031450 0.499990 0.059700 -0.600407
O38   O     O_R   0.968550 0.499990 0.940300 -0.600408
O39   O     O_R   0.531450 0.999990 0.059700 -0.600404
O40   O     O_R   0.468550 0.999990 0.940300 -0.600401
O41   O     O_R   0.968500 0.445560 0.031500 -0.532737
O42   O     O_R   0.031500 0.445560 0.968500 -0.532740
O43   O     O_R   0.468500 0.945560 0.031500 -0.532740
O44   O     O_R   0.531500 0.945560 0.968500 -0.532733
O45   O     O_R   0.499920 0.445680 0.947340 -0.562026
O46   O     O_R   0.500080 0.445680 0.052660 -0.562019
O47   O     O_R   0.999920 0.945680 0.947340 -0.562025
O48   O     O_R   0.000080 0.945680 0.052660 -0.562021
N1    N     N_2   0.981567 0.430005 0.201392 -0.451051
H85   H     H_    0.961311 0.410656 0.233323 0.261192
C169  C     C_3   0.018473 0.413550 0.158877 -0.584135
H86   H     H_    0.015697 0.384234 0.144731 0.229792
H87   H     H_    0.033465 0.412876 0.189212 0.262123
H88   H     H_    0.034825 0.428944 0.107465 0.256630
N2    N     N_2   0.018418 0.430001 0.798625 -0.451061
H89   H     H_    0.038669 0.410648 0.766700 0.261191
C170  C     C_3   0.981507 0.413554 0.841142 -0.584125
H90   H     H_    0.984277 0.384237 0.855293 0.229804
H91   H     H_    0.966516 0.412883 0.810805 0.262118
H92   H     H_    0.965159 0.428951 0.892551 0.256644
N3    N     N_2   0.481560 0.930007 0.201400 -0.451051
H93   H     H_    0.461302 0.910660 0.233333 0.261190
C171  C     C_3   0.518464 0.913548 0.158886 -0.584127
H94   H     H_    0.515686 0.884233 0.144742 0.229791
H95   H     H_    0.533456 0.912872 0.189222 0.262126
H96   H     H_    0.534817 0.928941 0.107473 0.256631
N4    N     N_2   0.518468 0.930013 0.798573 -0.451030
H97   H     H_    0.538732 0.910674 0.766631 0.261196
C172  C     C_3   0.481569 0.913541 0.841085 -0.584150
H98   H     H_    0.484359 0.884227 0.855220 0.229771
H99   H     H_    0.466577 0.912858 0.810750 0.262138
H100  H     H_    0.465211 0.928929 0.892502 0.256607
Cl1   Cl    Cl    0.066763 0.459679 0.251464 -0.655695
Cl2   Cl    Cl    0.933228 0.459694 0.748544 -0.655673
Cl3   Cl    Cl    0.566759 0.959671 0.251467 -0.655671
Cl4   Cl    Cl    0.433257 0.959642 0.748520 -0.655644
Cl5   Cl    Cl    0.696609 0.502615 0.935002 -0.587658
Cl6   Cl    Cl    0.303392 0.502493 0.064988 -0.587651
Cl7   Cl    Cl    0.196609 0.002612 0.935003 -0.587668
Cl8   Cl    Cl    0.803392 0.002546 0.064992 -0.587656
N5    N     N_2   0.556311 0.387157 0.878283 -0.407881
H101  H     H_    0.566342 0.410625 0.891028 0.247676
C173  C     C_3   0.584503 0.367484 0.814968 -0.662300
H102  H     H_    0.602662 0.388163 0.773061 0.229882
H103  H     H_    0.570983 0.349664 0.792307 0.236098
H104  H     H_    0.602407 0.350208 0.828524 0.223607
N6    N     N_2   0.443690 0.387156 0.121718 -0.407879
H105  H     H_    0.433658 0.410624 0.108972 0.247681
C174  C     C_3   0.415499 0.367483 0.185033 -0.662272
H106  H     H_    0.397340 0.388161 0.226941 0.229894
H107  H     H_    0.429020 0.349662 0.207693 0.236092
H108  H     H_    0.397594 0.350206 0.171478 0.223606
N7    N     N_2   0.056311 0.887157 0.878283 -0.407880
H109  H     H_    0.066343 0.910625 0.891029 0.247676
C175  C     C_3   0.084504 0.867484 0.814969 -0.662302
H110  H     H_    0.102664 0.888163 0.773062 0.229883
H111  H     H_    0.070984 0.849664 0.792308 0.236097
H112  H     H_    0.102408 0.850208 0.828527 0.223607
N8    N     N_2   0.943690 0.887156 0.121717 -0.407881
H113  H     H_    0.933658 0.910624 0.108971 0.247680
C176  C     C_3   0.915498 0.867483 0.185032 -0.662286
H114  H     H_    0.897338 0.888161 0.226939 0.229890
H115  H     H_    0.929018 0.849662 0.207692 0.236094
H116  H     H_    0.897593 0.850206 0.171475 0.223608
Cl9   Cl    Cl    0.050534 0.611073 0.852343 -0.639925
Cl10  Cl    Cl    0.949466 0.611073 0.147656 -0.639920
Cl11  Cl    Cl    0.550535 0.111074 0.852344 -0.639919
Cl12  Cl    Cl    0.449465 0.111073 0.147656 -0.639918
Cl13  Cl    Cl    0.074702 0.386158 0.970068 -0.598959
Cl14  Cl    Cl    0.925297 0.386158 0.029940 -0.598973
Cl15  Cl    Cl    0.574698 0.886158 0.970086 -0.598964
Cl16  Cl    Cl    0.425303 0.886159 0.029902 -0.598954
N9    N     N_2   0.060684 0.534765 0.250373 -0.437655
H117  H     H_    0.049169 0.559321 0.245083 0.237635
C177  C     C_3   0.101397 0.536105 0.209590 -0.568935
H118  H     H_    0.111032 0.564999 0.211098 0.205101
H119  H     H_    0.112315 0.528173 0.152505 0.231612
H120  H     H_    0.113254 0.517267 0.234000 0.275813
N10   N     N_2   0.939325 0.534779 0.749619 -0.437646
H121  H     H_    0.950845 0.559332 0.754902 0.237639
C178  C     C_3   0.898611 0.536129 0.790402 -0.568966
H122  H     H_    0.888983 0.565025 0.788885 0.205092
H123  H     H_    0.887692 0.528201 0.847489 0.231617
H124  H     H_    0.886750 0.517293 0.765998 0.275817
N11   N     N_2   0.560688 0.034758 0.250370 -0.437663
H125  H     H_    0.549175 0.059316 0.245078 0.237635
C179  C     C_3   0.601401 0.036094 0.209586 -0.568949
H126  H     H_    0.611039 0.064987 0.211092 0.205099
H127  H     H_    0.612318 0.028162 0.152502 0.231617
H128  H     H_    0.613256 0.017254 0.233996 0.275816
N12   N     N_2   0.439297 0.034731 0.749643 -0.437688
H129  H     H_    0.450799 0.059294 0.754943 0.237633
C180  C     C_3   0.398583 0.036050 0.790427 -0.568955
H130  H     H_    0.388933 0.064939 0.788929 0.205105
H131  H     H_    0.387670 0.028115 0.847509 0.231624
H132  H     H_    0.386737 0.017204 0.766011 0.275821

loop_
_geom_bond_atom_site_label_1
_geom_bond_atom_site_label_2
_ccdc_geom_bond_type
C128  H56   S    
C179  H128  S    
N7    H109  S    
C55   C59   A    
C108  C120  A    
C47   O27   A    
C172  H98   S    
C117  C163  S    
C118  C164  S    
Cu1   O2    S    
C89   C99   A    
C61   H37   S    
C154  C158  S    
C85   H35   S    
C118  H68   S    
C29   C33   S    
C139  C152  A    
C140  H60   S    
C63   H39   S    
C9    C13   A    
C15   H11   S    
C115  H61   S    
C11   C15   A    
C12   C16   A    
C59   H31   S    
Cu5   O33   S    
Cu7   O35   S    
C148  Cl2   S    
C91   C100  A    
C8    H84   S    
C140  C152  A    
C141  C145  A    
C1    O17   A    
C58   H30   S    
C76   C146  S    
C4    C56   S    
C5    H81   S    
C41   C49   A    
C174  H107  S    
Cu9   O10   S    
C25   C29   A    
C94   N6    S    
C116  H62   S    
C27   C31   A    
Cu1   O22   S    
C46   O22   A    
C71   O37   A    
C92   H44   S    
C62   C66   A    
C108  H48   S    
C94   C97   A    
C7    C163  S    
C17   C21   A    
C72   O34   A    
C5    C161  S    
C19   C23   A    
Cu10  O14   S    
Cu7   Cu8   S    
C83   C157  S    
C16   C20   A    
C150  C168  S    
C27   H19   S    
C85   C117  S    
C60   H32   S    
C124  H52   S    
C117  H63   S    
C164  C168  S    
C99   C101  S    
C125  C129  A    
C8    C164  S    
N11   H125  S    
N10   H121  S    
C107  C120  A    
C148  N10   S    
C172  H100  S    
C153  H73   S    
C71   C161  S    
Cu2   O3    S    
C166  H6    S    
C59   C63   A    
C57   C61   A    
C138  C151  A    
C127  H55   S    
C109  Cl9   S    
C60   C64   A    
C180  H131  S    
C73   C163  S    
C176  H114  S    
C74   C164  S    
C49   C53   A    
C84   H2    S    
C51   C55   A    
C137  H57   S    
C88   O15   A    
C86   H36   S    
C61   C65   A    
C132  C134  S    
C170  H90   S    
C175  H110  S    
C45   O25   A    
C69   O30   A    
C147  N9    S    
C81   O11   A    
C20   C24   A    
C8    N4    S    
C161  C165  S    
C76   O44   A    
C178  H123  S    
C77   O45   A    
N2    C170  S    
C20   C82   S    
C123  C132  A    
C73   O35   A    
C74   O36   A    
N6    H105  S    
C112  Cl12  S    
Cu12  O16   S    
C112  C114  A    
C17   C79   S    
C47   C159  S    
C48   C160  S    
C69   C113  S    
C166  H70   S    
Cu9   O45   S    
C64   C68   A    
C149  N11   S    
C96   N8    S    
Cu11  O47   S    
C22   H14   S    
C89   H41   S    
C51   H27   S    
N1    C169  S    
C46   C158  S    
Cu8   O44   S    
C83   H1    S    
N3    C171  S    
C1    C53   S    
C147  C165  S    
C147  Cl1   S    
C3    C55   S    
C37   C65   S    
C7    H83   S    
C105  H45   S    
C154  H78   S    
C5    N1    S    
C44   C52   A    
C84   C116  S    
Cu5   O38   S    
C149  Cl3   S    
Cu1   Cu3   S    
C80   O10   A    
C118  H64   S    
C144  Cl16  S    
C92   C96   A    
C121  H49   S    
C30   C34   S    
C155  C159  S    
C83   C115  S    
C156  C160  S    
C45   C157  S    
C10   C14   A    
C176  H116  S    
C171  H95   S    
C75   O42   A    
C84   C158  S    
C177  H120  S    
C111  Cl11  S    
Cu4   O28   S    
Cu5   O29   S    
Cu6   O34   S    
C87   O14   A    
C115  C161  S    
C71   O33   A    
C121  C125  A    
C72   O38   A    
C155  H79   S    
C123  C127  A    
C170  H92   S    
C7    C155  S    
C6    H82   S    
C70   O31   A    
C42   C50   A    
C50   H26   S    
Cu10  O9    S    
C116  H66   S    
C26   C30   A    
C78   O48   A    
C40   C68   S    
C42   H22   S    
C93   C97   A    
C90   C99   A    
C179  H127  S    
C21   C25   A    
C169  H88   S    
C153  H77   S    
C18   C22   A    
C107  C111  A    
C24   C28   A    
Cu9   O5    S    
C134  C135  T    
Cu11  O7    S    
Cu1   O1    S    
Cu5   O41   S    
C87   C129  S    
C180  H130  S    
C173  H104  S    
C4    O20   A    
C79   O9    A    
C175  H112  S    
C89   C93   A    
C102  C103  T    
C126  H54   S    
N9    C177  S    
C91   C95   A    
C14   H10   S    
C107  H47   S    
C85   H3    S    
C23   H15   S    
C44   H24   S    
C72   C162  S    
C115  H65   S    
C19   C81   S    
C58   C62   A    
C143  C146  A    
C141  Cl13  S    
C168  H8    S    
C106  C119  A    
C148  C166  S    
C122  C131  A    
C149  C167  S    
C174  H106  S    
C177  H118  S    
C2    O18   A    
C15   C19   A    
C50   C54   A    
C150  C160  S    
Cu1   O21   S    
C143  Cl15  S    
Cu12  O11   S    
C75   C145  S    
C54   C58   A    
C24   H16   S    
C45   O21   A    
C14   C18   A    
C105  C109  A    
C136  C152  S    
C162  C166  S    
Cu4   O19   S    
Cu2   O23   S    
C73   O39   A    
N8    H113  S    
C74   O40   A    
N5    C173  S    
Cu3   O18   S    
C124  C128  A    
C169  H86   S    
N7    C175  S    
C34   C38   T    
C86   H4    S    
C142  C145  A    
Cu10  O46   S    
C90   C94   A    
C57   H29   S    
C172  H99   S    
C168  H72   S    
C3    O3    A    
Cu2   O4    S    
C144  C146  A    
C2    C54   S    
C180  H132  S    
C173  H102  S    
C53   C57   A    
N4    C172  S    
C33   C37   T    
C108  C112  A    
C35   C39   T    
N4    H97   S    
C48   O28   A    
C28   C32   A    
Cu6   O37   S    
C86   C118  S    
C79   O5    A    
C88   O16   A    
Cu12  O8    S    
C49   H25   S    
C101  C104  T    
C138  C142  A    
C31   C35   S    
C91   H43   S    
C32   C36   S    
C174  H108  S    
C178  H122  S    
C154  H74   S    
C137  C141  A    
Cu7   O43   S    
Cu6   O30   S    
C9    Cl5   S    
Cu8   O36   S    
Cu2   O24   S    
C140  C144  A    
C11   Cl7   S    
C128  C130  A    
N12   H129  S    
N6    C174  S    
C13   C17   A    
Cu11  Cu12  S    
C4    O4    A    
C110  Cl10  S    
C126  C129  A    
C171  H94   S    
C47   O23   A    
C48   O24   A    
C43   C51   A    
N1    H85   S    
Cu2   Cu4   S    
Cu11  O12   S    
C135  C151  S    
C111  C114  A    
C153  C157  S    
N3    H93   S    
N2    H89   S    
Cu3   O26   S    
C56   C60   A    
C123  H51   S    
Cu9   Cu10  S    
C22   C26   A    
N11   C179  S    
C105  C119  A    
C85   C159  S    
C86   C160  S    
Cu10  O6    S    
C104  C120  S    
C2    O2    A    
C6    N2    S    
Cu7   O31   S    
Cu6   O42   S    
Cu8   O32   S    
C88   C130  S    
C95   C98   A    
C13   H9    S    
C179  H126  S    
Cu5   Cu6   S    
C70   C114  S    
C124  C132  A    
C28   H20   S    
C165  H69   S    
C62   H38   S    
C116  C162  S    
C90   H42   S    
C176  H115  S    
C46   O26   A    
C75   O41   A    
C177  H119  S    
C81   O7    A    
C167  H71   S    
C82   O8    A    
C87   O13   A    
C10   C30   A    
C10   Cl6   S    
C16   H12   S    
C155  H75   S    
C150  N12   S    
C6    C162  S    
C170  H91   S    
C78   C98   S    
C133  C136  T    
C106  H46   S    
C7    N3    S    
C23   C27   A    
C80   O6    A    
C9    C29   A    
C82   O12   A    
C76   O43   A    
C3    O19   A    
C77   O46   A    
Cu11  O15   S    
C12   C32   A    
N8    C176  S    
C139  C143  A    
C121  C131  A    
C26   H18   S    
C83   H33   S    
C84   H34   S    
C117  H67   S    
C122  H50   S    
C63   C67   A    
C169  H87   S    
C64   H40   S    
C139  H59   S    
Cu12  O48   S    
C36   C40   T    
C125  H53   S    
C93   N5    S    
C41   C65   A    
C165  H5    S    
C95   N7    S    
C96   C98   A    
C142  Cl14  S    
C122  C126  A    
C163  C167  S    
N10   C178  S    
C173  H103  S    
C167  H7    S    
C100  C102  S    
C175  H111  S    
C6    C154  S    
C77   C97   S    
C109  C113  A    
C149  C159  S    
C110  C113  A    
N9    H117  S    
C43   C67   A    
C70   O32   A    
C43   H23   S    
C44   C68   A    
C147  C157  S    
Cu3   O25   S    
C92   C100  A    
C106  C110  A    
C38   C66   S    
C52   H28   S    
C39   C67   S    
C103  C119  S    
C131  C133  S    
C150  Cl4   S    
C171  H96   S    
Cu4   O27   S    
Cu9   O13   S    
C148  C158  S    
Cu7   O40   S    
Cu8   O39   S    
C21   H13   S    
C178  H124  S    
C127  C130  A    
N12   C180  S    
C5    C153  S    
C138  H58   S    
C69   O29   A    
C8    C156  S    
C25   H17   S    
C12   Cl8   S    
C11   C31   A    
Cu4   O20   S    
C156  H76   S    
C1    O1    A    
C18   C80   S    
C78   O47   A    
C42   C66   A    
C137  C151  A    
N5    H101  S    
Cu3   O17   S    
C41   H21   S    
C52   C56   A    
C156  H80   S    
