data_mof_unit_51486.cif
_audit_creation_date              2012-12-10T17:33:47-0500
_audit_creation_method            fapswitch 2.2
_symmetry_space_group_name_H-M    P1
_symmetry_Int_Tables_number       1
_space_group_crystal_system       triclinic
_cell_length_a                    11.704361
_cell_length_b                    12.385621
_cell_length_c                    13.041978
_cell_angle_alpha                 116.704258
_cell_angle_beta                  77.031573
_cell_angle_gamma                 101.548972
_cell_volume                      1635.14684026

loop_
_atom_site_label
_atom_site_type_symbol
_atom_type_description
_atom_site_fract_x
_atom_site_fract_y
_atom_site_fract_z
_atom_type_partial_charge
C1    C     C_R   0.504496 0.855262 0.285158 0.768334
C2    C     C_R   0.450069 0.226937 0.836936 -0.056230
C3    C     C_R   0.537069 0.817364 0.068908 0.039669
C4    C     C_R   0.569953 0.730687 0.952571 0.150220
C5    C     C_R   0.542578 0.606761 0.926680 -0.239336
C6    C     C_R   0.483890 0.564278 0.010271 0.038317
C7    C     C_R   0.451098 0.649676 0.125038 0.066277
C8    C     C_R   0.451021 0.438109 0.980229 0.095897
C9    C     C_R   0.367939 0.400049 0.058073 0.169657
C10   C     C_R   0.326859 0.486296 0.167838 -0.246694
C11   C     C_R   0.368423 0.608960 0.201309 -0.173037
C12   C     C_R   0.715785 0.000161 0.500084 0.821782
C13   C     C_R   0.497160 0.348534 0.873687 -0.259148
C14   C     C_R   0.362954 0.190687 0.911961 -0.211079
C15   C     C_R   0.495863 0.774309 0.158512 -0.188472
C16   C     C_R   0.691052 0.355821 0.334442 -0.330129
C17   C     C_R   0.342445 0.761104 0.648204 0.067484
C18   C     C_R   0.306605 0.665741 0.681596 -0.263001
C19   C     C_R   0.364375 0.561310 0.625367 -0.196735
C20   C     C_R   0.459565 0.551571 0.535076 0.001242
C21   C     C_R   0.493793 0.652825 0.504793 0.287698
C22   C     C_R   0.523926 0.447128 0.475293 -0.042804
C23   C     C_R   0.480326 0.144831 0.714234 0.798530
C24   C     C_R   0.621736 0.450139 0.390221 0.154431
C25   C     C_R   0.652930 0.548567 0.361714 -0.276216
C26   C     C_R   0.590192 0.647500 0.417554 -0.179542
C27   C     C_R   0.497392 0.340070 0.495917 -0.019679
C28   C     C_R   0.665816 0.255682 0.360377 0.293342
C29   C     C_R   0.284122 0.000058 0.500364 0.812204
C30   C     C_1   0.837448 0.000511 0.500708 -0.198900
C31   C     C_1   0.939871 0.000383 0.500970 -0.006849
C32   C     C_1   0.059691 0.000089 0.500856 -0.007357
C33   C     C_1   0.162237 0.999923 0.500643 -0.192535
C34   C     C_R   0.324402 0.276494 0.023375 -0.206686
Cu1   Cu    Cu3+1 0.526510 0.098270 0.475420 0.914500
Cu2   Cu    Cu3+1 0.473490 0.901730 0.524580 0.913379
H1    H     H_    0.324237 0.096796 0.884297 0.148800
H2    H     H_    0.767308 0.360850 0.270863 0.139320
H3    H     H_    0.422789 0.330303 0.557997 0.133528
H4    H     H_    0.296804 0.841579 0.692417 0.124491
H5    H     H_    0.333915 0.490338 0.654794 0.138271
H6    H     H_    0.233803 0.672889 0.751371 0.144270
H7    H     H_    0.621970 0.718853 0.390520 0.207116
H8    H     H_    0.258521 0.246797 0.081255 0.135465
H9    H     H_    0.569874 0.370923 0.816504 0.143267
H10   H     H_    0.558497 0.543310 0.837515 0.139457
H11   H     H_    0.328244 0.671856 0.284734 0.174678
N1    N     N_R   0.566700 0.246290 0.438210 -0.184306
N2    N     N_R   0.434010 0.754320 0.561170 -0.206672
O1    O     O_R   0.533340 0.972510 0.318140 -0.606120
O2    O     O_R   0.488570 0.806530 0.359650 -0.590419
O3    O     O_R   0.685190 0.083000 0.479260 -0.578899
O4    O     O_R   0.640410 0.917020 0.520770 -0.591463
O5    O     O_R   0.511430 0.193470 0.640350 -0.580426
O6    O     O_R   0.466660 0.027490 0.681860 -0.586187
O7    O     O_R   0.359590 0.082980 0.479230 -0.576109
O8    O     O_R   0.314810 0.917000 0.520740 -0.584527
H12   H     H_    0.727975 0.549863 0.295869 0.149881
H13   H     H_    0.261628 0.459054 0.227831 0.144210
C35   C     C_3   0.545545 0.954303 0.102751 -0.379282
C36   C     C_3   0.531171 0.001799 0.016281 -0.419446
C37   C     C_3   0.514017 0.136841 0.079531 -0.821527
H14   H     H_    0.424298 0.149430 0.131095 0.253801
H15   H     H_    0.580763 0.187918 0.138157 0.256138
H16   H     H_    0.526590 0.175499 0.015480 0.262496
H17   H     H_    0.612517 0.997283 0.952716 0.222889
H18   H     H_    0.454289 0.950011 0.971095 0.229904
H19   H     H_    0.471429 0.989461 0.174020 0.243600
H20   H     H_    0.630818 0.996336 0.133506 0.192830
C38   C     C_3   0.637011 0.768639 0.856657 -0.407463
C39   C     C_3   0.696933 0.670002 0.745623 -0.382262
C40   C     C_3   0.771702 0.724356 0.664294 -0.815607
H21   H     H_    0.716241 0.769710 0.640053 0.266997
H22   H     H_    0.844189 0.791619 0.706738 0.247077
H23   H     H_    0.810935 0.650851 0.583830 0.245119
H24   H     H_    0.754523 0.625545 0.768664 0.222086
H25   H     H_    0.629097 0.600417 0.697199 0.227161
H26   H     H_    0.574506 0.802619 0.828484 0.205316
H27   H     H_    0.708684 0.841133 0.893783 0.202323
C41   C     C_3   0.754624 0.163898 0.298805 -0.384346
C42   C     C_3   0.870406 0.211666 0.350204 -0.341989
C43   C     C_3   0.961125 0.120789 0.284893 -0.853086
H28   H     H_    0.925078 0.031298 0.286109 0.256752
H29   H     H_    0.985526 0.108652 0.193294 0.244851
H30   H     H_    0.041839 0.155186 0.326746 0.247221
H31   H     H_    0.908641 0.298769 0.344341 0.205541
H32   H     H_    0.853684 0.229762 0.443416 0.242168
H33   H     H_    0.720806 0.074066 0.296738 0.241298
H34   H     H_    0.775653 0.147939 0.205905 0.153277

loop_
_geom_bond_atom_site_label_1
_geom_bond_atom_site_label_2
_ccdc_geom_bond_type
C27   N1    A    
C16   C28   A    
C21   C26   A    
C8    C13   A    
C38   H26   S    
C11   H11   S    
C19   C20   A    
C21   N2    A    
C42   C43   S    
C7    C11   A    
C5    C6    A    
C18   H6    S    
C30   C31   T    
C29   C33   S    
C18   C19   A    
C41   H34   S    
C2    C13   A    
C37   H15   S    
Cu2   O4    S    
C36   H17   S    
Cu1   Cu2   S    
C27   H3    S    
C8    C9    A    
C38   C39   S    
C1    C15   S    
C1    O1    A    
C42   H31   S    
C3    C35   S    
C7    C15   A    
C38   H27   S    
C16   C24   A    
Cu1   O5    S    
C40   H23   S    
C2    C14   A    
Cu1   N1    S    
C4    C38   S    
C12   O3    A    
C26   H7    S    
C34   H8    S    
C24   C25   A    
C40   H22   S    
Cu2   O8    S    
C17   N2    A    
C41   C42   S    
C6    C8    A    
C25   C26   A    
C35   C36   S    
C17   H4    S    
C37   H14   S    
C36   H18   S    
C31   C32   S    
C2    C23   S    
Cu1   O1    S    
C17   C18   A    
C1    O2    A    
C42   H32   S    
Cu2   O2    S    
C20   C22   A    
C43   H29   S    
C22   C27   A    
C9    C34   A    
C22   C24   A    
C25   H12   S    
C3    C4    A    
C39   H25   S    
C3    C15   A    
C23   O5    A    
C9    C10   A    
C28   N1    A    
C37   H16   S    
C12   C30   S    
Cu1   O7    S    
C12   O4    A    
C29   O8    A    
C40   H21   S    
C14   C34   A    
C23   O6    A    
C6    C7    A    
C29   O7    A    
C43   H30   S    
C5    H10   S    
C32   C33   T    
C10   H13   S    
C39   C40   S    
C41   H33   S    
Cu2   O6    S    
C14   H1    S    
C13   H9    S    
C39   H24   S    
C35   H20   S    
C36   C37   S    
C28   C41   S    
C10   C11   A    
C4    C5    A    
C20   C21   A    
C35   H19   S    
C43   H28   S    
Cu1   O3    S    
Cu2   N2    S    
C19   H5    S    
C16   H2    S    
