data_mof_unit_19956.cif
_audit_creation_date              2012-10-26T18:31:59-0400
_audit_creation_method            fapswitch 2.2
_symmetry_space_group_name_H-M    P1
_symmetry_Int_Tables_number       1
_space_group_crystal_system       triclinic
_cell_length_a                    12.395915
_cell_length_b                    13.283105
_cell_length_c                    14.248189
_cell_angle_alpha                 94.172376
_cell_angle_beta                  107.80006
_cell_angle_gamma                 117.580205
_cell_volume                      1915.01936805

loop_
_atom_site_label
_atom_site_type_symbol
_atom_type_description
_atom_site_fract_x
_atom_site_fract_y
_atom_site_fract_z
_atom_type_partial_charge
C1    C     C_R   0.650515 0.714195 0.508571 0.523758
C2    C     C_R   0.139242 0.402703 0.999379 0.049122
C3    C     C_R   0.112047 0.448562 0.076340 0.031935
C4    C     C_R   0.617147 0.515190 0.686878 0.531743
C5    C     C_R   0.245837 0.383609 0.025480 -0.139773
C6    C     C_R   0.326835 0.410700 0.127437 -0.143985
C7    C     C_R   0.198985 0.480618 0.177882 -0.136543
C8    C     C_R   0.119272 0.966096 0.346110 -0.131598
C9    C     C_R   0.244394 0.160923 0.458904 -0.002207
C10   C     C_R   0.739403 0.922948 0.583976 -0.132264
C11   C     C_R   0.832253 0.040964 0.604956 -0.141757
C12   C     C_R   0.830469 0.479651 0.919479 0.017259
C13   C     C_R   0.927281 0.075797 0.562830 -0.122562
C14   C     C_R   0.927632 0.992518 0.494963 0.029437
C15   C     C_R   0.821495 0.874950 0.462752 0.019019
C16   C     C_R   0.344335 0.284881 0.483978 0.549596
C17   C     C_R   0.030378 0.021664 0.458771 0.027819
C18   C     C_R   0.017580 0.937999 0.381833 0.049995
C19   C     C_R   0.903050 0.827861 0.340885 -0.151540
C20   C     C_R   0.805577 0.796767 0.380195 -0.137192
C21   C     C_R   0.147300 0.130803 0.498896 -0.132036
C22   C     C_R   0.231965 0.077648 0.383921 -0.136123
C23   C     C_R   0.791716 0.511396 0.995739 0.048095
C24   C     C_R   0.735364 0.838670 0.515325 -0.003586
C25   C     C_R   0.240612 0.606212 0.700558 -0.008053
C26   C     C_R   0.657444 0.363454 0.347883 0.039298
C27   C     C_R   0.735999 0.341150 0.308118 -0.168752
C28   C     C_R   0.379846 0.480855 0.312806 0.541640
C29   C     C_R   0.869546 0.389520 0.365922 -0.138921
C30   C     C_R   0.926474 0.459329 0.465975 -0.019156
C31   C     C_R   0.843205 0.482494 0.504489 0.190791
C32   C     C_R   0.063723 0.508125 0.529556 -0.031712
C33   C     C_R   0.105523 0.551774 0.635731 0.028397
C34   C     C_R   0.928934 0.447550 0.945278 0.031816
C35   C     C_R   0.012339 0.547112 0.673452 -0.164635
C36   C     C_R   0.904113 0.549866 0.608707 0.045065
C37   C     C_R   0.160855 0.513619 0.493350 0.033756
C38   C     C_R   0.331008 0.615847 0.657597 0.055866
C39   C     C_R   0.677115 0.516129 0.793825 -0.028418
C40   C     C_R   0.303447 0.459238 0.204214 -0.006181
C41   C     C_R   0.692376 0.542372 0.969864 0.017583
C42   C     C_R   0.635964 0.543372 0.868047 -0.113922
C43   C     C_R   0.773713 0.485523 0.820171 -0.150767
C44   C     C_3   0.293522 0.656876 0.814572 -0.297867
C45   C     C_R   0.000934 0.463567 0.049391 0.033419
C46   C     C_3   0.310888 0.778598 0.838785 -0.439857
C47   C     C_3   0.921485 0.670158 0.642268 -0.232027
C48   C     C_3   0.996128 0.756733 0.588878 -0.418726
C49   C     C_3   0.649527 0.574636 0.051577 -0.278820
C50   C     C_3   0.546903 0.611827 0.017612 -0.450989
C51   C     C_R   0.957401 0.490847 0.122932 -0.142747
C52   C     C_R   0.854051 0.512186 0.096428 -0.143726
C53   C     C_R   0.956659 0.398411 0.870490 -0.152155
C54   C     C_R   0.059332 0.375775 0.897378 -0.148244
Cu1   Cu    Cu3+1 0.416420 0.526630 0.522910 0.915968
Cu2   Cu    Cu3+1 0.583580 0.473370 0.477090 0.911561
H1    H     H_    0.826029 0.531682 0.157100 0.103968
H2    H     H_    0.718446 0.710435 0.345840 0.146601
H3    H     H_    0.434137 0.656345 0.705835 0.121940
H4    H     H_    0.188507 0.524548 0.238093 0.119183
H5    H     H_    0.041347 0.577517 0.754404 0.116027
H6    H     H_    0.134433 0.474054 0.415034 0.115025
H7    H     H_    0.554210 0.325596 0.301235 0.123673
H8    H     H_    0.925237 0.367403 0.332170 0.102759
H9    H     H_    0.692971 0.286013 0.231759 0.105092
H10   H     H_    0.406850 0.393042 0.146086 0.117069
H11   H     H_    0.077315 0.338406 0.837706 0.105328
H12   H     H_    0.265945 0.346926 0.966984 0.104838
H13   H     H_    0.560227 0.566010 0.845388 0.126233
H14   H     H_    0.806036 0.469417 0.761901 0.130224
H15   H     H_    0.998556 0.492539 0.201919 0.098057
H16   H     H_    0.897747 0.372463 0.790138 0.109043
H17   H     H_    0.381292 0.839607 0.808346 0.150569
H18   H     H_    0.215771 0.775449 0.805233 0.151394
H19   H     H_    0.350788 0.813302 0.922665 0.142232
H20   H     H_    0.229835 0.596711 0.849831 0.152742
H21   H     H_    0.391423 0.665907 0.851984 0.123421
H22   H     H_    0.097553 0.771953 0.611130 0.147977
H23   H     H_    0.306134 0.100370 0.351478 0.123440
H24   H     H_    0.945259 0.721495 0.505179 0.179784
H25   H     H_    0.003575 0.842087 0.611618 0.144242
H26   H     H_    0.833307 0.670624 0.639425 0.198605
H27   H     H_    0.981108 0.709178 0.725455 0.097124
H28   H     H_    0.585803 0.691660 0.988975 0.143724
H29   H     H_    0.453825 0.539456 0.957961 0.144920
H30   H     H_    0.524797 0.633116 0.083740 0.153043
H31   H     H_    0.609104 0.498233 0.084118 0.137509
H32   H     H_    0.737708 0.649130 0.113251 0.137873
H33   H     H_    0.890616 0.764293 0.280396 0.097898
H34   H     H_    0.109977 0.902862 0.287070 0.108475
H35   H     H_    0.165236 0.195464 0.560943 0.116734
H36   H     H_    0.672654 0.897332 0.623669 0.129358
H37   H     H_    0.997271 0.168678 0.583233 0.106172
H38   H     H_    0.833710 0.105473 0.657181 0.117578
N1    N     N_R   0.290690 0.566960 0.557640 -0.244788
N2    N     N_R   0.709100 0.433710 0.442970 -0.228332
O1    O     O_R   0.545970 0.684450 0.528810 -0.494705
O2    O     O_R   0.687130 0.639470 0.490120 -0.517016
O3    O     O_R   0.519670 0.535100 0.660030 -0.514713
O4    O     O_R   0.660830 0.490120 0.621340 -0.509388
O5    O     O_R   0.312870 0.360530 0.509880 -0.496001
O6    O     O_R   0.454030 0.315550 0.471190 -0.495447
O7    O     O_R   0.339170 0.509880 0.378660 -0.507003
O8    O     O_R   0.480330 0.464900 0.339970 -0.518576

loop_
_geom_bond_atom_site_label_1
_geom_bond_atom_site_label_2
_ccdc_geom_bond_type
Cu1   Cu2   S    
C27   C29   A    
C41   C42   A    
C49   H31   S    
C19   C20   A    
C14   C17   A    
Cu2   O2    S    
C37   H6    S    
C50   H28   S    
C53   C54   A    
C12   C23   A    
C26   C27   A    
C19   H33   S    
C44   H21   S    
C9    C16   S    
C22   H23   S    
C12   C43   A    
C3    C7    A    
C30   C31   A    
C9    C22   A    
C28   C40   S    
C31   N2    A    
Cu1   O7    S    
C48   H25   S    
C37   N1    A    
C36   C47   S    
C18   C19   A    
C47   H26   S    
C48   H22   S    
C44   H20   S    
C50   H29   S    
C35   C36   A    
C38   N1    A    
C8    C22   A    
C7    C40   A    
C47   H27   S    
C29   H8    S    
C10   H36   S    
C13   C14   A    
C49   H32   S    
C51   H15   S    
C5    H12   S    
C25   C44   S    
C41   C49   S    
C46   H19   S    
C44   C46   S    
C39   C42   A    
C26   N2    A    
C15   C20   A    
C51   C52   A    
Cu2   O8    S    
Cu1   N1    S    
C2    C54   A    
C1    O1    A    
C39   C43   A    
C54   H11   S    
C10   C24   A    
C3    C45   A    
C42   H13   S    
C8    C18   A    
C13   H37   S    
C26   H7    S    
C29   C30   A    
C27   H9    S    
C25   C38   A    
C28   O8    A    
C47   C48   S    
C4    C39   S    
Cu1   O1    S    
C17   C18   A    
C35   H5    S    
C34   C45   A    
C32   C37   A    
C1    C24   S    
C11   H38   S    
C16   O6    A    
C15   C24   A    
C43   H14   S    
C4    O4    A    
C6    C40   A    
C2    C5    A    
C8    H34   S    
Cu2   O4    S    
C20   H2    S    
C52   H1    S    
C7    H4    S    
C46   H18   S    
C21   H35   S    
Cu2   N2    S    
C14   C15   A    
C1    O2    A    
Cu1   O5    S    
C23   C41   A    
C32   C33   A    
C48   H24   S    
C2    C3    A    
Cu2   O6    S    
C30   C32   A    
C11   C13   A    
C28   O7    A    
C9    C21   A    
C23   C52   A    
C5    C6    A    
C33   C35   A    
C17   C21   A    
C10   C11   A    
C50   H30   S    
C38   H3    S    
C16   O5    A    
C6    H10   S    
C34   C53   A    
C49   C50   S    
C4    O3    A    
Cu1   O3    S    
C45   C51   A    
C31   C36   A    
C53   H16   S    
C12   C34   A    
C46   H17   S    
C25   C33   A    
