data_mof_unit_42441.cif
_audit_creation_date              2012-12-11T15:15:46-0500
_audit_creation_method            fapswitch 2.2
_symmetry_space_group_name_H-M    P1
_symmetry_Int_Tables_number       1
_space_group_crystal_system       triclinic
_cell_length_a                    20.686157
_cell_length_b                    22.66044
_cell_length_c                    6.937548
_cell_angle_alpha                 89.955746
_cell_angle_beta                  87.602159
_cell_angle_gamma                 89.980987
_cell_volume                      3249.17853208

loop_
_atom_site_label
_atom_site_type_symbol
_atom_type_description
_atom_site_fract_x
_atom_site_fract_y
_atom_site_fract_z
_atom_type_partial_charge
O1    O     O_R   0.387100 0.552640 0.378490 -0.523180
O2    O     O_R   0.612900 0.052640 0.621510 -0.521655
O3    O     O_R   0.249610 0.559600 0.072250 -0.546086
O4    O     O_R   0.750390 0.059600 0.927750 -0.519172
O5    O     O_R   0.249120 0.447360 0.902040 -0.528833
O6    O     O_R   0.750880 0.947360 0.097960 -0.521296
C1    C     C_R   0.228042 0.574434 0.242934 0.705284
C2    C     C_R   0.771459 0.074784 0.756759 0.747100
O7    O     O_R   0.386610 0.559560 0.048860 -0.537141
O8    O     O_R   0.613390 0.059560 0.951140 -0.531749
O9    O     O_R   0.387100 0.447320 0.878470 -0.542865
O10   O     O_R   0.612900 0.947320 0.121530 -0.541466
C3    C     C_R   0.408010 0.574691 0.214985 0.699309
C4    C     C_R   0.592137 0.074808 0.784887 0.706218
O11   O     O_R   0.249120 0.552680 0.402050 -0.551310
O12   O     O_R   0.750880 0.052680 0.597950 -0.552535
O13   O     O_3   0.318110 0.463180 0.223790 -0.367170
O14   O     O_3   0.681890 0.963180 0.776210 -0.378482
V1    V     V_3+5 0.318110 0.506830 0.948930 1.487325
V2    V     V_3+5 0.681890 0.006830 0.051070 1.517948
O15   O     O_R   0.386610 0.440400 0.548840 -0.521605
O16   O     O_R   0.613390 0.940400 0.451160 -0.534058
C5    C     C_R   0.408244 0.425444 0.715282 0.821207
C6    C     C_R   0.591916 0.925329 0.284854 0.765844
O17   O     O_R   0.249610 0.440440 0.572240 -0.541592
O18   O     O_R   0.750390 0.940440 0.427760 -0.561679
C7    C     C_R   0.227233 0.426828 0.743463 0.817555
C8    C     C_R   0.772386 0.926454 0.256640 0.718951
V3    V     V_3+5 0.318110 0.493170 0.448930 1.517087
V4    V     V_3+5 0.681890 0.993170 0.551070 1.480584
O19   O     O_3   0.318110 0.536820 0.723940 -0.379301
O20   O     O_3   0.681890 0.036820 0.276060 -0.361244
C9    C     C_R   0.170296 0.387875 0.757039 -0.055896
C10   C     C_R   0.827795 0.885725 0.244092 -0.107032
C11   C     C_R   0.169070 0.333728 0.655560 -0.080340
C12   C     C_R   0.825393 0.831079 0.342247 -0.097212
C13   C     C_R   0.111321 0.301932 0.653380 -0.186449
C14   C     C_R   0.881530 0.796786 0.346964 -0.080503
C15   C     C_R   0.055472 0.320907 0.756660 0.129745
C16   C     C_R   0.939236 0.814381 0.250396 0.067746
C17   C     C_R   0.056544 0.374446 0.861571 -0.030370
C18   C     C_R   0.941607 0.868567 0.147871 -0.036022
C19   C     C_R   0.114116 0.408174 0.859138 0.071014
C20   C     C_R   0.885486 0.904342 0.146858 0.115680
C21   C     C_R   0.881083 0.200154 0.895379 0.083118
C22   C     C_R   0.110098 0.695264 0.111608 0.151163
C23   C     C_R   0.826827 0.163105 0.890541 0.206499
C24   C     C_R   0.166738 0.661098 0.111475 0.137841
C25   C     C_R   0.872393 0.115770 0.601412 -0.285303
C26   C     C_R   0.124775 0.609438 0.398114 -0.259570
C27   C     C_R   0.926676 0.152661 0.604920 0.209083
C28   C     C_R   0.068243 0.643495 0.398222 0.166358
C29   C     C_R   0.932026 0.194129 0.754605 0.014071
C30   C     C_R   0.060329 0.685847 0.252740 0.032148
C31   C     C_2   0.995381 0.285787 0.741684 -0.078853
C32   C     C_2   0.997809 0.777459 0.270463 -0.043599
C33   C     C_2   0.993265 0.227149 0.773290 0.205196
C34   C     C_2   0.998694 0.718674 0.241369 0.239102
C35   C     C_R   0.823474 0.119288 0.746733 -0.117454
C36   C     C_R   0.173471 0.616515 0.253099 -0.126902
H1    H     H_    0.869885 0.082689 0.489190 0.145045
H2    H     H_    0.129383 0.575773 0.507808 0.140010
H3    H     H_    0.951494 0.308925 0.705404 0.112058
H4    H     H_    0.042542 0.799666 0.304036 0.127233
H5    H     H_    0.109736 0.261652 0.569387 0.148881
H6    H     H_    0.880658 0.756114 0.429233 0.190735
C37   C     C_R   0.579956 0.366271 0.756330 -0.063908
C38   C     C_R   0.420041 0.865819 0.255344 -0.066246
H7    H     H_    0.669693 0.278247 0.750249 0.122287
H8    H     H_    0.330649 0.777626 0.272856 0.126220
C39   C     C_R   0.464600 0.384767 0.720199 -0.127732
C40   C     C_R   0.535752 0.884522 0.280984 -0.115211
C41   C     C_R   0.475358 0.095018 0.803896 -0.129096
C42   C     C_R   0.524751 0.594947 0.187759 -0.132345
C43   C     C_R   0.422477 0.132512 0.823209 -0.154288
C44   C     C_R   0.577478 0.632539 0.166292 -0.139837
C45   C     C_R   0.429991 0.194004 0.817764 0.185583
C46   C     C_R   0.570003 0.693996 0.176119 0.189660
C47   C     C_R   0.492416 0.219445 0.778187 0.091411
C48   C     C_R   0.507904 0.719234 0.222542 0.088103
C49   C     C_R   0.546903 0.180012 0.771920 0.014126
C50   C     C_R   0.453508 0.679713 0.232880 0.015258
C51   C     C_R   0.503630 0.282207 0.755091 0.088840
C52   C     C_R   0.496765 0.781925 0.248379 0.101607
C53   C     C_R   0.568035 0.304273 0.758607 0.051912
C54   C     C_R   0.432181 0.803860 0.251877 0.048095
C55   C     C_R   0.619842 0.263855 0.757540 -0.181879
C56   C     C_R   0.380484 0.763346 0.258927 -0.179041
C57   C     C_R   0.609526 0.203421 0.759008 -0.163171
C58   C     C_R   0.390993 0.702960 0.254990 -0.168451
C59   C     C_R   0.453721 0.323575 0.720905 -0.201106
C60   C     C_R   0.546935 0.823360 0.278453 -0.212503
C61   C     C_R   0.527768 0.406623 0.743115 -0.042369
C62   C     C_R   0.472256 0.906273 0.263634 -0.034766
C63   C     C_R   0.537843 0.117713 0.783618 -0.076320
C64   C     C_R   0.462428 0.617508 0.215798 -0.073807
H9    H     H_    0.405712 0.309623 0.688784 0.198725
H10   H     H_    0.595405 0.809527 0.306421 0.153553
H11   H     H_    0.467631 0.047772 0.813334 0.126050
H12   H     H_    0.532392 0.547779 0.174233 0.123467
H13   H     H_    0.374909 0.113554 0.850671 0.136415
H14   H     H_    0.624813 0.613730 0.133425 0.144519
H15   H     H_    0.651647 0.174968 0.754473 0.112811
H16   H     H_    0.349051 0.674388 0.265077 0.093970
C65   C     C_2   0.226576 0.307684 0.551708 0.350691
H17   H     H_    0.220125 0.272673 0.447499 0.060256
O21   O     O_2   0.281529 0.322912 0.585454 -0.553467
C66   C     C_2   0.764376 0.808725 0.437567 0.406817
H18   H     H_    0.718750 0.831045 0.417819 0.016923
O22   O     O_2   0.764108 0.764463 0.538181 -0.524667
N1    N     N_3   0.977042 0.147249 0.457857 -0.676761
H19   H     H_    0.994662 0.104020 0.460931 0.224346
H20   H     H_    0.956584 0.153716 0.324215 0.233440
N2    N     N_3   0.018458 0.634507 0.545110 -0.670299
H21   H     H_    0.003485 0.590515 0.538471 0.229875
H22   H     H_    0.038564 0.640966 0.679218 0.233556
C67   C     C_2   0.539681 0.471417 0.759437 0.395181
H23   H     H_    0.578471 0.487524 0.845811 0.077915
O23   O     O_2   0.507421 0.507409 0.674342 -0.532317
C68   C     C_2   0.459956 0.971041 0.247944 0.397301
H24   H     H_    0.420314 0.987028 0.164620 0.074885
O24   O     O_2   0.492854 0.007139 0.330122 -0.530623
C69   C     C_2   0.647282 0.388879 0.768760 0.336561
H25   H     H_    0.679557 0.369821 0.871266 0.063337
O25   O     O_2   0.667612 0.428052 0.661539 -0.513329
C70   C     C_2   0.352439 0.888265 0.249307 0.331080
H26   H     H_    0.319047 0.869006 0.150574 0.066188
O26   O     O_2   0.333157 0.927513 0.357698 -0.517756
N3    N     N_3   0.374807 0.229171 0.873454 -0.677446
H27   H     H_    0.359210 0.217058 0.013271 0.242974
H28   H     H_    0.337664 0.219360 0.780866 0.248757
N4    N     N_3   0.624746 0.729453 0.118386 -0.693421
H29   H     H_    0.639273 0.718088 0.977046 0.257573
H30   H     H_    0.662659 0.719225 0.207819 0.247710
N5    N     N_3   0.774579 0.170237 0.031482 -0.649685
H31   H     H_    0.756761 0.213269 0.021363 0.240151
H32   H     H_    0.792742 0.164572 0.168723 0.255324
N6    N     N_3   0.216570 0.673073 0.966380 -0.676109
H33   H     H_    0.261099 0.676473 0.031286 0.223766
H34   H     H_    0.218085 0.638872 0.865438 0.251793
N7    N     N_3   0.049015 0.196452 0.838767 -0.654341
H35   H     H_    0.036255 0.176984 0.971625 0.229756
H36   H     H_    0.060530 0.162535 0.741394 0.248097
N8    N     N_3   0.942295 0.688373 0.179186 -0.646727
H37   H     H_    0.954040 0.668975 0.045586 0.242796
H38   H     H_    0.931273 0.654422 0.277017 0.252598
C71   C     C_2   0.998957 0.395648 0.976768 0.339964
H39   H     H_    0.989922 0.442505 0.994297 0.059607
O27   O     O_2   0.962427 0.361130 0.060790 -0.536852
C72   C     C_2   0.001403 0.888609 0.039861 0.364215
H40   H     H_    0.010284 0.935189 0.015074 0.045759
O28   O     O_2   0.040518 0.853434 0.970901 -0.513690
N9    N     N_3   0.883642 0.242969 0.046793 -0.656935
H41   H     H_    0.880900 0.284765 0.984593 0.279327
H42   H     H_    0.927424 0.238754 0.115440 0.263374
N10   N     N_3   0.101862 0.738453 0.963416 -0.597040
H43   H     H_    0.139476 0.769117 0.969590 0.278259
H44   H     H_    0.105760 0.717368 0.829471 0.246819
N11   N     N_3   0.116216 0.463847 0.958015 -0.677639
H45   H     H_    0.103205 0.457317 0.103727 0.230845
H46   H     H_    0.083273 0.492737 0.897485 0.208198
N12   N     N_3   0.886351 0.960448 0.049917 -0.669881
H47   H     H_    0.900352 0.954100 0.904853 0.226489
H48   H     H_    0.919726 0.988012 0.114249 0.206733

loop_
_geom_bond_atom_site_label_1
_geom_bond_atom_site_label_2
_ccdc_geom_bond_type
C47   C51   A    
C24   N6    S    
C70   H26   S    
C12   C66   S    
C38   C54   A    
C1    C36   S    
C71   H39   S    
O4    C2    A    
V1    O19   S    
N2    H21   S    
C60   H10   S    
C69   H25   S    
C15   C17   A    
C7    C9    S    
C65   O21   D    
O9    V1    S    
C18   C20   A    
O16   C6    A    
N10   H43   S    
C11   C13   A    
C44   C46   A    
O5    V1    S    
N3    H27   S    
O3    C1    A    
C19   N11   S    
N7    H36   S    
C2    C35   S    
V2    O20   S    
C49   C63   A    
C46   C48   A    
C69   O25   D    
O12   V4    S    
O13   V3    S    
C66   H18   S    
N5    H32   S    
C21   C23   A    
O7    C3    A    
C46   N4    S    
C9    C11   A    
O5    C7    A    
C62   C68   S    
N10   H44   S    
O7    V1    S    
O6    C8    A    
N1    H19   S    
O8    V2    S    
N4    H29   S    
C16   C32   S    
C13   H5    S    
C26   C28   A    
C32   H4    S    
O3    V1    S    
O14   V4    S    
C27   N1    S    
C32   C34   D    
N9    H42   S    
C10   C12   A    
H7    C55   S    
C48   C52   A    
C25   C35   A    
C24   C36   A    
C49   C57   A    
C45   C47   A    
C8    C10   S    
C2    O12   A    
C57   H15   S    
C44   H14   S    
C17   C19   A    
O10   V2    S    
C61   C67   S    
C18   C72   S    
C6    C40   S    
C28   C30   A    
O11   V3    S    
N12   H48   S    
C53   C55   A    
O15   C5    A    
O17   V3    S    
C22   C24   A    
C37   C53   A    
C23   C35   A    
C50   C64   A    
C54   C56   A    
C9    C19   A    
C5    C39   S    
N5    H31   S    
C10   C20   A    
N8    H38   S    
O8    C4    A    
C47   C49   A    
C29   C33   S    
N8    H37   S    
C42   H12   S    
C1    O11   A    
C3    C64   S    
C25   C27   A    
O15   V3    S    
C38   C62   A    
C31   H3    S    
C27   C29   A    
C11   C65   S    
V4    O20   S    
C42   C64   A    
N11   H45   S    
C17   C71   S    
C22   C30   A    
O1    V3    S    
C39   C59   A    
N1    H20   S    
C45   N3    S    
C59   H9    S    
C43   C45   A    
C58   H16   S    
C42   C44   A    
N4    H30   S    
C39   C61   A    
C48   C50   A    
C51   C53   A    
C56   C58   A    
O18   V4    S    
C31   C33   D    
O17   C7    A    
C26   H2    S    
C72   O28   D    
O1    C3    A    
C41   C43   A    
C12   C14   A    
C38   C70   S    
C4    C63   S    
C51   C59   A    
C68   H24   S    
C68   O24   D    
C43   H13   S    
N12   H47   S    
C30   C34   S    
C41   H11   S    
C14   H6    S    
C70   O26   D    
O16   V4    S    
C23   N5    S    
H8    C56   S    
C52   C54   A    
C16   C18   A    
C37   C69   S    
N2    H22   S    
N6    H34   S    
C28   N2    S    
C15   C31   S    
C22   N10   S    
C65   H17   S    
O10   C6    A    
O18   C8    A    
C50   C58   A    
C33   N7    S    
O2    V4    S    
C26   C36   A    
C67   O23   D    
N11   H46   S    
C40   C62   A    
C13   C15   A    
C67   H23   S    
C14   C16   A    
C25   H1    S    
O6    V2    S    
C40   C60   A    
O9    C5    A    
O13   V1    S    
C66   O22   D    
O14   V2    S    
C71   O27   D    
O2    C4    A    
N6    H33   S    
C21   C29   A    
O4    V2    S    
C20   N12   S    
C34   N8    S    
C21   N9    S    
V3    O19   S    
C37   C61   A    
C55   C57   A    
C41   C63   A    
C72   H40   S    
C52   C60   A    
N9    H41   S    
N7    H35   S    
N3    H28   S    
