data_mof_unit_60112.cif
_audit_creation_date              2012-12-10T21:15:20-0500
_audit_creation_method            fapswitch 2.2
_symmetry_space_group_name_H-M    P1
_symmetry_Int_Tables_number       1
_space_group_crystal_system       triclinic
_cell_length_a                    17.644306
_cell_length_b                    16.732892
_cell_length_c                    14.174378
_cell_angle_alpha                 90.000736
_cell_angle_beta                  90.121044
_cell_angle_gamma                 89.995957
_cell_volume                      4184.83779166

loop_
_atom_site_label
_atom_site_type_symbol
_atom_type_description
_atom_site_fract_x
_atom_site_fract_y
_atom_site_fract_z
_atom_type_partial_charge
C1    C     C_R   0.353303 0.500004 0.499639 0.890290
C2    C     C_R   0.551979 0.251908 0.552731 0.029570
C3    C     C_R   0.552110 0.748082 0.552536 0.032824
C4    C     C_R   0.448018 0.251923 0.447265 0.029706
C5    C     C_R   0.499996 0.875576 0.499989 0.144329
C6    C     C_R   0.499994 0.124421 0.499992 0.145582
C7    C     C_1   0.499993 0.963418 0.499987 -0.021062
C8    C     C_1   0.499993 0.036578 0.499988 -0.021375
C9    C     C_R   0.499966 0.500000 0.328721 0.903996
C10   C     C_R   0.500034 0.500000 0.671279 0.904418
C11   C     C_1   0.499962 0.499999 0.227400 -0.197306
C12   C     C_R   0.646696 0.499999 0.499855 0.889904
C13   C     C_1   0.500038 0.500001 0.772600 -0.197782
C14   C     C_1   0.499969 0.499999 0.142284 0.003998
C15   C     C_1   0.500030 0.500001 0.857718 0.003850
C16   C     C_1   0.499990 0.499999 0.042558 0.022058
C17   C     C_1   0.500010 0.500000 0.957444 0.022017
C18   C     C_R   0.847348 0.571537 0.516112 -0.017152
C19   C     C_R   0.152637 0.428589 0.515185 -0.018623
C20   C     C_R   0.153414 0.570952 0.470163 -0.015709
C21   C     C_R   0.846563 0.429261 0.470669 -0.017445
C22   C     C_R   0.768462 0.570456 0.517218 -0.228134
C23   C     C_1   0.966336 0.500344 0.490409 0.172192
C24   C     C_R   0.231522 0.429560 0.516270 -0.231401
C25   C     C_R   0.232221 0.570256 0.475076 -0.229079
C26   C     C_R   0.767779 0.429840 0.475615 -0.231632
C27   C     C_R   0.728913 0.500026 0.497918 -0.081782
C28   C     C_R   0.271083 0.500006 0.497332 -0.081644
C29   C     C_R   0.886185 0.500504 0.491929 -0.038753
C30   C     C_R   0.113789 0.499739 0.491343 -0.038810
C31   C     C_2   0.886855 0.647418 0.541382 0.929485
C32   C     C_2   0.113140 0.352705 0.540210 0.931881
C33   C     C_2   0.114784 0.646643 0.442117 0.930942
C34   C     C_1   0.033630 0.500036 0.490220 0.172208
C35   C     C_2   0.885165 0.353666 0.442411 0.933454
C36   C     C_R   0.446923 0.832329 0.446511 -0.245023
C37   C     C_R   0.552937 0.167661 0.553672 -0.245667
C38   C     C_R   0.553071 0.832329 0.553472 -0.245086
C39   C     C_R   0.447054 0.167676 0.446316 -0.245500
C40   C     C_R   0.447889 0.748082 0.447456 0.032918
H1    H     H_    0.737709 0.624327 0.535615 0.184013
H2    H     H_    0.592964 0.284668 0.594378 0.135337
H3    H     H_    0.593201 0.715316 0.594029 0.130255
H4    H     H_    0.407033 0.284694 0.405623 0.135629
H5    H     H_    0.978517 0.701483 0.598144 0.361139
H6    H     H_    0.021839 0.298634 0.597377 0.360782
H7    H     H_    0.025261 0.700217 0.379668 0.360546
H8    H     H_    0.974336 0.300312 0.379375 0.360230
H9    H     H_    0.262262 0.375597 0.534463 0.189752
H10   H     H_    0.263564 0.624256 0.458908 0.184141
H11   H     H_    0.736449 0.375821 0.459333 0.190388
H12   H     H_    0.405021 0.863389 0.404283 0.154639
H13   H     H_    0.594733 0.136594 0.596053 0.153939
H14   H     H_    0.594972 0.863389 0.595696 0.154297
H15   H     H_    0.405256 0.136621 0.403932 0.154311
H16   H     H_    0.406801 0.715316 0.405965 0.130294
N1    N     N_R   0.500000 0.707230 0.500000 -0.089711
N2    N     N_R   0.500000 0.292770 0.500000 -0.090754
O1    O     O_R   0.389110 0.566570 0.500000 -0.619666
O2    O     O_R   0.958116 0.645989 0.584698 -0.800774
O3    O     O_2   0.143734 0.288486 0.524344 -0.616846
O4    O     O_R   0.042284 0.354134 0.584171 -0.800989
O5    O     O_2   0.144901 0.710996 0.458747 -0.617980
O6    O     O_R   0.045283 0.644836 0.394571 -0.799293
O7    O     O_2   0.855331 0.289242 0.459271 -0.617415
O8    O     O_R   0.954292 0.355644 0.394396 -0.799540
O9    O     O_R   0.610890 0.433430 0.500000 -0.621226
O10   O     O_R   0.610890 0.566570 0.500000 -0.619486
O11   O     O_R   0.389110 0.433430 0.500000 -0.621073
O12   O     O_R   0.500000 0.566560 0.373710 -0.598210
O13   O     O_R   0.500000 0.433440 0.626290 -0.598427
O14   O     O_R   0.500000 0.566560 0.626290 -0.598102
O15   O     O_R   0.500000 0.433440 0.373710 -0.598607
O16   O     O_2   0.855936 0.711627 0.526283 -0.616684
Zn1   Zn    Zn3+2 0.500000 0.588860 0.500000 0.955339
Zn2   Zn    Zn3+2 0.500000 0.411140 0.500000 0.953096

loop_
_geom_bond_atom_site_label_1
_geom_bond_atom_site_label_2
_ccdc_geom_bond_type
C31   O2    S    
C1    C28   S    
C21   C26   A    
C2    N2    A    
H5    O2    S    
C21   C29   A    
C21   C35   S    
O1    Zn1   S    
C18   C22   A    
C9    C11   S    
C24   H9    S    
C38   H14   S    
C4    C39   A    
C33   O5    D    
C23   C34   T    
C37   H13   S    
C10   O13   A    
N1    Zn1   S    
C40   H16   S    
C13   C15   T    
C19   C24   A    
C6    C37   A    
C32   O4    S    
C7    C8    T    
C18   C29   A    
C20   C30   A    
C26   H11   S    
C1    O11   A    
O10   Zn1   S    
C12   O10   A    
C2    C37   A    
C3    H3    S    
C26   C27   A    
C9    O15   A    
H6    O4    S    
O14   Zn1   S    
C20   C33   S    
C3    N1    A    
C11   C14   T    
C2    H2    S    
C32   O3    D    
C22   C27   A    
C1    O1    A    
C10   O14   A    
O13   Zn2   S    
C23   C29   S    
C12   O9    A    
C14   C16   S    
C22   H1    S    
C20   C25   A    
C35   O7    D    
C12   C27   S    
N2    Zn2   S    
C5    C36   A    
C33   O6    S    
C19   C32   S    
C36   C40   A    
C9    O12   A    
O12   Zn1   S    
O11   Zn2   S    
C5    C7    S    
C4    N2    A    
H7    O6    S    
C15   C17   S    
O15   Zn2   S    
C30   C34   S    
C6    C39   A    
C31   O16   D    
C6    C8    S    
O9    Zn2   S    
C4    H4    S    
C35   O8    S    
H8    O8    S    
C5    C38   A    
C19   C30   A    
C40   N1    A    
C25   H10   S    
C39   H15   S    
C24   C28   A    
C18   C31   S    
C3    C38   A    
C16   C17   T    
C25   C28   A    
C10   C13   S    
C36   H12   S    
