data_mof_unit_67388.cif
_audit_creation_date              2013-03-05T16:11:01-0500
_audit_creation_method            fapswitch 2.2
_symmetry_space_group_name_H-M    P1
_symmetry_Int_Tables_number       1
_space_group_crystal_system       triclinic
_cell_length_a                    17.009667
_cell_length_b                    28.082387
_cell_length_c                    8.761498
_cell_angle_alpha                 90.195243
_cell_angle_beta                  105.149401
_cell_angle_gamma                 89.862157
_cell_volume                      4039.65149367

loop_
_atom_site_label
_atom_site_type_symbol
_atom_site_description
_atom_site_fract_x
_atom_site_fract_y
_atom_site_fract_z
_atom_type_partial_charge
P1    P     P_3+3 0.171820 0.553000 0.158080 0.570847
P2    P     P_3+3 0.171820 0.447000 0.658080 0.570884
P3    P     P_3+3 0.671820 0.053000 0.158080 0.570868
P4    P     P_3+3 0.671820 0.947000 0.658080 0.569130
O1    O     O_2   0.163830 0.569270 0.980510 -0.328636
O2    O     O_2   0.163830 0.430730 0.480510 -0.325604
O3    O     O_2   0.663830 0.069270 0.980510 -0.333293
O4    O     O_2   0.663830 0.930730 0.480510 -0.323128
O5    O     O_3   0.095420 0.524330 0.188510 -0.317164
O6    O     O_3   0.095420 0.475670 0.688510 -0.318922
O7    O     O_3   0.595420 0.024330 0.188510 -0.324699
O8    O     O_3   0.595420 0.975670 0.688510 -0.323258
O9    O     O_3   0.028940 0.612400 0.656050 -0.274687
O10   O     O_3   0.028940 0.387600 0.156050 -0.293685
O11   O     O_3   0.528940 0.112400 0.656050 -0.267800
O12   O     O_3   0.528940 0.887600 0.156050 -0.274191
O13   O     O_2   0.162622 0.649411 0.836116 -0.265714
O14   O     O_2   0.169020 0.356915 0.324291 -0.256737
O15   O     O_2   0.656432 0.150893 0.852883 -0.284662
O16   O     O_2   0.662839 0.850376 0.334279 -0.266323
O17   O     O_3   0.262435 0.520038 0.222367 -0.589979
O18   O     O_3   0.263417 0.478572 0.723523 -0.596735
O19   O     O_3   0.763924 0.021606 0.224092 -0.588603
O20   O     O_3   0.763324 0.978287 0.728622 -0.595610
O21   O     O_3   0.061553 0.712569 0.678479 -0.582347
O22   O     O_3   0.062532 0.292368 0.220292 -0.532007
O23   O     O_3   0.562883 0.210515 0.662108 -0.575764
O24   O     O_3   0.561630 0.787345 0.176446 -0.582766
C1    C     C_3   0.939206 0.755582 0.672430 0.632522
C2    C     C_3   0.980926 0.224756 0.133456 0.707742
C3    C     C_3   0.438302 0.254255 0.598970 0.670910
C4    C     C_3   0.439788 0.744406 0.171611 0.634869
P5    P     P_3+3 0.829210 0.554130 0.532500 0.625401
P6    P     P_3+3 0.829210 0.445870 0.032500 0.620743
P7    P     P_3+3 0.329210 0.054130 0.532500 0.627475
P8    P     P_3+3 0.329210 0.945870 0.032500 0.623071
P9    P     P_3+3 0.896476 0.655621 0.031881 0.585042
P10   P     P_3+3 0.897349 0.343810 0.525303 0.551851
P11   P     P_3+3 0.394166 0.155331 0.026288 0.623114
P12   P     P_3+3 0.396505 0.844456 0.530888 0.583381
O25   O     O_2   0.837400 0.570350 0.710350 -0.350500
O26   O     O_2   0.837400 0.429650 0.210350 -0.360669
O27   O     O_2   0.337400 0.070350 0.710350 -0.348084
O28   O     O_2   0.337400 0.929650 0.210350 -0.352958
O29   O     O_3   0.972820 0.612580 0.035550 -0.315663
O30   O     O_3   0.972820 0.387420 0.535550 -0.337004
O31   O     O_3   0.472820 0.112580 0.035550 -0.286188
O32   O     O_3   0.472820 0.887420 0.535550 -0.316690
O33   O     O_2   0.834726 0.651367 0.867841 -0.290306
O34   O     O_2   0.834312 0.351435 0.364523 -0.318332
O35   O     O_2   0.329357 0.144034 0.870986 -0.306498
O36   O     O_2   0.334636 0.848906 0.367126 -0.290656
O37   O     O_3   0.737376 0.522467 0.483304 -0.523140
O38   O     O_3   0.737081 0.477400 0.981777 -0.513281
O39   O     O_3   0.237309 0.022540 0.483019 -0.520948
O40   O     O_3   0.237101 0.977348 0.983200 -0.518286
O41   O     O_3   0.941509 0.711875 0.028591 -0.485955
O42   O     O_3   0.938902 0.287683 0.502251 -0.518289
O43   O     O_3   0.430140 0.211229 0.983820 -0.461967
O44   O     O_3   0.441387 0.788095 0.526201 -0.487556
C5    C     C_3   0.015482 0.715137 0.148855 0.479336
C6    C     C_3   0.007560 0.277024 0.627694 0.372147
C7    C     C_3   0.462908 0.239269 0.118910 0.265618
C8    C     C_3   0.515066 0.784528 0.647002 0.479608
H1    H     H_    0.027377 0.684029 0.229348 -0.008501
H2    H     H_    0.013579 0.300739 0.731792 0.064728
H3    H     H_    0.414939 0.251176 0.172492 0.067723
H4    H     H_    0.526792 0.815514 0.728619 -0.010247
C9    C     C_3   0.014533 0.758906 0.251674 1.304718
C10   C     C_3   0.003728 0.225140 0.681396 1.406736
C11   C     C_3   0.504078 0.282882 0.071199 1.457339
C12   C     C_3   0.513709 0.740621 0.748186 1.306078
C13   C     C_3   0.745092 0.525964 0.016704 0.916304
C14   C     C_3   0.746066 0.473896 0.516889 0.894094
C15   C     C_3   0.245007 0.025917 0.017808 0.905849
C16   C     C_3   0.245650 0.974004 0.517338 0.914536
H5    H     H_    0.801427 0.541477 0.995915 -0.122140
H6    H     H_    0.801799 0.458429 0.492687 -0.105325
H7    H     H_    0.301123 0.041512 0.996280 -0.122952
H8    H     H_    0.302092 0.958471 0.496430 -0.122020
C17   C     C_3   0.670758 0.550443 0.908074 0.770719
C18   C     C_3   0.670899 0.449490 0.410813 0.785514
C19   C     C_3   0.170230 0.050197 0.909678 0.780277
C20   C     C_3   0.171437 0.949463 0.408425 0.772942
H9    H     H_    0.676812 0.550075 0.784915 0.057736
H10   H     H_    0.674421 0.450803 0.286129 0.058470
H11   H     H_    0.177320 0.051409 0.787311 0.052395
H12   H     H_    0.177672 0.949546 0.285401 0.056252
Ba1   Ba    Ba6+2 0.000400 0.534870 0.845190 1.797189
Ba2   Ba    Ba6+2 0.000400 0.465130 0.345190 1.801994
Ba3   Ba    Ba6+2 0.500400 0.034870 0.845190 1.807471
Ba4   Ba    Ba6+2 0.500400 0.965130 0.345190 1.801103
C21   C     C_3   0.280781 0.489697 0.109449 0.317702
C22   C     C_3   0.277781 0.512688 0.618347 0.306634
C23   C     C_3   0.779436 0.987578 0.119094 0.313557
C24   C     C_3   0.781072 0.012406 0.627392 0.305363
H13   H     H_    0.243933 0.496419 0.987411 0.082624
H14   H     H_    0.238190 0.508919 0.496429 0.071203
H15   H     H_    0.742471 0.992532 0.995912 0.078830
H16   H     H_    0.740717 0.010797 0.505396 0.061616
C25   C     C_3   0.372843 0.492834 0.120411 1.034631
C26   C     C_3   0.368519 0.510375 0.619577 1.039175
C27   C     C_3   0.871523 0.987789 0.128470 1.043956
C28   C     C_3   0.871501 0.007087 0.628407 1.050285
O45   O     O_3   0.904940 0.476110 0.001150 -0.370315
O46   O     O_3   0.904940 0.523890 0.501150 -0.371393
O47   O     O_3   0.404940 0.976110 0.001150 -0.373376
O48   O     O_3   0.404940 0.023890 0.501150 -0.373950
P13   P     P_3+3 0.104586 0.344487 0.169852 0.669126
P14   P     P_3+3 0.104359 0.656155 0.670003 0.659582
P15   P     P_3+3 0.604192 0.843691 0.168400 0.659236
P16   P     P_3+3 0.607282 0.153998 0.677975 0.667802
C29   C     C_3   0.977424 0.707402 0.657326 1.518851
C30   C     C_3   0.025202 0.266527 0.084646 1.414878
C31   C     C_3   0.477921 0.205573 0.624875 1.450689
C32   C     C_3   0.477569 0.792563 0.156280 1.517011
H17   H     H_    0.945415 0.779672 0.577158 0.134973
H18   H     H_    0.963215 0.198401 0.036873 0.152160
H19   H     H_    0.437243 0.264468 0.477420 0.060571
H20   H     H_    0.445216 0.720429 0.074983 0.134795
C33   C     C_2   0.851537 0.385776 0.774594 -0.360745
C34   C     C_2   0.848932 0.613658 0.275854 -0.347837
C35   C     C_2   0.349113 0.886345 0.775704 -0.348476
C36   C     C_2   0.349232 0.114220 0.275428 -0.288827
C37   C     C_R   0.134186 0.619066 0.388505 -0.043185
C38   C     C_R   0.128804 0.378879 0.878575 -0.014245
C39   C     C_R   0.641300 0.114344 0.404056 0.019621
C40   C     C_R   0.633254 0.880600 0.886434 -0.041613
C41   C     C_2   0.758122 0.355491 0.921917 0.203647
C42   C     C_2   0.756321 0.645229 0.423970 0.213084
C43   C     C_2   0.256766 0.854858 0.923710 0.213916
C44   C     C_2   0.256048 0.145119 0.423795 0.182417
C45   C     C_2   0.816523 0.389721 0.912210 0.250421
C46   C     C_2   0.814109 0.610180 0.413100 0.284418
C47   C     C_2   0.314403 0.889822 0.913027 0.286232
C48   C     C_2   0.314094 0.110284 0.412670 0.270455
C49   C     C_2   0.844082 0.345571 0.687010 0.149335
C50   C     C_2   0.841245 0.653662 0.188738 0.141648
C51   C     C_2   0.341440 0.846379 0.687921 0.140362
C52   C     C_2   0.340794 0.154293 0.187576 0.193801
C53   C     C_3   0.803414 0.304407 0.732674 0.041394
C54   C     C_3   0.800673 0.695315 0.233690 0.066105
C55   C     C_3   0.301322 0.804763 0.732865 0.068072
C56   C     C_3   0.297970 0.195436 0.230503 -0.164425
C57   C     C_3   0.738800 0.317218 0.808863 0.226720
C58   C     C_3   0.736326 0.682868 0.309711 0.211891
C59   C     C_3   0.236931 0.817185 0.809107 0.208874
C60   C     C_3   0.234786 0.182328 0.308561 0.333802
C61   C     C_2   0.770521 0.267841 0.602156 -0.195844
C62   C     C_2   0.766332 0.730850 0.101356 -0.166529
C63   C     C_2   0.267361 0.768929 0.601060 -0.165061
C64   C     C_2   0.259600 0.229124 0.095358 -0.142048
C65   C     C_2   0.261152 0.721690 0.628574 0.446835
C66   C     C_2   0.256138 0.277114 0.113734 0.360823
C67   C     C_2   0.761927 0.221150 0.634072 0.455391
C68   C     C_2   0.761149 0.778357 0.127273 0.446754
C69   C     C_R   0.267981 0.678326 0.380400 0.310302
C70   C     C_R   0.261885 0.319090 0.867373 0.349954
C71   C     C_R   0.758917 0.182322 0.368896 0.263049
C72   C     C_R   0.767631 0.821381 0.878739 0.313577
C73   C     C_R   0.224241 0.687502 0.501023 -0.196965
C74   C     C_R   0.216024 0.308918 0.983585 -0.160134
C75   C     C_R   0.727251 0.185216 0.509746 -0.204170
C76   C     C_R   0.723767 0.812151 0.998876 -0.199854
C77   C     C_R   0.245688 0.638034 0.270306 -0.224395
C78   C     C_R   0.243018 0.361088 0.765185 -0.202092
C79   C     C_R   0.737638 0.141682 0.259078 -0.199082
C80   C     C_R   0.744990 0.861541 0.768616 -0.226923
C81   C     C_R   0.183405 0.609422 0.273886 0.193712
C82   C     C_R   0.180768 0.389822 0.769157 0.184603
C83   C     C_R   0.682985 0.109115 0.275590 0.195608
C84   C     C_R   0.682424 0.890205 0.771827 0.203751
C85   C     C_R   0.157342 0.653898 0.508153 0.189819
C86   C     C_R   0.150199 0.343035 0.994978 0.175120
C87   C     C_R   0.666277 0.148480 0.526246 0.230200
C88   C     C_R   0.656550 0.845731 0.005701 0.186784
H21   H     H_    0.283216 0.630632 0.190501 0.219781
H22   H     H_    0.282285 0.369178 0.689443 0.228097
H23   H     H_    0.769603 0.137537 0.168031 0.217151
H24   H     H_    0.782723 0.868886 0.689403 0.221412
H25   H     H_    0.878120 0.417112 0.737326 0.190925
H26   H     H_    0.876938 0.582421 0.240222 0.181369
H27   H     H_    0.376950 0.917554 0.740502 0.181564
H28   H     H_    0.378734 0.083348 0.241164 0.168599
H29   H     H_    0.746675 0.280340 0.481632 0.188817
H30   H     H_    0.738271 0.716883 0.984119 0.218325
H31   H     H_    0.240084 0.782495 0.483141 0.217311
H32   H     H_    0.227139 0.213562 0.982987 0.243819
F1    F     F_    0.962810 0.677759 0.770836 -0.625231
F2    F     F_    0.970258 0.294580 0.976982 -0.770657
F3    F     F_    0.455918 0.181860 0.743745 -0.627287
F4    F     F_    0.463202 0.822398 0.270222 -0.625351
F5    F     F_    0.600506 0.526104 0.911220 -0.509508
F6    F     F_    0.601004 0.473158 0.421369 -0.510597
F7    F     F_    0.100660 0.024458 0.907914 -0.509968
F8    F     F_    0.101092 0.973993 0.411088 -0.510351
Br1   Br    Br    0.658076 0.615657 0.968379 -0.366343
Br2   Br    Br    0.660977 0.383732 0.466892 -0.325665
Br3   Br    Br    0.153956 0.114288 0.975891 -0.330977
Br4   Br    Br    0.158651 0.884420 0.468705 -0.363663
Br5   Br    Br    0.259732 0.427496 0.174306 -0.408947
Br6   Br    Br    0.259128 0.572435 0.707069 -0.422924
Br7   Br    Br    0.755270 0.928230 0.200928 -0.417355
Br8   Br    Br    0.770121 0.072026 0.726567 -0.430952
Br9   Br    Br    0.402554 0.556558 0.071864 -0.172255
Br10  Br    Br    0.396585 0.446889 0.562821 -0.122726
Br11  Br    Br    0.907997 0.050453 0.084608 -0.149428
Br12  Br    Br    0.895404 0.942656 0.573213 -0.169997
Br13  Br    Br    0.408321 0.445144 0.991307 -0.182505
Br14  Br    Br    0.398196 0.559041 0.488491 -0.256902
Br15  Br    Br    0.900837 0.939581 0.994299 -0.251530
Br16  Br    Br    0.904030 0.054015 0.495707 -0.237360
F9    F     F_    0.417929 0.483425 0.271621 -0.563365
F10   F     F_    0.417051 0.519410 0.768710 -0.566525
F11   F     F_    0.916452 0.976471 0.278280 -0.564951
F12   F     F_    0.920981 0.015376 0.777459 -0.561022
F13   F     F_    0.941606 0.688135 0.510553 -0.769199
F14   F     F_    0.083864 0.248638 0.018318 -0.732506
F15   F     F_    0.449338 0.179949 0.487383 -0.788459
F16   F     F_    0.441280 0.811629 0.009788 -0.770287
Br17  Br    Br    0.825588 0.746465 0.664616 -0.385771
Br18  Br    Br    0.883552 0.247335 0.187530 -0.373372
Br19  Br    Br    0.329805 0.251689 0.631625 -0.371281
Br20  Br    Br    0.326594 0.753478 0.168430 -0.383488
F17   F     F_    0.088035 0.763279 0.364339 -0.721707
F18   F     F_    0.079804 0.209445 0.765060 -0.625802
F19   F     F_    0.532567 0.312294 0.200851 -0.623977
F20   F     F_    0.587218 0.735776 0.860512 -0.719560
Br21  Br    Br    0.683734 0.368163 0.048029 -0.236897
Br22  Br    Br    0.684850 0.637657 0.558276 -0.246459
Br23  Br    Br    0.185123 0.862597 0.057837 -0.245948
Br24  Br    Br    0.184998 0.137653 0.559150 -0.211098
Br25  Br    Br    0.036754 0.584141 0.369027 -0.418713
Br26  Br    Br    0.036276 0.417225 0.870362 -0.412366
Br27  Br    Br    0.539929 0.082321 0.375889 -0.379813
Br28  Br    Br    0.536745 0.916388 0.869726 -0.416630
Br29  Br    Br    0.313481 0.693774 0.827089 -0.341797
Br30  Br    Br    0.318118 0.310534 0.293783 -0.378128
Br31  Br    Br    0.802799 0.197372 0.842803 -0.367439
Br32  Br    Br    0.814632 0.806993 0.324589 -0.338489
F21   F     F_    0.977881 0.777095 0.813201 -0.615789
F22   F     F_    0.032811 0.201726 0.259189 -0.617377
F23   F     F_    0.483444 0.288583 0.695539 -0.575009
F24   F     F_    0.479810 0.722719 0.310844 -0.615941
Br33  Br    Br    0.106810 0.719943 0.056914 -0.328006
Br34  Br    Br    0.105596 0.285117 0.559777 -0.345484
Br35  Br    Br    0.544435 0.207716 0.277384 -0.529699
Br36  Br    Br    0.606717 0.779778 0.555750 -0.329365
Br37  Br    Br    0.991543 0.817855 0.133792 -0.171492
Br38  Br    Br    0.963310 0.179138 0.516279 -0.232927
Br39  Br    Br    0.595874 0.262443 0.991718 -0.289376
Br40  Br    Br    0.489942 0.681888 0.628252 -0.174514
F25   F     F_    0.954951 0.752468 0.327371 -0.730959
F26   F     F_    0.952000 0.223337 0.776670 -0.727414
F27   F     F_    0.448758 0.308350 0.957077 -0.619560
F28   F     F_    0.454277 0.747220 0.824404 -0.731274
F29   F     F_    0.743522 0.532357 0.171863 -0.733991
F30   F     F_    0.746606 0.467412 0.672907 -0.730623
F31   F     F_    0.244046 0.032324 0.173255 -0.737132
F32   F     F_    0.244096 0.967742 0.672404 -0.732231

loop_
_geom_bond_atom_site_label_1
_geom_bond_atom_site_label_2
_geom_bond_distance
_ccdc_geom_bond_type
O42   C6    1.411056 S    
O10   P13   1.745932 S    
C79   H23   1.082247 S    
P8    C47   1.867978 S    
P1    O17   1.758615 S    
C30   F2    1.387315 S    
P9    O29   1.766112 S    
C69   C73   1.464600 S    
C42   C58   1.436177 A    
O11   Ba3   2.858721 S    
C77   H21   1.082233 S    
C54   C58   1.465694 A    
O8    Ba3   2.896853 S    
C19   H11   1.110401 S    
O37   C14   1.395663 S    
P6    O26   1.595632 D    
O14   P13   1.541896 D    
C56   C60   1.464963 A    
C37   C85   1.410655 A    
O13   P14   1.543787 D    
C10   F26   1.363053 S    
P6    Ba2   3.479230 S    
C69   C77   1.469009 S    
C9    F25   1.361137 S    
C2    Br18  1.942377 S    
P2    O2    1.591421 D    
O15   P16   1.544633 D    
C20   Br4   1.931606 S    
C72   C80   1.470457 S    
C61   H29   1.086631 S    
C16   F32   1.377632 S    
O31   Ba3   2.853653 S    
O17   C21   1.398739 S    
C11   Br39  1.952863 S    
P1    O1    1.594274 D    
C72   C76   1.464596 S    
C3    F23   1.375958 S    
C12   F28   1.361384 S    
C18   Br2   1.931594 S    
P3    O3    1.594274 D    
O20   C24   1.393901 S    
C17   Br1   1.931478 S    
P4    O20   1.754019 S    
C13   F29   1.377773 S    
C6    Br34  1.925591 S    
C22   H14   1.108746 S    
C23   H15   1.106980 S    
C5    Br33  1.932914 S    
P7    Ba3   3.479954 S    
O16   P15   1.543974 D    
P12   C51   1.856336 S    
C35   C51   1.345578 D    
C68   Br32  1.906574 S    
P9    O33   1.547113 D    
C6    C10   1.539378 S    
C28   Br16  1.935154 S    
P3    Ba3   3.477934 S    
C29   F1    1.371021 S    
C21   H13   1.105557 S    
C3    C31   1.514048 S    
C40   Br28  1.895715 S    
P2    Ba2   3.478614 S    
C36   C52   1.351608 D    
O10   Ba2   2.848318 S    
C35   H27   1.080563 S    
P7    O48   1.622957 S    
O24   C32   1.401524 S    
P3    C83   1.862145 S    
P11   O35   1.543400 D    
P10   O42   1.758362 S    
P3    O19   1.757669 S    
P5    C46   1.872635 S    
C26   F10   1.374086 S    
C34   C46   1.476379 S    
O6    Ba1   2.896853 S    
C25   F9    1.372408 S    
Ba1   O46   3.042290 S    
P2    O18   1.754595 S    
O32   Ba4   2.864053 S    
C64   C66   1.359678 D    
C43   C59   1.434833 A    
C78   H22   1.082368 S    
P12   O36   1.546977 D    
C32   F16   1.379869 S    
O29   Ba1   2.853653 S    
C10   Br38  1.925126 S    
C23   Br7   1.904245 S    
C41   C57   1.438276 A    
O28   Ba4   2.892899 S    
P4    O4    1.591421 D    
C31   F3    1.370362 S    
C17   H9    1.110434 S    
P8    Ba4   3.479230 S    
C8    C12   1.524806 S    
C32   F4    1.370804 S    
C67   Br31  1.901390 S    
O40   C15   1.395386 S    
P4    C84   1.866832 S    
C4    F24   1.375318 S    
P8    O47   1.627174 S    
P5    O37   1.751755 S    
O18   C22   1.396966 S    
C31   F15   1.376585 S    
C42   C46   1.409836 A    
C51   C55   1.460784 A    
C14   C18   1.532000 S    
C63   C65   1.358412 D    
C44   Br24  1.913882 S    
C29   F13   1.380198 S    
C4    Br20  1.934547 S    
C23   C27   1.546967 S    
C75   C87   1.498466 S    
C24   Br8   1.914716 S    
O30   Ba2   2.864053 S    
C14   F30   1.377285 S    
O24   P15   1.750958 S    
C77   C81   1.338119 D    
C7    H3    1.093511 S    
C16   C20   1.532691 S    
C40   C88   1.412964 A    
P10   O30   1.761366 S    
P10   O34   1.546411 D    
C36   C48   1.480600 S    
C33   H25   1.080045 S    
P7    O39   1.751680 S    
P15   C88   1.868899 S    
C44   C60   1.434046 A    
C20   H12   1.110329 S    
O12   P15   1.758270 S    
P1    O5    1.611118 S    
C28   F12   1.375629 S    
C50   C54   1.461040 A    
C27   Br15  1.937916 S    
Ba3   Ba4   4.792504 S    
C6    H2    1.110500 S    
P13   C86   1.889928 S    
C26   Br14  1.938725 S    
C79   C83   1.340442 D    
C2    H18   1.103700 S    
P6    C45   1.874856 S    
C67   C75   1.487381 S    
C63   H31   1.085854 S    
C33   C49   1.350418 D    
C36   H28   1.080938 S    
O27   Ba3   2.891075 S    
C65   C73   1.481111 S    
O26   Ba2   2.892899 S    
O5    Ba2   2.906667 S    
C1    Br17  1.933476 S    
O22   C30   1.394332 S    
C21   C25   1.546348 S    
C62   H30   1.085652 S    
O9    P14   1.759289 S    
C38   C82   1.496983 S    
P5    Ba1   3.479954 S    
O38   C13   1.395838 S    
C73   C85   1.493986 S    
Ba4   O47   3.043580 S    
C37   Br25  1.896438 S    
C8    Br36  1.933153 S    
C34   H26   1.080613 S    
C44   C48   1.409376 A    
P11   O43   1.761967 S    
C49   C53   1.458270 A    
C42   Br22  1.912708 S    
C12   Br40  1.938415 S    
C41   Br21  1.916867 S    
O41   C5    1.417316 S    
C26   Br10  1.941044 S    
O22   P13   1.738943 S    
C11   F27   1.380807 S    
C25   Br9   1.939228 S    
O21   P14   1.751385 S    
C13   C17   1.532457 S    
O4    Ba4   2.887715 S    
O21   C29   1.401908 S    
C4    C32   1.520016 S    
C7    C11   1.525038 S    
O23   P16   1.746278 S    
C78   C82   1.337313 D    
P9    C50   1.857401 S    
C24   C28   1.542759 S    
C12   F20   1.381081 S    
C3    Br19  1.941577 S    
O43   C7    1.408048 S    
P8    O28   1.595632 D    
O12   Ba4   2.848318 S    
P4    O8    1.607078 S    
O39   C16   1.395664 S    
C39   C83   1.485489 S    
C19   Br3   1.930548 S    
P2    O6    1.607078 S    
C8    H4    1.109205 S    
C27   F11   1.373039 S    
C55   C59   1.465084 A    
P1    C81   1.861421 S    
C37   C81   1.489709 S    
C70   C78   1.466559 S    
P11   O31   1.781571 S    
C2    C30   1.517257 S    
P14   C85   1.869274 S    
C43   Br23  1.912788 S    
C4    H20   1.102415 S    
P12   O32   1.766883 S    
C1    C29   1.519954 S    
P11   C52   1.868933 S    
P1    Ba1   3.477934 S    
C41   C45   1.402622 A    
O7    Ba4   2.906667 S    
O9    Ba1   2.858721 S    
O25   Ba1   2.891075 S    
P6    O45   1.627174 S    
C11   F19   1.383923 S    
O11   P16   1.746276 S    
C66   C74   1.469988 S    
P5    O46   1.622957 S    
C16   H8    1.111267 S    
Ba2   O45   3.043580 S    
C27   Br11  1.940046 S    
C39   C87   1.415216 A    
C9    F17   1.381107 S    
P7    C48   1.877063 S    
C15   F31   1.377495 S    
C30   F14   1.372736 S    
Ba3   O48   3.042290 S    
C40   C84   1.490783 S    
C74   C86   1.494714 S    
C9    Br37  1.938432 S    
C21   Br5   1.902190 S    
C7    Br35  1.905827 S    
C66   Br30  1.899005 S    
C39   Br27  1.904294 S    
C65   Br29  1.904927 S    
O44   C8    1.416929 S    
C25   Br13  1.944176 S    
Ba1   O45   2.900784 S    
C54   C62   1.527230 S    
C52   C56   1.463964 A    
C61   C67   1.357774 D    
P7    O27   1.592791 D    
P5    O25   1.592791 D    
P2    C82   1.865646 S    
C80   H24   1.081937 S    
O3    Ba3   2.889486 S    
C18   H10   1.110319 S    
P6    O38   1.751937 S    
C15   C19   1.533196 S    
C34   C50   1.347116 D    
C53   C61   1.528233 S    
C1    H17   1.102641 S    
C20   F8    1.384662 S    
C22   Br6   1.907245 S    
C24   H16   1.109970 S    
C55   C63   1.525172 S    
C53   C57   1.470678 A    
P10   C49   1.871085 S    
C71   C79   1.473698 S    
C38   C86   1.413164 A    
C76   C88   1.493399 S    
C71   C75   1.471782 S    
C5    C9    1.523998 S    
C28   Br12  1.940686 S    
C19   F7    1.384746 S    
C38   Br26  1.890777 S    
P9    O41   1.760938 S    
C18   F6    1.384557 S    
P3    O7    1.611118 S    
C10   F18   1.381946 S    
C70   C74   1.464587 S    
Ba2   O46   2.891027 S    
C17   F5    1.384609 S    
C64   H32   1.085935 S    
C43   C47   1.409676 A    
C5    H1    1.109147 S    
C80   C84   1.338921 D    
P16   C87   1.869029 S    
O2    Ba2   2.887715 S    
C68   C76   1.483559 S    
C56   C64   1.524359 S    
C2    F22   1.380096 S    
P8    O40   1.750681 S    
C35   C47   1.475103 S    
P12   O44   1.760612 S    
C1    F21   1.375378 S    
C13   H5    1.111296 S    
O19   C23   1.395969 S    
C62   C68   1.359048 D    
C33   C45   1.481509 S    
Ba1   Ba2   4.792504 S    
C3    H19   1.099427 S    
Ba4   O48   2.891027 S    
C15   H7    1.111362 S    
O1    Ba1   2.889486 S    
C22   C26   1.541853 S    
O23   C31   1.403008 S    
P4    Ba4   3.478614 S    
Ba3   O47   2.900784 S    
C14   H6    1.111224 S    
