data_mof_unit_14665.cif
_audit_creation_date              2012-12-10T17:49:43-0500
_audit_creation_method            fapswitch 2.2
_symmetry_space_group_name_H-M    P1
_symmetry_Int_Tables_number       1
_space_group_crystal_system       triclinic
_cell_length_a                    10.549199
_cell_length_b                    10.610738
_cell_length_c                    9.956574
_cell_angle_alpha                 90.458907
_cell_angle_beta                  88.790488
_cell_angle_gamma                 90.222312
_cell_volume                      1114.19525565

loop_
_atom_site_label
_atom_site_type_symbol
_atom_type_description
_atom_site_fract_x
_atom_site_fract_y
_atom_site_fract_z
_atom_type_partial_charge
C1    C     C_R   0.504010 0.260830 0.499586 0.865004
C2    C     C_R   0.614175 0.066754 0.560863 0.092658
C3    C     C_R   0.512892 0.128466 0.498706 -0.075448
C4    C     C_R   0.257568 0.500992 0.500355 0.891716
C5    C     C_R   0.416269 0.063576 0.434867 -0.203778
C6    C     C_R   0.415539 0.934895 0.436080 -0.194950
C7    C     C_R   0.511801 0.871571 0.500476 -0.089636
C8    C     C_R   0.318901 0.355027 0.135469 -0.156008
C9    C     C_R   0.214231 0.312525 0.063998 -0.230532
C10   C     C_R   0.188489 0.366849 0.940194 -0.227731
C11   C     C_R   0.271309 0.459151 0.887598 0.209616
C12   C     C_3   0.960896 0.392989 0.441256 0.376350
C13   C     C_R   0.396582 0.456390 0.932991 0.159077
C14   C     C_R   0.407640 0.435892 0.072990 0.143875
C15   C     C_R   0.593475 0.556997 0.069886 -0.081872
C16   C     C_R   0.503325 0.739192 0.500314 0.852630
C17   C     C_R   0.595820 0.552644 0.926728 -0.066188
C18   C     C_R   0.742341 0.499027 0.499014 0.897166
C19   C     C_3   0.039940 0.608592 0.554121 -0.240279
C20   C     C_3   0.957252 0.507599 0.623475 0.398213
C21   C     C_3   0.877309 0.498514 0.497601 -0.106922
C22   C     C_3   0.958885 0.598691 0.426867 -0.259916
C23   C     C_3   0.041561 0.400323 0.568306 -0.286377
C24   C     C_3   0.044488 0.492014 0.369961 -0.131130
C25   C     C_3   0.208456 0.587292 0.868272 -0.359979
C26   C     C_3   0.289482 0.703415 0.900381 -0.874593
C27   C     C_3   0.122488 0.501180 0.498514 -0.094974
C28   C     C_R   0.716434 0.132727 0.619116 -0.092807
C29   C     C_R   0.816440 0.067605 0.675782 -0.087315
C30   C     C_R   0.816830 0.936414 0.674721 -0.132798
C31   C     C_R   0.716943 0.869943 0.617520 -0.181332
C32   C     C_R   0.614034 0.934651 0.560931 0.085226
Cl1   Cl    Cl    0.903553 0.515688 0.793809 -0.731457
Cl2   Cl    Cl    0.906301 0.251788 0.363472 -0.651882
H1    H     H_    0.895204 0.885936 0.717349 0.152878
H2    H     H_    0.921344 0.679063 0.369271 0.173897
H3    H     H_    0.083286 0.485401 0.265642 0.179425
H4    H     H_    0.078339 0.319730 0.626133 0.162336
H5    H     H_    0.339712 0.112906 0.386963 0.148613
H6    H     H_    0.721630 0.234482 0.619142 0.167628
H7    H     H_    0.894538 0.119160 0.719199 0.149728
H8    H     H_    0.322504 0.700148 0.005500 0.256378
H9    H     H_    0.371903 0.710261 0.830303 0.291422
H10   H     H_    0.231688 0.789790 0.889064 0.250421
H11   H     H_    0.173732 0.595895 0.766334 0.242737
H12   H     H_    0.722384 0.768199 0.616355 0.158046
H13   H     H_    0.123195 0.594378 0.935638 0.244565
H14   H     H_    0.338577 0.884329 0.388801 0.155838
H15   H     H_    0.668811 0.605089 0.121889 0.161605
H16   H     H_    0.329153 0.322705 0.236408 0.197928
H17   H     H_    0.146357 0.248857 0.110627 0.202149
H18   H     H_    0.095121 0.353994 0.899324 0.206917
H19   H     H_    0.671423 0.599442 0.872146 0.205142
H20   H     H_    0.073902 0.698836 0.597912 0.152272
N1    N     N_R   0.498800 0.498800 0.142780 -0.123906
N2    N     N_R   0.498760 0.498720 0.857170 -0.128567
O1    O     O_R   0.500000 0.316780 0.614690 -0.619414
O2    O     O_R   0.499990 0.316750 0.385360 -0.615556
O3    O     O_R   0.313960 0.499980 0.614650 -0.625610
O4    O     O_R   0.313940 0.499960 0.385310 -0.639234
O5    O     O_R   0.500010 0.683250 0.614640 -0.636963
O6    O     O_R   0.500000 0.683220 0.385310 -0.613779
O7    O     O_R   0.686060 0.500040 0.614690 -0.596837
O8    O     O_R   0.686040 0.500020 0.385350 -0.597230
Zn1   Zn    Zn3+2 0.500010 0.500020 0.653130 0.958684
Zn2   Zn    Zn3+2 0.499990 0.499980 0.346870 0.964856

loop_
_geom_bond_atom_site_label_1
_geom_bond_atom_site_label_2
_ccdc_geom_bond_type
C2    C28   A    
O7    Zn1   S    
C1    O2    A    
C6    C7    A    
C7    C32   A    
C1    O1    A    
C18   C21   S    
C19   C27   S    
C9    C10   A    
C12   C24   S    
C19   C20   S    
C9    H17   S    
C24   C27   S    
C30   C31   A    
C3    C5    A    
C13   N2    A    
C10   H18   S    
C6    H14   S    
C4    O4    A    
C5    H5    S    
C14   N1    A    
C17   H19   S    
O4    Zn2   S    
O8    Zn2   S    
C21   C22   S    
O3    Zn1   S    
C11   C13   A    
C12   C23   S    
C18   O8    A    
C29   C30   A    
C16   O6    A    
C30   H1    S    
C20   Cl1   S    
C19   H20   S    
C28   C29   A    
C26   H9    S    
C2    C3    A    
C8    H16   S    
C17   N2    A    
C23   C27   S    
C15   H15   S    
O5    Zn1   S    
C5    C6    A    
C22   C24   S    
C18   O7    A    
C16   O5    A    
C28   H6    S    
C4    O3    A    
C26   H10   S    
N2    Zn1   S    
C23   H4    S    
C11   C25   S    
C25   H11   S    
N1    Zn2   S    
C22   H2    S    
C20   C21   S    
C26   H8    S    
C2    C32   A    
C19   C22   S    
C10   C11   A    
C24   H3    S    
C15   C17   A    
O6    Zn2   S    
C25   H13   S    
C7    C16   S    
C8    C14   A    
C4    C27   S    
C29   H7    S    
C25   C26   S    
C13   C14   A    
C20   C23   S    
C12   Cl2   S    
C12   C21   S    
O2    Zn2   S    
C31   C32   A    
O1    Zn1   S    
C8    C9    A    
C1    C3    S    
C31   H12   S    
C15   N1    A    
