data_mof_unit_20026.cif
_audit_creation_date              2012-12-11T17:34:19-0500
_audit_creation_method            fapswitch 2.2
_symmetry_space_group_name_H-M    P1
_symmetry_Int_Tables_number       1
_space_group_crystal_system       triclinic
_cell_length_a                    23.848605
_cell_length_b                    7.239126
_cell_length_c                    20.570477
_cell_angle_alpha                 89.99864
_cell_angle_beta                  105.491455
_cell_angle_gamma                 89.999828
_cell_volume                      3422.33053414

loop_
_atom_site_label
_atom_site_type_symbol
_atom_type_description
_atom_site_fract_x
_atom_site_fract_y
_atom_site_fract_z
_atom_type_partial_charge
O1    O     O_R   0.449110 0.494310 0.552140 -0.539640
O2    O     O_R   0.550890 0.994310 0.447860 -0.539569
O3    O     O_R   0.440010 0.824420 0.415850 -0.541111
O4    O     O_R   0.559990 0.324420 0.584150 -0.541115
C1    C     C_R   0.426072 0.655684 0.390190 0.888752
C2    C     C_R   0.573925 0.155679 0.609812 0.888582
O5    O     O_R   0.442260 0.824040 0.549660 -0.530154
O6    O     O_R   0.557740 0.324040 0.450340 -0.530133
O7    O     O_R   0.553160 0.993960 0.582620 -0.520006
O8    O     O_R   0.446840 0.493960 0.417380 -0.520031
C3    C     C_R   0.428092 0.655025 0.566717 0.758007
C4    C     C_R   0.571906 0.155026 0.433280 0.757942
O9    O     O_3   0.536380 0.660670 0.510660 -0.386590
O10   O     O_3   0.463620 0.160670 0.489340 -0.386680
V1    V     V_3+5 0.493250 0.935680 0.498020 1.535158
V2    V     V_3+5 0.506750 0.435680 0.501980 1.535152
C5    C     C_R   0.852632 0.921858 0.201993 0.416281
C6    C     C_R   0.147365 0.421874 0.798004 0.416383
C7    C     C_R   0.888510 0.919451 0.157719 -0.225021
C8    C     C_R   0.111488 0.419462 0.842279 -0.224993
H1    H     H_    0.920159 0.809640 0.162430 0.207868
H2    H     H_    0.079839 0.309651 0.837570 0.207864
C9    C     C_R   0.886041 0.059433 0.109508 -0.257348
C10   C     C_R   0.113957 0.559440 0.890489 -0.257335
C11   C     C_R   0.845325 0.205920 0.106050 0.447932
C12   C     C_R   0.154672 0.705929 0.893944 0.447931
C13   C     C_R   0.808127 0.203413 0.148780 -0.150960
C14   C     C_R   0.191868 0.703424 0.851214 -0.151030
H3    H     H_    0.776636 0.313127 0.145510 0.229443
H4    H     H_    0.223360 0.813137 0.854483 0.229447
C15   C     C_R   0.811261 0.064286 0.196749 -0.124112
C16   C     C_R   0.188734 0.564302 0.803246 -0.124095
C17   C     C_1   0.771890 0.075547 0.239887 0.182640
C18   C     C_1   0.228104 0.575566 0.760107 0.182733
C19   C     C_1   0.738541 0.090903 0.275037 0.162504
C20   C     C_1   0.261452 0.590920 0.724956 0.162530
C21   C     C_R   0.661501 0.963407 0.320841 -0.048502
C22   C     C_R   0.338487 0.463410 0.679149 -0.048465
H5    H     H_    0.663402 0.836643 0.293725 0.212071
H6    H     H_    0.336583 0.336642 0.706263 0.212079
C23   C     C_R   0.621804 0.977001 0.359766 -0.069684
C24   C     C_R   0.378184 0.476999 0.640222 -0.069694
H7    H     H_    0.595221 0.857994 0.362691 0.172508
H8    H     H_    0.404761 0.357985 0.637292 0.172207
C25   C     C_R   0.615847 0.141883 0.393539 -0.102857
C26   C     C_R   0.384147 0.641886 0.606454 -0.102666
C27   C     C_R   0.652631 0.290888 0.389394 -0.237254
C28   C     C_R   0.347367 0.790900 0.610600 -0.237073
H9    H     H_    0.649381 0.418090 0.415817 0.160995
H10   H     H_    0.350620 0.918105 0.584177 0.160864
C29   C     C_R   0.694123 0.276149 0.351947 0.397614
C30   C     C_R   0.305874 0.776165 0.648046 0.397608
C31   C     C_R   0.698114 0.111220 0.316589 -0.051056
C32   C     C_R   0.301879 0.611233 0.683403 -0.051083
C33   C     C_R   0.642654 0.154233 0.799809 0.340491
C34   C     C_R   0.357345 0.654295 0.200193 0.340506
H11   H     H_    0.726579 0.048220 0.909584 0.189830
H12   H     H_    0.273425 0.548219 0.090421 0.189792
C35   C     C_R   0.617316 0.145924 0.676942 -0.351767
C36   C     C_R   0.382684 0.645946 0.323060 -0.351834
C37   C     C_R   0.904344 0.050414 0.766798 -0.240337
C38   C     C_R   0.095658 0.550349 0.233201 -0.240331
C39   C     C_R   0.866637 0.037092 0.702692 -0.184221
C40   C     C_R   0.133364 0.537000 0.297306 -0.184237
C41   C     C_R   0.806255 0.035531 0.692859 0.495063
C42   C     C_R   0.193746 0.535456 0.307140 0.495070
C43   C     C_R   0.781740 0.069732 0.748197 -0.004001
C44   C     C_R   0.218262 0.569696 0.251804 -0.003998
C45   C     C_R   0.821468 0.060669 0.814412 -0.003278
C46   C     C_R   0.178533 0.560654 0.185588 -0.003286
C47   C     C_R   0.720265 0.104051 0.741898 -0.065437
C48   C     C_R   0.279736 0.604033 0.258104 -0.065403
C49   C     C_R   0.701072 0.108156 0.801995 -0.134654
C50   C     C_R   0.298930 0.608171 0.198007 -0.134650
C51   C     C_R   0.740624 0.066790 0.864219 0.014616
C52   C     C_R   0.259379 0.566792 0.135784 0.014576
C53   C     C_R   0.799422 0.049229 0.870596 -0.100622
C54   C     C_R   0.200581 0.549228 0.129405 -0.100625
C55   C     C_R   0.677234 0.144751 0.679883 0.373598
C56   C     C_R   0.322766 0.644714 0.320120 0.373580
C57   C     C_R   0.599513 0.149039 0.737178 0.282685
C58   C     C_R   0.400488 0.649138 0.262825 0.282660
C59   C     C_R   0.882734 0.054833 0.823319 -0.088282
C60   C     C_R   0.117267 0.554812 0.176680 -0.088282
H13   H     H_    0.950858 0.046981 0.772545 0.170107
H14   H     H_    0.049143 0.546899 0.227453 0.170104
H15   H     H_    0.884536 0.018752 0.659956 0.177039
H16   H     H_    0.115465 0.518625 0.340041 0.177037
H17   H     H_    0.827663 0.023763 0.920493 0.122835
H18   H     H_    0.172341 0.523765 0.079508 0.122840
O11   O     O_R   0.053190 0.709680 0.082610 -0.525327
O12   O     O_R   0.946810 0.209680 0.917390 -0.525328
O13   O     O_R   0.057740 0.380240 0.950340 -0.530691
O14   O     O_R   0.942260 0.880240 0.049660 -0.530696
C61   C     C_R   0.072021 0.549630 0.933294 0.737707
C62   C     C_R   0.927978 0.049628 0.066705 0.737706
O15   O     O_R   0.060000 0.379940 0.084150 -0.546366
O16   O     O_R   0.940000 0.879940 0.915850 -0.546362
O17   O     O_R   0.949110 0.210100 0.052140 -0.494704
O18   O     O_R   0.050890 0.710100 0.947860 -0.494703
C63   C     C_R   0.074340 0.548201 0.109433 0.695760
C64   C     C_R   0.925661 0.048206 0.890566 0.695764
O19   O     O_3   0.963630 0.543720 0.989330 -0.343720
O20   O     O_3   0.036370 0.043720 0.010670 -0.343721
V3    V     V_3+5 0.006750 0.268680 0.001980 1.637684
V4    V     V_3+5 0.993250 0.768680 0.998020 1.637684
S1    S     S_3+6 0.860877 0.742564 0.262220 0.109793
O21   O     O_2   0.820845 0.587583 0.231302 -0.245365
O22   O     O_2   0.922370 0.671719 0.280565 -0.326617
O23   O     O_3   0.844346 0.814358 0.332623 -0.431695
H19   H     H_    0.872802 0.913502 0.350965 0.339655
S2    S     S_3+6 0.139119 0.242588 0.737776 0.109754
O24   O     O_2   0.179143 0.087586 0.768696 -0.245358
O25   O     O_2   0.077622 0.171771 0.719425 -0.326668
O26   O     O_3   0.155659 0.314383 0.667378 -0.431756
H20   H     H_    0.127152 0.413345 0.648979 0.339737
S3    S     S_3+6 0.626410 0.239885 0.874642 0.135321
O27   O     O_2   0.576358 0.373290 0.858418 -0.212249
O28   O     O_2   0.611922 0.079592 0.913705 -0.265661
O29   O     O_3   0.684327 0.352675 0.923116 -0.488818
H21   H     H_    0.674558 0.375006 0.966324 0.399874
S4    S     S_3+6 0.373586 0.739914 0.125351 0.135352
O30   O     O_2   0.423623 0.873370 0.141557 -0.212158
O31   O     O_2   0.388094 0.579602 0.086313 -0.265700
O32   O     O_3   0.315660 0.852628 0.076856 -0.488828
H22   H     H_    0.325381 0.874611 0.033599 0.399829
O33   O     O_3   0.691807 0.190085 0.621341 -0.523503
C65   C     C_3   0.707965 0.377506 0.624444 -0.178378
H23   H     H_    0.747479 0.403636 0.666543 0.124183
H24   H     H_    0.671665 0.468563 0.629245 0.117517
H25   H     H_    0.718507 0.413976 0.576680 0.163876
O34   O     O_3   0.308192 0.689985 0.378667 -0.523511
C66   C     C_3   0.292030 0.877402 0.375583 -0.178452
H26   H     H_    0.252515 0.903554 0.333487 0.124197
H27   H     H_    0.328328 0.968477 0.370788 0.117500
H28   H     H_    0.281490 0.913823 0.423351 0.163886
O35   O     O_3   0.773487 0.987067 0.629263 -0.513836
C67   C     C_3   0.758115 0.799517 0.629805 -0.159957
H29   H     H_    0.730637 0.773844 0.664907 0.108800
H30   H     H_    0.797423 0.709631 0.642873 0.120409
H31   H     H_    0.732113 0.761289 0.578367 0.172975
O36   O     O_3   0.226514 0.486962 0.370733 -0.513833
C68   C     C_3   0.241880 0.299409 0.370185 -0.159970
H32   H     H_    0.269358 0.273741 0.335082 0.108816
H33   H     H_    0.202569 0.209539 0.357112 0.120405
H34   H     H_    0.267879 0.261154 0.421621 0.172963
S5    S     S_3+6 0.840000 0.399844 0.052124 0.016498
O37   O     O_2   0.891390 0.522996 0.080352 -0.338078
O38   O     O_2   0.839980 0.340356 0.982212 -0.350354
O39   O     O_3   0.778776 0.519699 0.048343 -0.489805
H35   H     H_    0.782604 0.634581 0.023705 0.371872
S6    S     S_3+6 0.159995 0.899851 0.947867 0.016463
O40   O     O_2   0.108601 0.022994 0.919643 -0.338038
O41   O     O_2   0.160022 0.840354 0.017781 -0.350401
O42   O     O_3   0.221214 0.019722 0.951639 -0.489817
H36   H     H_    0.217416 0.134499 0.976348 0.371907
S7    S     S_3+6 0.739740 0.466278 0.348933 0.060199
O43   O     O_2   0.721637 0.546798 0.279173 -0.276222
O44   O     O_2   0.734843 0.611913 0.399227 -0.342810
O45   O     O_3   0.809279 0.395675 0.365094 -0.428020
H37   H     H_    0.817275 0.333384 0.409500 0.338494
S8    S     S_3+6 0.260257 0.966297 0.651056 0.060184
O46   O     O_2   0.278353 0.046802 0.720817 -0.276203
O47   O     O_2   0.265159 0.111942 0.600765 -0.342843
O48   O     O_3   0.190716 0.895702 0.634886 -0.428022
H38   H     H_    0.182727 0.833390 0.590485 0.338477
S9    S     S_3+6 0.523819 0.154735 0.733740 0.089445
O49   O     O_2   0.513266 0.067470 0.795720 -0.223874
O50   O     O_2   0.504405 0.352855 0.729379 -0.308395
O51   O     O_3   0.483266 0.040720 0.666503 -0.521926
H39   H     H_    0.443373 0.041928 0.672321 0.345475
S10   S     S_3+6 0.476183 0.654979 0.266267 0.089333
O52   O     O_2   0.486749 0.567643 0.204306 -0.224096
O53   O     O_2   0.495557 0.853136 0.270577 -0.308207
O54   O     O_3   0.516766 0.541141 0.333537 -0.522102
H40   H     H_    0.556594 0.541437 0.327515 0.345624

loop_
_geom_bond_atom_site_label_1
_geom_bond_atom_site_label_2
_ccdc_geom_bond_type
C68   H34   S    
C42   C44   A    
C12   S6    S    
C39   C41   A    
O48   H38   S    
C56   O34   S    
C59   C64   S    
C46   C54   A    
C49   C51   A    
C45   C53   A    
S5    O37   D    
O1    C3    A    
O2    C4    A    
C65   H23   S    
C2    O7    A    
S2    O25   D    
C66   H26   S    
H12   C52   S    
S9    O50   D    
C54   H18   S    
O5    C3    A    
C38   H14   S    
C53   H17   S    
S7    O43   D    
C50   C52   A    
C52   C54   A    
S5    O38   D    
C6    S2    S    
C22   C24   A    
C5    S1    S    
S10   O52   D    
C19   C31   S    
O51   H39   S    
O26   H20   S    
C62   O17   A    
C9    C62   S    
C6    C8    A    
C24   C26   A    
C37   C39   A    
O23   H19   S    
S2    O24   D    
C38   C40   A    
O13   V3    S    
C36   C58   A    
O14   V4    S    
C8    C10   A    
S10   O53   D    
O34   C66   S    
C41   C43   A    
C66   H28   S    
S1    O21   D    
C15   C17   S    
C33   C57   A    
C46   C60   A    
C43   C47   A    
S10   O54   S    
O12   C64   A    
C21   C31   A    
O6    V2    S    
C28   H10   S    
S7    O44   D    
C60   C63   S    
C23   H7    S    
O11   V4    S    
C38   C60   A    
C24   H8    S    
C41   O35   S    
O11   C63   A    
C47   C55   A    
O20   V3    S    
C30   C32   A    
S9    O51   S    
S8    O47   D    
C25   C27   A    
O17   V3    S    
C58   S10   S    
C34   C50   A    
C13   C15   A    
C14   C16   A    
S5    O39   S    
C27   H9    S    
C37   C59   A    
S3    O29   S    
C35   C55   A    
S9    O49   D    
C47   C49   A    
C61   O18   A    
C5    C7    A    
C27   C29   A    
O16   C64   A    
C29   S7    S    
C44   C48   A    
C43   C45   A    
C34   S4    S    
O4    V2    S    
C7    C9    A    
C45   C59   A    
S8    O48   S    
O54   H40   S    
C22   C32   A    
S6    O42   S    
C28   C30   A    
O6    C4    A    
C57   S9    S    
C11   S5    S    
O1    V2    S    
O14   C62   A    
O2    V1    S    
C51   C53   A    
C40   C42   A    
C37   H13   S    
C42   O36   S    
C48   C50   A    
S6    O41   D    
S7    O45   S    
O32   H22   S    
C5    C15   A    
S1    O23   S    
C10   C61   S    
O4    C2    A    
C6    C16   A    
C8    H2    S    
S4    O31   D    
O33   C65   S    
C65   H25   S    
O3    V1    S    
O29   H21   S    
S8    O46   D    
C33   S3    S    
C68   H33   S    
C55   O33   S    
C36   C56   A    
C1    C36   S    
C39   H15   S    
O10   V1    S    
C12   C14   A    
C2    C35   S    
C35   C57   A    
C10   C12   A    
C4    C25   S    
O3    C1    A    
C67   H31   S    
C65   H24   S    
C34   C58   A    
C67   H30   S    
C11   C13   A    
O35   C67   S    
O18   V4    S    
O16   V4    S    
O45   H37   S    
H11   C51   S    
S4    O32   S    
S3    O28   D    
O7    V1    S    
O15   V3    S    
C1    O8    A    
C48   C56   A    
O8    V2    S    
S3    O27   D    
C22   H6    S    
S1    O22   D    
C13   H3    S    
O5    V1    S    
C17   C19   T    
C14   H4    S    
O19   V4    S    
C18   C20   T    
C9    C11   A    
C21   C23   A    
C20   C32   S    
C67   H29   S    
C33   C49   A    
C26   C28   A    
O12   V3    S    
C21   H5    S    
S6    O40   D    
O13   C61   A    
O9    V2    S    
C30   S8    S    
O42   H36   S    
C66   H27   S    
C44   C46   A    
C23   C25   A    
O36   C68   S    
C3    C26   S    
C29   C31   A    
S4    O30   D    
C40   H16   S    
S2    O26   S    
O15   C63   A    
C68   H32   S    
C16   C18   S    
O39   H35   S    
C7    H1    S    
