data_mof_unit_39718.cif
_audit_creation_date              2012-12-10T17:18:12-0500
_audit_creation_method            fapswitch 2.2
_symmetry_space_group_name_H-M    P1
_symmetry_Int_Tables_number       1
_space_group_crystal_system       triclinic
_cell_length_a                    10.114792
_cell_length_b                    10.885133
_cell_length_c                    14.995616
_cell_angle_alpha                 90.850635
_cell_angle_beta                  81.804458
_cell_angle_gamma                 95.426595
_cell_volume                      1626.84310858

loop_
_atom_site_label
_atom_site_type_symbol
_atom_type_description
_atom_site_fract_x
_atom_site_fract_y
_atom_site_fract_z
_atom_type_partial_charge
C1    C     C_R   0.556186 0.732223 0.492672 0.985118
C2    C     C_2   0.072686 0.489880 0.492637 -0.131468
C3    C     C_R   0.502592 0.506360 0.672900 0.962901
C4    C     C_R   0.497408 0.493639 0.327100 0.962905
C5    C     C_R   0.564857 0.399235 0.176734 0.399638
C6    C     C_R   0.435142 0.600763 0.823266 0.399642
C7    C     C_R   0.492200 0.483855 0.231698 -0.206712
C8    C     C_R   0.507800 0.516145 0.768302 -0.206710
C9    C     C_R   0.414231 0.563866 0.195536 -0.306829
C10   C     C_R   0.585769 0.436133 0.804465 -0.306829
C11   C     C_R   0.413182 0.567323 0.103798 0.130059
C12   C     C_R   0.443814 0.267777 0.507330 0.985129
C13   C     C_R   0.586816 0.432675 0.896203 0.130059
C14   C     C_R   0.497577 0.495017 0.046692 0.030370
C15   C     C_R   0.502421 0.504981 0.953309 0.030368
C16   C     C_R   0.576704 0.412682 0.082802 -0.019461
C17   C     C_R   0.423294 0.587316 0.917199 -0.019461
C18   C     C_R   0.330434 0.643904 0.068557 -0.199609
C19   C     C_R   0.669564 0.356094 0.931443 -0.199608
C20   C     C_R   0.333596 0.652189 0.976185 -0.091382
C21   C     C_R   0.666401 0.347809 0.023816 -0.091381
C22   C     C_2   0.588199 0.863736 0.489038 -0.323210
C23   C     C_2   0.411802 0.136265 0.510973 -0.323212
C24   C     C_2   0.486818 0.934553 0.500533 -0.099922
C25   C     C_2   0.513183 0.065448 0.499497 -0.099962
C26   C     C_2   0.927314 0.510120 0.507363 -0.131469
H1    H     H_    0.355446 0.625278 0.239119 0.180959
H2    H     H_    0.692311 0.902494 0.478167 0.147643
H3    H     H_    0.108704 0.422148 0.443468 0.175155
H4    H     H_    0.891296 0.577852 0.556532 0.175155
H5    H     H_    0.120104 0.614792 0.583288 0.203668
H6    H     H_    0.879896 0.385208 0.416712 0.203668
H7    H     H_    0.655340 0.080568 0.185777 0.386386
H8    H     H_    0.344635 0.919423 0.814231 0.386382
H9    H     H_    0.644553 0.374722 0.760881 0.180959
H10   H     H_    0.262547 0.697007 0.112550 0.158702
H11   H     H_    0.737451 0.302991 0.887451 0.158702
H12   H     H_    0.262955 0.707603 0.952149 0.218072
H13   H     H_    0.737042 0.292394 0.047852 0.218075
H14   H     H_    0.617550 0.103777 0.488560 0.196125
H15   H     H_    0.382451 0.896224 0.511478 0.196131
H16   H     H_    0.307689 0.097506 0.521836 0.147645
N1    N     N_2   0.842700 0.448880 0.462930 -0.188255
N2    N     N_2   0.157300 0.551120 0.537070 -0.188254
O1    O     O_R   0.431060 0.692470 0.507460 -0.590384
O2    O     O_2   0.539822 0.234533 0.312648 -0.322351
O3    O     O_3   0.614970 0.145485 0.156005 -0.562156
O4    O     O_2   0.460173 0.765465 0.687353 -0.322348
O5    O     O_2   0.232672 0.699418 0.760811 -0.319992
O6    O     O_3   0.385026 0.854513 0.843996 -0.562152
O7    O     O_R   0.568940 0.307530 0.492540 -0.590380
O8    O     O_R   0.651120 0.659650 0.483670 -0.628113
O9    O     O_R   0.348880 0.340350 0.516330 -0.628115
O10   O     O_R   0.389960 0.516440 0.644050 -0.561451
O11   O     O_R   0.610040 0.483560 0.355950 -0.561451
O12   O     O_R   0.610030 0.483620 0.620260 -0.637428
O13   O     O_R   0.389970 0.516380 0.379740 -0.637425
O14   O     O_2   0.767324 0.300578 0.239191 -0.319981
S1    S     S_3+6 0.624147 0.268981 0.224484 0.005629
S2    S     S_3+6 0.375850 0.731016 0.775517 0.005626
Zn1   Zn    Zn3+2 0.353060 0.521920 0.515880 1.008294
Zn2   Zn    Zn3+2 0.646940 0.478080 0.484120 1.008294

loop_
_geom_bond_atom_site_label_1
_geom_bond_atom_site_label_2
_ccdc_geom_bond_type
C4    O13   A    
C5    C7    A    
C11   C18   A    
O13   Zn1   S    
C10   H9    S    
O10   Zn1   S    
O2    S1    D    
O8    Zn2   S    
C20   H12   S    
C3    O12   A    
C18   C20   A    
C12   O9    A    
C21   H13   S    
O4    S2    D    
O6    S2    S    
C17   C20   A    
C13   C15   A    
C1    O8    A    
O5    S2    D    
C1    C22   S    
C2    C26   S    
C22   H2    S    
C24   H15   S    
C9    C11   A    
C12   C23   S    
C1    O1    A    
C16   C21   A    
C23   H16   S    
C18   H10   S    
C4    C7    S    
O7    Zn2   S    
O1    Zn1   S    
C3    O10   A    
H6    N1    S    
C26   N1    D    
C26   H4    S    
C22   C24   D    
C23   C25   D    
C25   H14   S    
H7    O3    S    
C11   C14   A    
C14   C16   A    
H8    O6    S    
H5    N2    S    
C5    S1    S    
O3    S1    S    
N2    Zn1   S    
O11   Zn2   S    
C6    S2    S    
C12   O7    A    
C2    H3    S    
C24   C25   S    
C9    H1    S    
C8    C10   A    
C3    C8    S    
C4    O11   A    
C7    C9    A    
C6    C17   A    
C13   C19   A    
C14   C15   A    
C5    C16   A    
C6    C8    A    
C19   H11   S    
C19   C21   A    
O14   S1    D    
C15   C17   A    
O9    Zn1   S    
O12   Zn2   S    
N1    Zn2   S    
C2    N2    D    
C10   C13   A    
