data_mof_unit_49172.cif
_audit_creation_date              2012-10-26T18:33:33-0400
_audit_creation_method            fapswitch 2.2
_symmetry_space_group_name_H-M    P1
_symmetry_Int_Tables_number       1
_space_group_crystal_system       triclinic
_cell_length_a                    15.057752
_cell_length_b                    13.787592
_cell_length_c                    10.735549
_cell_angle_alpha                 89.99565
_cell_angle_beta                  88.448412
_cell_angle_gamma                 90.338798
_cell_volume                      2227.95263712

loop_
_atom_site_label
_atom_site_type_symbol
_atom_type_description
_atom_site_fract_x
_atom_site_fract_y
_atom_site_fract_z
_atom_type_partial_charge
C1    C     C_R   0.328995 0.499815 0.502847 0.527622
C2    C     C_R   0.039143 0.384378 0.671591 -0.029739
C3    C     C_R   0.089995 0.441201 0.587923 0.011162
C4    C     C_R   0.500167 0.499860 0.259823 0.538609
C5    C     C_R   0.047108 0.495633 0.495809 0.002360
C6    C     C_R   0.097768 0.552048 0.410172 0.012136
C7    C     C_R   0.055917 0.606011 0.319277 -0.120795
C8    C     C_R   0.963952 0.606356 0.313974 -0.120834
C9    C     C_R   0.182970 0.444981 0.595628 0.223839
C10   C     C_R   0.232539 0.499660 0.506276 0.000170
C11   C     C_R   0.189890 0.553410 0.415792 -0.160049
C12   C     C_3   0.584102 0.551022 0.924602 -0.226211
C13   C     C_R   0.461452 0.794910 0.597550 0.381035
C14   C     C_R   0.460522 0.204379 0.596723 0.380313
C15   C     C_R   0.539683 0.793282 0.402372 0.018800
C16   C     C_R   0.541709 0.207328 0.403905 0.036040
C17   C     C_R   0.542990 0.896552 0.399550 -0.009926
C18   C     C_R   0.543852 0.104034 0.400215 -0.008139
C19   C     C_R   0.671110 0.500290 0.495953 0.538064
C20   C     C_R   0.505493 0.948405 0.500501 -0.046441
C21   C     C_R   0.505075 0.051574 0.500186 -0.048215
C22   C     C_R   0.465557 0.897069 0.600814 0.044400
C23   C     C_R   0.816777 0.554921 0.398462 0.006377
C24   C     C_R   0.464785 0.102321 0.600171 0.047217
C25   C     C_R   0.580853 0.948545 0.297352 0.228859
C26   C     C_R   0.584538 0.052648 0.300090 0.235169
C27   C     C_R   0.426714 0.049951 0.700683 -0.119328
C28   C     C_R   0.427194 0.948951 0.701070 -0.125155
C29   C     C_R   0.499507 0.499853 0.740227 0.534894
C30   C     C_3   0.416794 0.552775 0.075408 -0.232926
C31   C     C_3   0.498331 0.393678 0.071510 -0.232002
C32   C     C_3   0.416492 0.552810 0.931625 -0.242528
C33   C     C_3   0.497774 0.393740 0.928937 -0.222139
C34   C     C_R   0.767947 0.500322 0.488979 0.000211
C35   C     C_3   0.584579 0.550643 0.068331 -0.243189
C36   C     C_3   0.499968 0.499316 0.121857 0.040051
C37   C     C_3   0.499458 0.499363 0.878245 0.032055
C38   C     C_3   0.768779 0.612877 0.299920 -0.278341
C39   C     C_3   0.766117 0.720808 0.332254 -0.418180
C40   C     C_R   0.810818 0.442915 0.575469 -0.140848
C41   C     C_R   0.903282 0.437824 0.576535 0.000032
C42   C     C_R   0.953592 0.495099 0.490577 0.012877
C43   C     C_R   0.910908 0.552625 0.400107 0.042081
C44   C     C_R   0.947063 0.379555 0.664590 0.217926
Cu1   Cu    Cu3+1 0.499990 0.597420 0.500010 0.932965
Cu2   Cu    Cu3+1 0.499990 0.402580 0.500010 0.951528
H1    H     H_    0.416234 0.628961 0.109718 0.140857
H2    H     H_    0.396208 0.911787 0.779945 0.168602
H3    H     H_    0.355360 0.516664 0.112816 0.118716
H4    H     H_    0.438242 0.354608 0.108389 0.143332
H5    H     H_    0.354905 0.516802 0.899334 0.114841
H6    H     H_    0.437006 0.355348 0.898058 0.177315
H7    H     H_    0.415842 0.629006 0.897686 0.175162
H8    H     H_    0.556466 0.352994 0.892071 0.156519
H9    H     H_    0.588171 0.626625 0.102997 0.138979
H10   H     H_    0.644822 0.512304 0.099708 0.107720
H11   H     H_    0.586706 0.627271 0.890543 0.154569
H12   H     H_    0.557627 0.353434 0.102867 0.147835
H13   H     H_    0.644475 0.513784 0.886903 0.119623
H14   H     H_    0.770313 0.404916 0.644802 0.130769
H15   H     H_    0.280621 0.427898 0.708757 0.316358
H16   H     H_    0.382034 0.695469 0.657631 0.360689
H17   H     H_    0.382568 0.303877 0.655775 0.377248
H18   H     H_    0.605899 0.936878 0.119559 0.340684
H19   H     H_    0.676267 0.065604 0.170473 0.340427
H20   H     H_    0.728598 0.732311 0.421377 0.180105
H21   H     H_    0.833871 0.751372 0.341624 0.152085
H22   H     H_    0.732771 0.760818 0.257224 0.181822
H23   H     H_    0.070816 0.340973 0.741660 0.203694
H24   H     H_    0.800250 0.601722 0.206405 0.130845
H25   H     H_    0.699754 0.586951 0.288628 0.151808
H26   H     H_    0.852169 0.288194 0.703002 0.326481
H27   H     H_    0.228975 0.595304 0.348235 0.120154
H28   H     H_    0.094465 0.648844 0.252334 0.114038
H29   H     H_    0.935940 0.650241 0.241868 0.117649
H30   H     H_    0.568851 0.752122 0.326168 0.174336
H31   H     H_    0.573023 0.248976 0.329333 0.181575
H32   H     H_    0.395483 0.086714 0.779368 0.173745
N1    N     N_R   0.499930 0.743810 0.499950 -0.255662
N2    N     N_R   0.499930 0.256190 0.499950 -0.259155
O1    O     O_R   0.370250 0.582280 0.500040 -0.527492
O2    O     O_3   0.416662 0.748645 0.693895 -0.724922
O3    O     O_3   0.414958 0.249800 0.692380 -0.716002
O4    O     O_3   0.611149 0.896347 0.195095 -0.753736
O5    O     O_3   0.627800 0.105506 0.207240 -0.732332
O6    O     O_3   0.902858 0.317640 0.746307 -0.697534
O7    O     O_R   0.370250 0.417720 0.500040 -0.505292
O8    O     O_R   0.499970 0.582270 0.317700 -0.521663
O9    O     O_R   0.499970 0.417730 0.317700 -0.517335
O10   O     O_R   0.629730 0.582260 0.499980 -0.502547
O11   O     O_R   0.629730 0.417740 0.499980 -0.501256
O12   O     O_R   0.500000 0.582270 0.682320 -0.481664
O13   O     O_R   0.500000 0.417730 0.682320 -0.495484
O14   O     O_3   0.222758 0.396738 0.692162 -0.718310

loop_
_geom_bond_atom_site_label_1
_geom_bond_atom_site_label_2
_ccdc_geom_bond_type
C1    O7    A    
Cu2   N2    S    
C5    C42   A    
C38   H24   S    
C40   H14   S    
C18   C21   A    
C41   C42   A    
C35   C36   S    
C18   C26   A    
C8    C43   A    
C27   H32   S    
C4    C36   S    
C7    C8    A    
Cu2   O9    S    
Cu1   Cu2   S    
C33   H6    S    
C34   C40   A    
C31   H12   S    
C4    O9    A    
C38   C39   S    
C1    O1    A    
C17   C20   A    
C23   C43   A    
C13   N1    A    
C16   H31   S    
C39   H22   S    
C14   C24   A    
C12   C37   S    
Cu1   O12   S    
H18   O4    S    
C12   H13   S    
C15   N1    A    
C2    C44   A    
C25   O4    S    
C31   C33   S    
C14   N2    A    
C30   C32   S    
C2    H23   S    
C9    C10   A    
C23   C34   A    
C15   H30   S    
H16   O2    S    
C22   C28   A    
C14   O3    S    
C44   O6    S    
C7    H28   S    
C35   H9    S    
C30   H1    S    
Cu1   O8    S    
C11   H27   S    
C6    C11   A    
H15   O14   S    
Cu2   O11   S    
C25   C26   A    
C13   O2    S    
C8    H29   S    
C33   C37   S    
H17   O3    S    
C16   N2    A    
C32   H5    S    
C3    C9    A    
C24   C27   A    
Cu1   N1    S    
C32   C37   S    
C12   C35   S    
Cu1   O10   S    
C12   H11   S    
C40   C41   A    
C30   H3    S    
C20   C22   A    
C39   H20   S    
C42   C43   A    
C31   H4    S    
C32   H7    S    
Cu2   O7    S    
C33   H8    S    
C15   C17   A    
C38   H25   S    
C28   H2    S    
C35   H10   S    
C39   H21   S    
Cu1   O1    S    
C1    C10   S    
C3    C5    A    
C19   C34   S    
H26   O6    S    
H19   O5    S    
C6    C7    A    
C4    O8    A    
C23   C38   S    
C30   C36   S    
C17   C25   A    
C2    C3    A    
C19   O10   A    
C29   O13   A    
C5    C6    A    
Cu2   O13   S    
C26   O5    S    
C41   C44   A    
C13   C22   A    
C19   O11   A    
C10   C11   A    
C20   C21   A    
C16   C18   A    
C21   C24   A    
C29   C37   S    
C27   C28   A    
C31   C36   S    
C9    O14   S    
C29   O12   A    
