data_mof_unit_68068.cif
_audit_creation_date              2013-03-05T15:43:54-0500
_audit_creation_method            fapswitch 2.2
_symmetry_space_group_name_H-M    P1
_symmetry_Int_Tables_number       1
_space_group_crystal_system       triclinic
_cell_length_a                    7.414357
_cell_length_b                    13.741728
_cell_length_c                    16.714863
_cell_angle_alpha                 89.954586
_cell_angle_beta                  95.841816
_cell_angle_gamma                 90.148303
_cell_volume                      1694.16163908

loop_
_atom_site_label
_atom_site_type_symbol
_atom_site_description
_atom_site_fract_x
_atom_site_fract_y
_atom_site_fract_z
_atom_type_partial_charge
O1    O     O_R   0.525340 0.338340 0.164530 -0.524334
O2    O     O_R   0.474660 0.661660 0.835470 -0.589509
O3    O     O_R   0.974660 0.838340 0.835470 -0.584616
O4    O     O_R   0.025340 0.161660 0.164530 -0.571973
O5    O     O_R   0.253520 0.352000 0.336710 -0.517333
O6    O     O_R   0.746480 0.648000 0.663290 -0.507156
O7    O     O_R   0.246480 0.852000 0.663290 -0.526031
O8    O     O_R   0.753520 0.148000 0.336710 -0.503681
O9    O     O_R   0.083330 0.168380 0.337300 -0.562273
O10   O     O_R   0.916670 0.831620 0.662700 -0.534981
O11   O     O_R   0.416670 0.668380 0.662700 -0.545804
O12   O     O_R   0.583330 0.331620 0.337300 -0.549578
C1    C     C_R   0.431389 0.362950 0.367079 0.813239
C2    C     C_R   0.569031 0.636047 0.633563 0.825210
C3    C     C_R   0.068978 0.864323 0.633704 0.827879
C4    C     C_R   0.931084 0.136233 0.366542 0.826817
O13   O     O_R   0.195840 0.349670 0.165140 -0.516333
O14   O     O_R   0.804160 0.650330 0.834860 -0.514901
O15   O     O_R   0.304160 0.849670 0.834860 -0.527953
O16   O     O_R   0.695840 0.150330 0.165140 -0.495565
C5    C     C_R   0.358647 0.370411 0.138500 0.813562
C6    C     C_R   0.638517 0.627290 0.861426 0.817047
C7    C     C_R   0.139276 0.872425 0.861540 0.799197
C8    C     C_R   0.859102 0.129001 0.139047 0.886665
O17   O     O_3   0.387830 0.193120 0.250910 -0.293635
O18   O     O_3   0.612170 0.806880 0.749090 -0.297223
O19   O     O_3   0.112170 0.693120 0.749090 -0.289175
O20   O     O_3   0.887830 0.306880 0.250910 -0.283409
V1    V     V_3+5 0.113010 0.264540 0.250910 1.237172
V2    V     V_3+5 0.886990 0.735460 0.749090 1.219822
V3    V     V_3+5 0.386990 0.764540 0.749090 1.196527
V4    V     V_3+5 0.613010 0.235460 0.250910 1.263714
C9    C     C_R   0.008570 0.206306 0.541037 -0.029192
C10   C     C_R   0.998199 0.795856 0.459733 -0.014435
C11   C     C_R   0.496543 0.703972 0.459522 -0.014566
C12   C     C_R   0.518734 0.294033 0.541868 -0.041903
C13   C     C_R   0.039096 0.234854 0.623364 -0.150322
C14   C     C_R   0.997420 0.766940 0.377876 -0.132307
C15   C     C_R   0.496010 0.732780 0.377607 -0.131777
C16   C     C_R   0.557206 0.265441 0.623886 -0.129704
C17   C     C_R   0.058402 0.163418 0.683839 -0.025073
C18   C     C_R   0.997004 0.838267 0.317474 -0.052595
C19   C     C_R   0.494696 0.661383 0.317264 -0.056332
C20   C     C_R   0.595107 0.336856 0.683488 -0.020739
C21   C     C_R   0.050930 0.065585 0.661763 -0.017939
C22   C     C_R   0.986324 0.936272 0.338848 -0.010981
C23   C     C_R   0.483335 0.563404 0.338864 -0.010735
C24   C     C_R   0.579434 0.434619 0.661413 -0.004067
C25   C     C_R   0.027634 0.033906 0.580951 0.034595
C26   C     C_R   0.986083 0.967949 0.419560 0.047130
C27   C     C_R   0.485025 0.531784 0.419694 0.056686
C28   C     C_R   0.539532 0.466193 0.581024 0.033751
C29   C     C_R   0.999353 0.104227 0.518204 0.082148
C30   C     C_R   0.003895 0.897659 0.482491 0.092329
C31   C     C_R   0.502706 0.602233 0.482485 0.090037
C32   C     C_R   0.509211 0.395753 0.518605 0.069330
C33   C     C_R   0.031980 0.932216 0.564115 -0.080098
C34   C     C_R   0.969275 0.069141 0.436491 -0.063250
C35   C     C_R   0.471573 0.430416 0.436918 -0.060248
C36   C     C_R   0.533694 0.567932 0.564140 -0.077955
H1    H     H_    0.064424 0.013307 0.710295 0.059949
H2    H     H_    0.981193 0.988434 0.290199 0.066862
H3    H     H_    0.477643 0.511138 0.290344 0.075091
H4    H     H_    0.602868 0.487028 0.709388 0.070917
C37   C     C_2   0.132309 0.943501 0.929907 0.203504
C38   C     C_2   0.862483 0.054422 0.076103 0.145365
C39   C     C_2   0.359869 0.447527 0.077488 0.112708
C40   C     C_2   0.625886 0.553285 0.927686 0.170589
C41   C     C_2   0.974573 0.985190 0.951760 -0.099265
C42   C     C_2   0.970269 0.063292 0.014372 -0.059018
C43   C     C_2   0.453308 0.439146 0.011234 -0.080905
C44   C     C_2   0.463161 0.520691 0.952711 -0.072616
C45   C     C_2   0.020941 0.815158 0.231830 0.980188
O21   O     O_2   0.104161 0.871895 0.192624 -0.510720
O22   O     O_R   0.945465 0.731777 0.194382 -0.666719
H5    H     H_    0.967822 0.727330 0.135661 0.382061
C46   C     C_2   0.094243 0.186849 0.771399 0.968298
O23   O     O_2   0.161136 0.125199 0.818014 -0.588028
O24   O     O_R   0.051652 0.277868 0.801288 -0.699274
H6    H     H_    0.080923 0.283780 0.861443 0.366373
C47   C     C_2   0.661628 0.313850 0.769174 0.973777
O25   O     O_2   0.694500 0.380062 0.817277 -0.572268
O26   O     O_R   0.695645 0.218370 0.795199 -0.722848
H7    H     H_    0.744218 0.214141 0.854037 0.348382
C48   C     C_2   0.519371 0.684248 0.231547 0.984045
O27   O     O_2   0.598817 0.626344 0.192086 -0.512687
O28   O     O_R   0.449752 0.769007 0.194452 -0.664952
H8    H     H_    0.472235 0.773212 0.135724 0.385093
C49   C     C_2   0.010263 0.287478 0.482726 0.925620
O29   O     O_2   0.145974 0.337077 0.482459 -0.615891
O30   O     O_R   0.852445 0.319312 0.439777 -0.725855
H9    H     H_    0.871768 0.382491 0.410259 0.326337
C50   C     C_2   0.989310 0.714781 0.517460 0.915297
O31   O     O_2   0.855828 0.663199 0.512791 -0.620943
O32   O     O_R   0.142551 0.684451 0.564770 -0.722967
H10   H     H_    0.120826 0.621167 0.593720 0.337647
C51   C     C_2   0.489370 0.785130 0.517198 0.910673
O33   O     O_2   0.356357 0.836674 0.512997 -0.631240
O34   O     O_R   0.643671 0.815565 0.563881 -0.722185
H11   H     H_    0.622947 0.878836 0.592860 0.345192
C52   C     C_2   0.502067 0.213175 0.483796 0.902223
O35   O     O_2   0.637662 0.170337 0.469847 -0.568600
O36   O     O_R   0.335081 0.174080 0.456682 -0.770685
H12   H     H_    0.347513 0.110560 0.426804 0.321329
C53   C     C_2   0.058885 0.340385 0.645093 0.925661
O37   O     O_2   0.947232 0.399380 0.616587 -0.612976
O38   O     O_R   0.208918 0.372785 0.695261 -0.716225
H13   H     H_    0.206630 0.445598 0.704957 0.332698
C54   C     C_2   0.010874 0.661149 0.358189 0.895027
O39   O     O_2   0.130159 0.612033 0.393484 -0.624490
O40   O     O_R   0.879657 0.615426 0.305823 -0.696705
H14   H     H_    0.902366 0.543118 0.300130 0.337681
C55   C     C_2   0.511834 0.838501 0.357937 0.895793
O41   O     O_2   0.632574 0.887025 0.393067 -0.622737
O42   O     O_R   0.381418 0.884891 0.305837 -0.696770
H15   H     H_    0.405815 0.957119 0.300212 0.338258
C56   C     C_2   0.553433 0.160298 0.647256 0.903740
O43   O     O_2   0.648578 0.101027 0.617187 -0.604170
O44   O     O_R   0.442349 0.129362 0.704772 -0.712770
H16   H     H_    0.452959 0.056961 0.716086 0.344884
C57   C     C_2   0.056735 0.158843 0.999123 0.875659
O45   O     O_2   0.211453 0.162330 0.980515 -0.539831
O46   O     O_R   0.962028 0.245364 0.007858 -0.717337
H17   H     H_    0.038405 0.305254 0.000029 0.335530
C58   C     C_2   0.792581 0.956314 0.914637 0.958743
O47   O     O_2   0.697357 0.014628 0.874642 -0.559371
O48   O     O_R   0.728651 0.862790 0.929239 -0.676410
H18   H     H_    0.603314 0.850270 0.902056 0.359274
C59   C     C_2   0.283483 0.556421 0.918352 0.980905
O49   O     O_2   0.183694 0.503561 0.874774 -0.536216
O50   O     O_R   0.229275 0.650459 0.936921 -0.683544
H19   H     H_    0.102287 0.666112 0.912816 0.350272
C60   C     C_2   0.500697 0.341629 0.981977 0.936535
O51   O     O_2   0.605246 0.288518 0.022546 -0.521171
O52   O     O_R   0.420804 0.310331 0.907255 -0.707375
H20   H     H_    0.451453 0.240349 0.895563 0.377992
Br1   Br    Br    0.748162 0.934846 0.101927 -0.470426
Br2   Br    Br    0.354678 0.965353 0.994559 -0.378149
Br3   Br    Br    0.848158 0.502240 0.978917 -0.421108
Br4   Br    Br    0.235847 0.563714 0.104551 -0.473899

loop_
_geom_bond_atom_site_label_1
_geom_bond_atom_site_label_2
_geom_bond_distance
_ccdc_geom_bond_type
O28   H8    1.013854 S    
O1    C5    1.343161 A    
C50   O31   1.211908 D    
O32   H10   1.015293 S    
O13   V1    1.993445 S    
C45   O21   1.223553 D    
O3    C7    1.337176 A    
O40   H14   1.014392 S    
C10   C50   1.479002 S    
O15   V3    1.996640 S    
C51   O33   1.211888 D    
O46   H17   1.013719 S    
C38   C42   1.373065 D    
C48   O27   1.223720 D    
C53   O38   1.395342 S    
C52   O35   1.209388 D    
C22   H2    1.081377 S    
O26   H7    1.014010 S    
O20   V1    1.769461 S    
O9    C4    1.348194 A    
C14   C18   1.406344 A    
O10   C3    1.349269 A    
C54   O40   1.389887 S    
C23   H3    1.081271 S    
O4    C8    1.338874 A    
O11   C2    1.351173 A    
C25   C29   1.425643 A    
C24   H4    1.078795 S    
O42   H15   1.014423 S    
C25   C33   1.426768 A    
C18   C22   1.398130 A    
C50   O32   1.381661 S    
C12   C16   1.426623 A    
C28   C36   1.425937 A    
C47   O26   1.397428 S    
O16   C8    1.360482 A    
C15   C55   1.496213 S    
O2    C6    1.335146 A    
O38   H13   1.014204 S    
O14   V2    1.993444 S    
C49   O30   1.380956 S    
C16   C20   1.406304 A    
O5    C1    1.371983 A    
O4    V1    2.076845 S    
C8    C38   1.471415 S    
O17   V4    1.766617 S    
O7    C3    1.368865 A    
C16   C56   1.497357 S    
C41   C58   1.480003 S    
O18   V3    1.766617 S    
C52   O36   1.381884 S    
C10   C14   1.424510 A    
C31   C36   1.439969 A    
C5    C39   1.470767 S    
O19   V2    1.769461 S    
C3    C33   1.494426 S    
C51   O34   1.381642 S    
C47   O25   1.222230 D    
O5    V1    2.068486 S    
C48   O28   1.394385 S    
C9    C29   1.453635 A    
O7    V3    2.070298 S    
C11   C31   1.449099 A    
C26   C34   1.427565 A    
O52   H20   1.012488 S    
C20   C47   1.500257 S    
O30   H9    1.015273 S    
O15   C7    1.379986 A    
C15   C19   1.406956 A    
C27   C31   1.424379 A    
C46   O23   1.221987 D    
O1    V4    2.077577 S    
C9    C13   1.426791 A    
O2    V3    2.077575 S    
O8    V4    2.070297 S    
O3    V2    2.076842 S    
C11   C15   1.424605 A    
O22   H5    1.013833 S    
C13   C53   1.498440 S    
C12   C32   1.450555 A    
C9    C49   1.481572 S    
O6    C2    1.367771 A    
O10   V2    1.984898 S    
O34   H11   1.015225 S    
C21   C25   1.413135 A    
C40   C44   1.389547 D    
C44   C59   1.480820 S    
C46   O24   1.396010 S    
C4    C34   1.493137 S    
C14   C54   1.496604 S    
C39   Br4   1.921660 S    
C6    C40   1.512752 S    
C57   O45   1.219534 D    
C37   Br2   1.900394 S    
O6    V2    2.068485 S    
C10   C30   1.449423 A    
C19   C48   1.495760 S    
C60   O51   1.220039 D    
C27   C35   1.427480 A    
C45   O22   1.394387 S    
O50   H19   1.009341 S    
C60   O52   1.394531 S    
C55   O41   1.217106 D    
O16   V4    1.996642 S    
C18   C45   1.494772 S    
O14   C6    1.383662 A    
C43   C60   1.482165 S    
C23   C27   1.417744 A    
C29   C34   1.444352 A    
O48   H18   1.006463 S    
C1    C35   1.496823 S    
O9    V1    1.984896 S    
C2    C36   1.493272 S    
C53   O37   1.221526 D    
C22   C26   1.418086 A    
C32   C35   1.446073 A    
C7    C37   1.508821 S    
C56   O44   1.393561 S    
C59   O49   1.222290 D    
C43   C44   1.493421 S    
C26   C30   1.423946 A    
C56   O43   1.220419 D    
C17   C46   1.495801 S    
C42   C57   1.492779 S    
C58   O47   1.222089 D    
C38   Br1   1.915975 S    
C37   C41   1.385691 D    
C21   H1    1.080306 S    
C39   C43   1.369818 D    
C13   C17   1.405569 A    
C41   C42   1.502314 S    
O13   C5    1.357968 A    
C57   O46   1.397665 S    
O11   V3    1.987179 S    
O24   H6    1.010108 S    
C28   C32   1.424349 A    
C24   C28   1.414256 A    
O12   C1    1.348780 A    
O8    C4    1.369436 A    
O44   H16   1.014335 S    
C54   O39   1.217390 D    
O36   H12   1.015028 S    
C58   O48   1.398508 S    
C17   C21   1.393863 A    
C12   C52   1.472648 S    
C40   Br3   1.912847 S    
C59   O50   1.398745 S    
C49   O29   1.214241 D    
C11   C51   1.479347 S    
C19   C23   1.398246 A    
O12   V4    1.987177 S    
C20   C24   1.394894 A    
C55   O42   1.389484 S    
C30   C33   1.439774 A    
