data_mof_unit_52861.cif
_audit_creation_date              2012-12-10T19:04:13-0500
_audit_creation_method            fapswitch 2.2
_symmetry_space_group_name_H-M    P1
_symmetry_Int_Tables_number       1
_space_group_crystal_system       triclinic
_cell_length_a                    10.639355
_cell_length_b                    10.846584
_cell_length_c                    9.589385
_cell_angle_alpha                 90.209789
_cell_angle_beta                  90.695155
_cell_angle_gamma                 90.512681
_cell_volume                      1106.48772457

loop_
_atom_site_label
_atom_site_type_symbol
_atom_type_description
_atom_site_fract_x
_atom_site_fract_y
_atom_site_fract_z
_atom_type_partial_charge
C1    C     C_R   0.496511 0.262778 0.499776 0.811402
C2    C     C_3   0.957462 0.488471 0.366992 -0.136171
C3    C     C_3   0.041034 0.392709 0.441589 -0.167417
C4    C     C_3   0.122855 0.498853 0.498150 0.033630
C5    C     C_R   0.497330 0.064960 0.623440 0.034910
C6    C     C_R   0.482553 0.130211 0.499942 -0.101056
C7    C     C_R   0.449716 0.065687 0.377648 -0.279295
C8    C     C_R   0.449545 0.936412 0.375904 0.141387
C9    C     C_R   0.484576 0.871342 0.498479 -0.111823
C10   C     C_R   0.499873 0.938077 0.622622 0.072569
C11   C     C_3   0.600722 0.937757 0.733889 0.309000
C12   C     C_R   0.259538 0.499608 0.499306 0.774810
C13   C     C_3   0.595276 0.078123 0.735309 -0.468246
C14   C     C_R   0.608734 0.513019 0.076004 0.229824
C15   C     C_R   0.392565 0.479227 0.072528 -0.082425
C16   C     C_R   0.392264 0.480583 0.924374 -0.081829
C17   C     C_R   0.611004 0.505298 0.929159 0.251978
C18   C     C_3   0.710435 0.604730 0.927057 -0.085098
C19   C     C_3   0.694408 0.621521 0.083015 -0.468457
C20   C     C_R   0.496943 0.737709 0.499708 0.813948
C21   C     C_R   0.740772 0.499053 0.500282 0.770132
C22   C     C_3   0.043923 0.507957 0.630150 -0.151772
C23   C     C_3   0.959551 0.401800 0.573518 -0.179174
C24   C     C_3   0.878123 0.497902 0.499404 0.024540
C25   C     C_3   0.960462 0.603964 0.555641 -0.179621
C26   C     C_3   0.041741 0.594673 0.423529 -0.160394
Cu1   Cu    Cu3+1 0.499990 0.499980 0.640670 0.941202
Cu2   Cu    Cu3+1 0.500010 0.500020 0.359330 0.947641
H1    H     H_    0.923131 0.322965 0.635042 0.126355
H2    H     H_    0.556233 0.118131 0.832354 0.173194
H3    H     H_    0.682161 0.124540 0.697804 0.190425
H4    H     H_    0.304984 0.463229 0.125577 0.142866
H5    H     H_    0.304250 0.466132 0.869352 0.141343
H6    H     H_    0.683225 0.684889 0.863600 0.214103
H7    H     H_    0.779578 0.605417 0.147917 0.198749
H8    H     H_    0.643747 0.707459 0.110019 0.195273
H9    H     H_    0.082411 0.515891 0.737968 0.136638
H10   H     H_    0.924953 0.690330 0.602778 0.133707
H11   H     H_    0.078335 0.673374 0.361927 0.130164
H12   H     H_    0.921513 0.477878 0.258624 0.124249
H13   H     H_    0.077211 0.306498 0.394670 0.121964
H14   H     H_    0.428725 0.114833 0.282085 0.161441
N1    N     N_R   0.500800 0.500930 0.147930 -0.183043
N2    N     N_R   0.500800 0.500890 0.852020 -0.193834
O1    O     O_R   0.500000 0.319640 0.618810 -0.576361
O2    O     O_R   0.500010 0.319680 0.381230 -0.586806
O3    O     O_R   0.316850 0.499950 0.618770 -0.596638
O4    O     O_R   0.316860 0.499990 0.381190 -0.592619
O5    O     O_R   0.499990 0.680320 0.618770 -0.575942
O6    O     O_R   0.500000 0.680360 0.381190 -0.539839
O7    O     O_R   0.683140 0.500010 0.618810 -0.592594
O8    O     O_R   0.683150 0.500050 0.381230 -0.587006
N3    N     N_3   0.721627 0.891804 0.685068 -0.597477
H15   H     H_    0.713481 0.797467 0.664677 0.218893
H16   H     H_    0.788020 0.902693 0.765570 0.211114
C27   C     C_3   0.841444 0.555209 0.895007 -0.893667
H17   H     H_    0.910028 0.632849 0.891734 0.234929
H18   H     H_    0.873562 0.487421 0.974215 0.226992
H19   H     H_    0.840504 0.506916 0.794537 0.270584
N4    N     N_3   0.417536 0.873028 0.248795 -0.561887
H20   H     H_    0.327053 0.899451 0.218291 0.205840
H21   H     H_    0.479867 0.902145 0.171909 0.208914
N5    N     N_3   0.559787 0.880277 0.864036 -0.603679
H22   H     H_    0.622057 0.907729 0.943701 0.199298
H23   H     H_    0.471048 0.913091 0.890875 0.210166

loop_
_geom_bond_atom_site_label_1
_geom_bond_atom_site_label_2
_ccdc_geom_bond_type
C4    C26   S    
C23   C24   S    
N5    H23   S    
C25   H10   S    
C6    C7    A    
C16   H5    S    
C4    C12   S    
C4    C22   S    
C9    C10   A    
C16   N2    A    
C9    C20   S    
C5    C13   S    
C11   N3    S    
C27   H19   S    
C18   C27   S    
C12   O4    A    
C1    O1    A    
Cu1   O1    S    
N3    H16   S    
C17   C18   S    
C17   N2    A    
C15   N1    A    
C15   H4    S    
C2    C26   S    
C19   H7    S    
N3    H15   S    
C8    N4    S    
Cu2   O8    S    
C14   C17   A    
Cu2   O2    S    
C20   O5    A    
N4    H20   S    
C12   O3    A    
Cu1   N2    S    
C23   H1    S    
C5    C10   A    
C27   H18   S    
C2    C3    S    
C11   N5    S    
C19   H8    S    
C18   H6    S    
C2    C24   S    
C5    C6    A    
C26   H11   S    
C1    O2    A    
C21   C24   S    
C21   O7    A    
C7    C8    A    
C10   C11   S    
Cu1   O5    S    
C1    C6    S    
C2    H12   S    
C13   H2    S    
C11   C13   S    
C24   C25   S    
C3    H13   S    
N4    H21   S    
C18   C19   S    
C7    H14   S    
Cu1   O3    S    
Cu1   Cu2   S    
C27   H17   S    
C3    C23   S    
C22   C23   S    
C14   N1    A    
C20   O6    A    
Cu2   N1    S    
C25   C26   S    
N5    H22   S    
C22   H9    S    
Cu2   O6    S    
C14   C19   S    
C13   H3    S    
C21   O8    A    
Cu2   O4    S    
C3    C4    S    
C15   C16   A    
Cu1   O7    S    
C8    C9    A    
C22   C25   S    
