data_mof_unit_61305.cif
_audit_creation_date              2012-12-10T18:10:00-0500
_audit_creation_method            fapswitch 2.2
_symmetry_space_group_name_H-M    P1
_symmetry_Int_Tables_number       1
_space_group_crystal_system       triclinic
_cell_length_a                    18.379874
_cell_length_b                    18.380336
_cell_length_c                    32.0184
_cell_angle_alpha                 90.002496
_cell_angle_beta                  89.997157
_cell_angle_gamma                 90.041651
_cell_volume                      10816.7174706

loop_
_atom_site_label
_atom_site_type_symbol
_atom_type_description
_atom_site_fract_x
_atom_site_fract_y
_atom_site_fract_z
_atom_type_partial_charge
C1    C     C_R   0.639862 0.500041 0.000001 0.837139
C2    C     C_R   0.360138 0.499998 1.000000 0.842316
C3    C     C_R   0.139862 0.000041 0.500001 0.837545
C4    C     C_R   0.860138 0.999998 0.499999 0.841968
C5    C     C_3   0.480855 0.567018 0.735963 -0.346139
C6    C     C_3   0.481609 0.567283 0.264044 -0.336442
C7    C     C_3   0.981476 0.067156 0.235959 -0.346183
C8    C     C_3   0.983933 0.067881 0.764044 -0.345893
C9    C     C_1   0.500116 0.499828 0.837363 0.186396
C10   C     C_1   0.500186 0.499891 0.162640 0.186031
C11   C     C_1   0.000068 0.999805 0.337363 0.185712
C12   C     C_1   0.000155 0.999874 0.662637 0.185048
C13   C     C_1   0.499924 0.500283 0.662640 0.186904
C14   C     C_1   0.499967 0.500349 0.337358 0.184732
C15   C     C_1   0.999901 0.000240 0.162640 0.186542
C16   C     C_1   0.999960 0.000331 0.837360 0.186430
C17   C     C_1   0.717329 0.500111 0.000002 -0.127152
C18   C     C_1   0.282672 0.499996 0.999998 -0.121365
C19   C     C_1   0.217329 0.000111 0.500002 -0.126512
C20   C     C_1   0.782672 0.999996 0.499998 -0.121499
C21   C     C_1   0.782573 0.500094 0.000002 -0.129897
C22   C     C_1   0.217427 0.499998 0.999998 -0.125016
C23   C     C_1   0.282573 0.000094 0.500002 -0.129035
C24   C     C_1   0.717427 0.999998 0.499998 -0.124775
C25   C     C_R   0.499979 0.360015 0.500000 0.844031
C26   C     C_R   0.999979 0.860015 0.000000 0.843878
C27   C     C_R   0.499994 0.499913 0.580194 0.801923
C28   C     C_R   0.500001 0.499929 0.419805 0.802481
C29   C     C_R   0.999993 0.999907 0.080194 0.802006
C30   C     C_R   0.000000 0.999922 0.919806 0.801972
C31   C     C_R   0.500021 0.639716 0.500000 0.826887
C32   C     C_R   0.000021 0.139716 1.000000 0.826895
C33   C     C_R   0.999984 0.639918 0.000001 0.834075
C34   C     C_R   0.499984 0.139918 0.500001 0.833781
C35   C     C_R   0.860041 0.500035 0.000001 0.831213
C36   C     C_R   0.139959 0.500002 0.999999 0.832224
C37   C     C_R   0.360041 0.000035 0.500001 0.830938
C38   C     C_R   0.639959 0.000002 0.499999 0.831761
C39   C     C_R   0.500010 0.499996 0.919806 0.806660
C40   C     C_R   0.500037 0.500001 0.080195 0.806972
C41   C     C_R   0.000003 0.999995 0.419806 0.806955
C42   C     C_R   0.000029 0.000000 0.580194 0.806933
C43   C     C_R   0.000017 0.360025 0.999999 0.829202
C44   C     C_R   0.500016 0.860025 0.499999 0.828740
C45   C     C_1   0.499943 0.282580 0.500001 -0.119028
C46   C     C_1   0.999942 0.782580 0.000002 -0.119646
C47   C     C_1   0.999953 0.717354 0.000002 -0.123023
C48   C     C_1   0.499953 0.217354 0.500002 -0.122186
C49   C     C_1   0.500058 0.717233 0.499999 -0.137154
C50   C     C_1   0.000058 0.217233 0.999998 -0.137320
C51   C     C_1   0.000048 0.282507 0.999998 -0.138475
C52   C     C_1   0.500048 0.782507 0.499998 -0.138128
C53   C     C_3   0.566229 0.483554 0.736128 0.368397
C54   C     C_3   0.565981 0.482840 0.263864 0.370875
C55   C     C_3   0.452699 0.450935 0.736156 0.372791
C56   C     C_3   0.452064 0.451515 0.263843 0.334789
C57   C     C_3   0.066012 0.982842 0.236132 0.367517
C58   C     C_3   0.065333 0.980557 0.763865 0.371116
C59   C     C_3   0.952162 0.951359 0.236156 0.372661
C60   C     C_3   0.950423 0.953205 0.763843 0.368807
C61   C     C_3   0.547424 0.549243 0.763854 0.343932
C62   C     C_3   0.547949 0.548735 0.236157 0.372460
C63   C     C_3   0.433894 0.516608 0.763876 0.376420
C64   C     C_3   0.434016 0.517436 0.236123 0.337902
C65   C     C_3   0.047860 0.048720 0.263854 0.338937
C66   C     C_3   0.049593 0.047038 0.736154 0.375194
C67   C     C_3   0.934010 0.017221 0.263872 0.376646
C68   C     C_3   0.934669 0.019699 0.736122 0.341844
C69   C     C_1   0.500066 0.499932 0.874999 -0.080709
C70   C     C_1   0.500132 0.499961 0.125003 -0.080144
C71   C     C_1   0.000037 0.999924 0.374999 -0.080496
C72   C     C_1   0.000107 0.999955 0.625001 -0.081254
C73   C     C_1   0.499963 0.500118 0.625002 -0.080426
C74   C     C_1   0.499994 0.500167 0.374995 -0.079995
C75   C     C_1   0.999955 0.000092 0.125002 -0.080343
C76   C     C_1   0.999990 0.000151 0.874997 -0.080328
C77   C     C_3   0.519245 0.433150 0.764047 -0.340456
C78   C     C_3   0.518441 0.432998 0.235950 -0.336160
C79   C     C_3   0.018523 0.932915 0.264051 -0.339763
C80   C     C_3   0.016097 0.932383 0.735946 -0.342352
C81   C     C_3   0.500127 0.499873 0.791555 -0.173939
C82   C     C_3   0.500125 0.499956 0.208450 -0.167680
C83   C     C_3   0.000069 0.999831 0.291554 -0.173202
C84   C     C_3   0.000111 0.999929 0.708446 -0.172251
C85   C     C_3   0.499957 0.500283 0.708449 -0.177721
C86   C     C_3   0.499952 0.500327 0.291545 -0.168375
C87   C     C_3   0.999916 0.000229 0.208449 -0.177026
C88   C     C_3   0.999945 0.000329 0.791550 -0.176844
Cu1   Cu    Cu3+1 0.500000 0.427500 0.000000 1.043688
Cu2   Cu    Cu3+1 1.000000 0.927500 0.500000 1.043101
Cu3   Cu    Cu3+1 0.500000 0.572500 0.000000 1.081411
Cu4   Cu    Cu3+1 1.000000 0.072500 0.500000 1.081787
Cu5   Cu    Cu3+1 0.572520 0.499840 0.500000 1.071104
Cu6   Cu    Cu3+1 0.427480 0.499840 0.500000 1.062044
Cu7   Cu    Cu3+1 0.072520 0.999840 0.000000 1.071245
Cu8   Cu    Cu3+1 0.927480 0.999840 0.000000 1.061596
Cu9   Cu    Cu3+1 1.000000 0.500000 0.958560 1.060114
Cu10  Cu    Cu3+1 1.000000 0.500000 0.041440 1.064122
Cu11  Cu    Cu3+1 0.500000 1.000000 0.458560 1.062937
Cu12  Cu    Cu3+1 0.500000 1.000000 0.541440 1.065627
H1    H     H_    0.465129 0.621797 0.724512 0.230931
H2    H     H_    0.466554 0.622238 0.275519 0.230121
H3    H     H_    0.966301 0.122088 0.224504 0.230695
H4    H     H_    0.970776 0.123331 0.775503 0.231029
H5    H     H_    0.534948 0.378364 0.775497 0.232417
H6    H     H_    0.533543 0.378056 0.224476 0.231187
H7    H     H_    0.033676 0.877977 0.275506 0.232283
H8    H     H_    0.029282 0.876939 0.724487 0.230178
O1    O     O_R   0.605840 0.438770 0.000000 -0.579311
O2    O     O_R   0.394160 0.438770 0.000000 -0.575326
O3    O     O_R   0.105840 0.938770 0.500000 -0.579382
O4    O     O_R   0.894160 0.938770 0.500000 -0.575486
O5    O     O_R   1.000000 0.394210 0.965010 -0.575221
O6    O     O_R   0.000000 0.394210 0.034990 -0.575003
O7    O     O_R   0.500000 0.894210 0.465010 -0.575159
O8    O     O_R   0.500000 0.894210 0.534990 -0.574744
O9    O     O_R   0.605760 0.561230 0.000000 -0.568034
O10   O     O_R   0.394240 0.561230 0.000000 -0.569258
O11   O     O_R   0.105760 0.061230 0.500000 -0.567700
O12   O     O_R   0.894240 0.061230 0.500000 -0.569286
O13   O     O_R   0.500000 0.438780 0.939540 -0.576711
O14   O     O_R   0.500000 0.438780 0.060460 -0.577077
O15   O     O_R   1.000000 0.938780 0.439540 -0.576783
O16   O     O_R   0.000000 0.938780 0.560460 -0.577377
O17   O     O_R   0.500000 0.561230 0.939540 -0.556877
O18   O     O_R   0.500000 0.561230 0.060460 -0.556887
O19   O     O_R   0.000000 0.061230 0.439540 -0.556657
O20   O     O_R   0.000000 0.061230 0.560460 -0.556907
O21   O     O_R   0.561200 0.394070 0.500000 -0.570357
O22   O     O_R   0.438800 0.394070 0.500000 -0.568932
O23   O     O_R   0.061200 0.894070 0.000000 -0.570141
O24   O     O_R   0.938800 0.894070 0.000000 -0.569351
O25   O     O_R   0.561230 0.499860 0.560460 -0.560755
O26   O     O_R   0.561230 0.499860 0.439540 -0.561885
O27   O     O_R   0.438770 0.499860 0.560460 -0.567503
O28   O     O_R   0.438770 0.499860 0.439540 -0.565790
O29   O     O_R   0.061230 0.999860 0.060460 -0.560631
O30   O     O_R   0.061230 0.999860 0.939540 -0.561959
O31   O     O_R   0.938770 0.999860 0.060460 -0.567351
O32   O     O_R   0.938770 0.999860 0.939540 -0.565962
O33   O     O_R   0.561270 0.605640 0.500000 -0.573601
O34   O     O_R   0.438730 0.605640 0.500000 -0.577969
O35   O     O_R   0.061270 0.105640 0.000000 -0.573597
O36   O     O_R   0.938730 0.105640 0.000000 -0.577859
O37   O     O_R   0.000000 0.605780 0.965000 -0.570036
O38   O     O_R   1.000000 0.605780 0.035000 -0.568513
O39   O     O_R   0.500000 0.105780 0.465000 -0.569107
O40   O     O_R   0.500000 0.105780 0.535000 -0.568729
O41   O     O_R   0.894200 0.500000 0.965010 -0.572044
O42   O     O_R   0.894200 0.500000 0.034990 -0.572122
O43   O     O_R   0.105800 0.500000 0.965010 -0.571242
O44   O     O_R   0.105800 0.500000 0.034990 -0.569215
O45   O     O_R   0.394200 1.000000 0.465010 -0.571293
O46   O     O_R   0.394200 0.000000 0.534990 -0.572156
O47   O     O_R   0.605800 1.000000 0.465010 -0.571164
O48   O     O_R   0.605800 0.000000 0.534990 -0.568998
S1    S     S_3+6 0.609302 0.616013 0.783090 0.095947
O49   O     O_2   0.568188 0.671156 0.808415 -0.209842
O50   O     O_2   0.665256 0.580130 0.810429 -0.246190
O51   O     O_3   0.650239 0.658211 0.742816 -0.467926
H9    H     H_    0.699078 0.635792 0.740697 0.394187
S2    S     S_3+6 0.611062 0.614580 0.217243 0.086883
O52   O     O_2   0.667648 0.577494 0.190916 -0.231157
O53   O     O_2   0.571158 0.669783 0.191313 -0.246419
O54   O     O_3   0.651170 0.656222 0.257923 -0.466446
H10   H     H_    0.686474 0.690438 0.245228 0.385073
S3    S     S_3+6 0.345821 0.539966 0.782833 0.085042
O55   O     O_2   0.316760 0.478796 0.809135 -0.233052
O56   O     O_2   0.351253 0.607863 0.808791 -0.250488
O57   O     O_3   0.289942 0.554699 0.742161 -0.464500
H11   H     H_    0.242074 0.565746 0.754869 0.389062
S4    S     S_3+6 0.346695 0.542603 0.216734 0.075345
O58   O     O_2   0.353099 0.612765 0.192948 -0.200538
O59   O     O_2   0.318826 0.484398 0.187874 -0.287523
O60   O     O_3   0.288704 0.554185 0.256826 -0.459768
H12   H     H_    0.258972 0.509262 0.257727 0.382004
S5    S     S_3+6 0.110388 0.114879 0.283090 0.102189
O61   O     O_2   0.069811 0.170437 0.308400 -0.208241
O62   O     O_2   0.165974 0.078459 0.310442 -0.241733
O63   O     O_3   0.151757 0.156652 0.242817 -0.459651
H13   H     H_    0.200251 0.133526 0.240595 0.399543
S6    S     S_3+6 0.114947 0.110659 0.717237 0.087053
O64   O     O_2   0.170269 0.071622 0.690955 -0.231003
O65   O     O_2   0.076989 0.167155 0.691262 -0.247235
O66   O     O_3   0.156397 0.150969 0.757915 -0.466156
H14   H     H_    0.192714 0.184106 0.745218 0.384903
S7    S     S_3+6 0.846173 0.041458 0.282826 0.085374
O67   O     O_2   0.816509 0.980590 0.309136 -0.232940
O68   O     O_2   0.852275 0.109310 0.308773 -0.250104
O69   O     O_3   0.790443 0.056724 0.242151 -0.464181
H15   H     H_    0.742681 0.068228 0.254856 0.389585
S8    S     S_3+6 0.848089 0.047513 0.716833 0.098201
O70   O     O_2   0.856959 0.115811 0.691565 -0.210046
O71   O     O_2   0.816968 0.988820 0.689428 -0.246344
O72   O     O_3   0.791647 0.064092 0.757072 -0.459219
H16   H     H_    0.760781 0.020113 0.759508 0.396960
S9    S     S_3+6 0.654091 0.459834 0.716993 0.067916
O73   O     O_2   0.649146 0.388941 0.693789 -0.231580
O74   O     O_2   0.680799 0.518291 0.687981 -0.269790
O75   O     O_3   0.711826 0.451041 0.757376 -0.474822
H17   H     H_    0.759552 0.440096 0.744465 0.389995
S10   S     S_3+6 0.653775 0.458421 0.282793 0.089749
O76   O     O_2   0.683582 0.519230 0.309096 -0.223222
O77   O     O_2   0.647545 0.390583 0.308740 -0.249029
O78   O     O_3   0.709444 0.443036 0.242101 -0.467721
H18   H     H_    0.757188 0.431419 0.254792 0.390209
S11   S     S_3+6 0.390369 0.384351 0.717239 0.088618
O79   O     O_2   0.333333 0.420773 0.690933 -0.223016
O80   O     O_2   0.430918 0.329642 0.691288 -0.253371
O81   O     O_3   0.350778 0.342212 0.757917 -0.464623
H19   H     H_    0.315908 0.307555 0.745220 0.384709
S12   S     S_3+6 0.389799 0.385193 0.283175 0.080411
O82   O     O_2   0.431074 0.328057 0.306901 -0.206743
O83   O     O_2   0.336182 0.420931 0.312078 -0.274681
O84   O     O_3   0.345813 0.345714 0.243051 -0.457679
H20   H     H_    0.297107 0.368685 0.242409 0.384435
S13   S     S_3+6 0.153630 0.958230 0.216998 0.068432
O85   O     O_2   0.147987 0.887329 0.193855 -0.231722
O86   O     O_2   0.180878 0.016352 0.187930 -0.268427
O87   O     O_3   0.211307 0.948985 0.257375 -0.473935
H21   H     H_    0.258919 0.937568 0.244463 0.390907
S14   S     S_3+6 0.152231 0.953118 0.782792 0.090188
O88   O     O_2   0.184155 0.012889 0.809060 -0.222450
O89   O     O_2   0.143651 0.885574 0.808773 -0.249749
O90   O     O_3   0.207307 0.935738 0.742099 -0.467570
H22   H     H_    0.254601 0.922408 0.754788 0.390364
S15   S     S_3+6 0.889173 0.885398 0.217238 0.088667
O91   O     O_2   0.832517 0.922385 0.190921 -0.222998
O92   O     O_2   0.929178 0.830275 0.191299 -0.253211
O93   O     O_3   0.849144 0.843674 0.257916 -0.464529
H23   H     H_    0.813913 0.809384 0.245219 0.384847
S16   S     S_3+6 0.885495 0.889324 0.782959 0.066483
O94   O     O_2   0.924600 0.829832 0.806002 -0.243119
O95   O     O_2   0.833750 0.927030 0.812122 -0.264819
O96   O     O_3   0.839255 0.853522 0.742597 -0.471704
H24   H     H_    0.803282 0.820257 0.755504 0.395514

loop_
_geom_bond_atom_site_label_1
_geom_bond_atom_site_label_2
_ccdc_geom_bond_type
C15   C75   T    
C67   C83   S    
O69   H15   S    
C39   O17   A    
Cu3   O18   S    
C2    C18   S    
Cu2   O15   S    
C57   C79   S    
C53   C77   S    
Cu7   Cu8   S    
Cu12  O8    S    
Cu2   O4    S    
C80   C84   S    
C25   O21   A    
Cu8   O31   S    
Cu9   Cu10  S    
C60   C88   S    
Cu5   O33   S    
S3    O56   D    
O54   H10   S    
Cu10  O44   S    
O78   H18   S    
O63   H13   S    
S13   O87   S    
Cu7   O35   S    
S8    O71   D    
C12   C84   S    
Cu5   Cu6   S    
C40   C70   S    
C63   C81   S    
C28   O26   A    
C14   C74   T    
Cu4   O11   S    
C9    C69   T    
C56   S12   S    
Cu5   O25   S    
C5    C85   S    
C43   O6    A    
Cu11  O7    S    
C55   C77   S    
C42   O16   A    
C11   C71   T    
C65   C83   S    
Cu8   O36   S    
O57   H11   S    
C68   S8    S    
Cu1   O1    S    
C56   C78   S    
C5    C63   S    
C6    C64   S    
S9    O74   D    
C41   O19   A    
S6    O64   D    
S7    O69   S    
C59   C67   S    
C43   C51   S    
C34   O40   A    
C58   C66   S    
S1    O49   D    
C7    C87   S    
O66   H14   S    
O60   H12   S    
C44   O7    A    
C3    O3    A    
O75   H17   S    
C32   O35   A    
S10   O78   S    
C55   C63   S    
S11   O81   S    
Cu6   O28   S    
O96   H24   S    
Cu3   O9    S    
C3    C19   S    
C8    C66   S    
C35   O42   A    
C38   O48   A    
Cu1   Cu3   S    
C59   S15   S    
C30   O30   A    
S4    O60   S    
C58   C80   S    
Cu8   O24   S    
C1    O1    A    
Cu12  O48   S    
C26   O23   A    
C16   C76   T    
C39   C69   S    
C66   S6    S    
C28   C74   S    
S1    O50   D    
C7    H3    S    
Cu7   O23   S    
C63   S3    S    
S9    O73   D    
C53   C61   S    
C38   O47   A    
C31   C49   S    
Cu5   O21   S    
C25   O22   A    
Cu4   O20   S    
S16   O95   D    
O87   H21   S    
C67   S7    S    
Cu6   O27   S    
S3    O57   S    
S2    O53   D    
C2    O10   A    
Cu2   Cu4   S    
C29   O31   A    
C5    H1    S    
Cu7   O29   S    
C30   O32   A    
S10   O76   D    
C58   S14   S    
C79   H7    S    
S11   O79   D    
C68   C84   S    
S8    O72   S    
C37   O45   A    
C3    O11   A    
C14   C86   S    
Cu5   O26   S    
C59   C79   S    
S3    O55   D    
C54   C86   S    
C36   O44   A    
C54   C62   S    
S14   O90   S    
C11   C83   S    
S13   O85   D    
C23   C37   S    
C66   C84   S    
Cu1   O2    S    
C10   C82   S    
S16   O96   S    
C17   C21   T    
C57   C87   S    
Cu11  O47   S    
C8    C88   S    
S6    O66   S    
Cu6   O34   S    
C55   C85   S    
S9    O75   S    
C19   C23   T    
O84   H20   S    
C56   C86   S    
C61   S1    S    
C7    C65   S    
S2    O54   S    
C30   C76   S    
C34   O39   A    
C78   C82   S    
C24   C38   S    
S15   O91   D    
Cu1   O13   S    
S12   O84   S    
C77   C81   S    
S5    O63   S    
C40   O18   A    
C42   C72   S    
C50   C51   T    
Cu9   O43   S    
Cu3   O10   S    
C5    C61   S    
C1    O9    A    
S14   O89   D    
C8    H4    S    
C64   C82   S    
S10   O77   D    
S5    O61   D    
C29   C75   S    
C10   C70   T    
C31   O33   A    
S15   O92   D    
C13   C73   T    
C8    C68   S    
S1    O51   S    
C40   O14   A    
C33   C47   S    
Cu9   O37   S    
C34   C48   S    
Cu9   O5    S    
S7    O68   D    
Cu6   O22   S    
Cu4   O19   S    
C25   C45   S    
C26   O24   A    
S4    O58   D    
C15   C87   S    
S2    O52   D    
Cu10  O42   S    
C45   C48   T    
Cu12  O46   S    
Cu11  O39   S    
C46   C47   T    
C60   C80   S    
Cu7   O30   S    
Cu2   O16   S    
Cu3   O17   S    
S6    O65   D    
O90   H22   S    
C28   O28   A    
Cu2   O3    S    
C37   O46   A    
C22   C36   S    
C49   C52   T    
S12   O83   D    
C58   C88   S    
C44   C52   S    
Cu8   O32   S    
C36   O43   A    
C62   C82   S    
C42   O20   A    
C65   S5    S    
S13   O86   D    
C29   O29   A    
C80   H8    S    
C1    C17   S    
C6    C86   S    
Cu11  Cu12  S    
C41   C71   S    
C6    C62   S    
C78   H6    S    
C60   C68   S    
C53   S9    S    
O51   H9    S    
C41   O15   A    
C31   O34   A    
C18   C22   T    
C21   C35   S    
Cu4   O12   S    
C27   O27   A    
C55   S11   S    
C61   C81   S    
S8    O70   D    
C79   C83   S    
C60   S16   S    
C56   C64   S    
C62   S2    S    
C57   S13   S    
Cu12  O40   S    
C16   C88   S    
Cu11  O45   S    
C77   H5    S    
S16   O94   D    
S4    O59   D    
S5    O62   D    
C32   C50   S    
C6    H2    S    
C4    O4    A    
O93   H23   S    
C12   C72   T    
C59   C87   S    
C64   S4    S    
C32   O36   A    
Cu10  O6    S    
C33   O38   A    
C26   C46   S    
C7    C67   S    
O72   H16   S    
C4    C20   S    
S7    O67   D    
S15   O93   S    
S12   O82   D    
C44   O8    A    
O81   H19   S    
Cu10  O38   S    
C27   O25   A    
C13   C85   S    
C9    C81   S    
S11   O80   D    
Cu9   O41   S    
C39   O13   A    
C4    O12   A    
C53   C85   S    
C35   O41   A    
C54   C78   S    
C27   C73   S    
S14   O88   D    
C20   C24   T    
C43   O5    A    
Cu1   O14   S    
C33   O37   A    
C54   S10   S    
C57   C65   S    
C2    O2    A    
