data_mof_unit_68014.cif
_audit_creation_date              2012-12-11T14:03:18-0500
_audit_creation_method            fapswitch 2.2
_symmetry_space_group_name_H-M    P1
_symmetry_Int_Tables_number       1
_space_group_crystal_system       triclinic
_cell_length_a                    7.020756
_cell_length_b                    11.516486
_cell_length_c                    18.447208
_cell_angle_alpha                 90.000814
_cell_angle_beta                  93.0981
_cell_angle_gamma                 89.981286
_cell_volume                      1489.35862068

loop_
_atom_site_label
_atom_site_type_symbol
_atom_type_description
_atom_site_fract_x
_atom_site_fract_y
_atom_site_fract_z
_atom_type_partial_charge
O1    O     O_R   0.330540 0.606360 0.598870 -0.563544
O2    O     O_R   0.669460 0.106360 0.401130 -0.563502
O3    O     O_R   0.026770 0.620470 0.750430 -0.548797
O4    O     O_R   0.973230 0.120470 0.249570 -0.548793
O5    O     O_R   0.856460 0.393640 0.750930 -0.560407
O6    O     O_R   0.143540 0.893640 0.249070 -0.558417
C1    C     C_R   0.197680 0.646919 0.775485 0.695659
C2    C     C_R   0.802260 0.146938 0.224525 0.692790
O7    O     O_R   0.000920 0.620350 0.599420 -0.509663
O8    O     O_R   0.999080 0.120350 0.400580 -0.509830
O9    O     O_R   0.830430 0.393520 0.598850 -0.498408
O10   O     O_R   0.169570 0.893520 0.401150 -0.497817
C3    C     C_R   0.168080 0.652160 0.577615 0.744847
C4    C     C_R   0.831895 0.152164 0.422375 0.744643
O11   O     O_R   0.356570 0.606480 0.750960 -0.547469
O12   O     O_R   0.643430 0.106480 0.249040 -0.547106
O13   O     O_3   0.176990 0.425580 0.674890 -0.341950
O14   O     O_3   0.823010 0.925580 0.325110 -0.340419
V1    V     V_3+5 0.902170 0.513810 0.674910 1.631923
V2    V     V_3+5 0.097830 0.013810 0.325090 1.635041
O15   O     O_R   0.500800 0.379530 0.599380 -0.508751
O16   O     O_R   0.499200 0.879530 0.400620 -0.509286
C5    C     C_R   0.667052 0.354606 0.573324 0.894526
C6    C     C_R   0.332975 0.854620 0.426690 0.893922
O17   O     O_R   0.526650 0.379650 0.750390 -0.520089
O18   O     O_R   0.473350 0.879650 0.249610 -0.521660
C7    C     C_R   0.700571 0.347600 0.771834 0.814988
C8    C     C_R   0.299482 0.847520 0.228207 0.813487
V3    V     V_3+5 0.402160 0.486190 0.674900 1.657923
V4    V     V_3+5 0.597840 0.986190 0.325100 1.659556
O19   O     O_3   0.677210 0.574420 0.674910 -0.404111
O20   O     O_3   0.322790 0.074420 0.325090 -0.404634
C9    C     C_R   0.745583 0.061953 0.875318 0.094702
C10   C     C_R   0.253719 0.561946 0.124730 0.119536
H1    H     H_    0.826515 0.938208 0.997040 0.147039
H2    H     H_    0.170939 0.438324 0.003011 0.153467
C11   C     C_R   0.727961 0.259589 0.829362 -0.162348
C12   C     C_R   0.272160 0.759549 0.170645 -0.164595
C13   C     C_R   0.801704 0.346702 0.178571 -0.180837
C14   C     C_R   0.201449 0.846754 0.821448 -0.265284
C15   C     C_R   0.799102 0.429739 0.123812 0.138305
C16   C     C_R   0.204824 0.929683 0.876548 0.132322
C17   C     C_R   0.777123 0.395955 0.049492 0.367536
C18   C     C_R   0.223013 0.895831 0.950561 0.431227
C19   C     C_R   0.797269 0.274147 0.031443 -0.020078
C20   C     C_R   0.201896 0.774154 0.968603 -0.041225
C21   C     C_R   0.802387 0.191921 0.089969 0.015483
C22   C     C_R   0.196074 0.691941 0.910033 0.015564
C23   C     C_R   0.798662 0.228124 0.958445 0.099889
C24   C     C_R   0.200827 0.728173 0.041581 0.084534
C25   C     C_R   0.793817 0.106659 0.945784 0.141595
C26   C     C_R   0.205491 0.606707 0.054215 0.092675
C27   C     C_R   0.819006 0.031315 0.004688 0.061295
C28   C     C_R   0.178895 0.531399 0.995328 0.062050
C29   C     C_R   0.816234 0.072751 0.075165 0.007573
C30   C     C_R   0.181132 0.572813 0.924832 0.017604
C31   C     C_R   0.804496 0.297440 0.896678 -0.179908
C32   C     C_R   0.195503 0.797486 0.103365 -0.202869
C33   C     C_R   0.699757 0.139711 0.816997 0.347599
C34   C     C_R   0.300696 0.639659 0.182916 0.375144
C35   C     C_R   0.792927 0.229125 0.162816 -0.149820
C36   C     C_R   0.206827 0.729092 0.837188 -0.117085
H3    H     H_    0.866622 0.381716 0.900147 0.185033
H4    H     H_    0.133208 0.881713 0.099986 0.187177
H5    H     H_    0.810589 0.374943 0.234763 0.219512
H6    H     H_    0.196018 0.875133 0.765300 0.211437
H7    H     H_    0.825858 0.009018 0.118360 0.100091
H8    H     H_    0.170932 0.509110 0.881633 0.098247
C37   C     C_2   0.823705 0.253392 0.471297 0.253344
C38   C     C_2   0.176252 0.753391 0.528688 0.254945
C39   C     C_2   0.676190 0.265002 0.516115 -0.402610
C40   C     C_2   0.323869 0.765027 0.483916 -0.400357
H9    H     H_    0.562906 0.200617 0.514274 0.149100
H10   H     H_    0.437253 0.700662 0.485795 0.147194
S1    S     S_3+6 0.633373 0.090355 0.727255 -0.033130
O21   O     O_2   0.587168 0.963061 0.723762 -0.351847
O22   O     O_2   0.461786 0.156774 0.697940 -0.329018
O23   O     O_3   0.816582 0.117037 0.674626 -0.491100
H11   H     H_    0.774757 0.086744 0.626112 0.388846
S2    S     S_3+6 0.372244 0.590360 0.272177 -0.011570
O24   O     O_2   0.418117 0.462986 0.275398 -0.350986
O25   O     O_2   0.545651 0.656526 0.299902 -0.322331
O26   O     O_3   0.192707 0.617543 0.326486 -0.481440
H12   H     H_    0.235113 0.584327 0.374191 0.386366
N1    N     N_3   0.734672 0.938419 0.865683 -0.654020
H13   H     H_    0.819787 0.913744 0.823671 0.281549
H14   H     H_    0.593324 0.915099 0.853035 0.288223
N2    N     N_3   0.265213 0.438450 0.134317 -0.647170
H15   H     H_    0.181764 0.413914 0.176851 0.291474
H16   H     H_    0.407051 0.415258 0.146195 0.283904
S3    S     S_3+6 0.661175 0.498436 0.988269 -0.097558
O27   O     O_2   0.509701 0.434004 0.944168 -0.365825
O28   O     O_2   0.572967 0.593774 0.029808 -0.362811
O29   O     O_3   0.800238 0.566706 0.931042 -0.553291
H17   H     H_    0.711383 0.609964 0.897332 0.362024
S4    S     S_3+6 0.335917 0.999597 0.011675 -0.062123
O30   O     O_2   0.488220 0.936169 0.055949 -0.377646
O31   O     O_2   0.422262 0.095659 0.970021 -0.328007
O32   O     O_3   0.195822 0.066952 0.068908 -0.547749
H18   H     H_    0.283931 0.110924 0.102511 0.359844
N3    N     N_3   0.814129 0.548687 0.146787 -0.590744
H19   H     H_    0.680268 0.576739 0.161423 0.295995
H20   H     H_    0.860492 0.601906 0.105616 0.269997
N4    N     N_3   0.200935 0.049881 0.856222 -0.559846
H21   H     H_    0.086241 0.063509 0.818819 0.247649
H22   H     H_    0.323711 0.067061 0.828719 0.290672
S5    S     S_3+6 0.993215 0.365480 0.458430 0.020817
O33   O     O_2   0.899777 0.482610 0.462272 -0.316941
O34   O     O_2   0.150565 0.357146 0.516677 -0.340176
O35   O     O_3   0.085858 0.352188 0.376480 -0.488743
H23   H     H_    0.218097 0.324024 0.386248 0.362899
S6    S     S_3+6 0.006690 0.865510 0.541547 0.018896
O36   O     O_2   0.100114 0.982611 0.537747 -0.319286
O37   O     O_2   0.849399 0.857263 0.483276 -0.339147
O38   O     O_3   0.913957 0.852195 0.623473 -0.489763
H24   H     H_    0.782105 0.823430 0.613693 0.364261

loop_
_geom_bond_atom_site_label_1
_geom_bond_atom_site_label_2
_ccdc_geom_bond_type
N3    H19   S    
H1    C27   S    
C13   H5    S    
O4    C2    A    
V1    O19   S    
N4    H22   S    
C37   S5    S    
C14   C36   A    
C13   C15   A    
N1    H13   S    
O9    V1    S    
O3    C1    A    
C3    C38   S    
O12   V4    S    
O38   H24   S    
S4    O32   S    
C23   C31   A    
O17   V3    S    
C37   C39   D    
O7    C3    A    
O35   H23   S    
N4    H21   S    
C9    N1    S    
O13   V1    S    
O5    C7    A    
O7    V1    S    
O6    C8    A    
O26   H12   S    
C18   C20   A    
C23   C25   A    
S4    O31   D    
C24   C26   A    
S5    O33   D    
O3    V1    S    
O14   V4    S    
C8    C12   S    
C2    C35   S    
C19   C21   A    
C9    C33   A    
C2    O12   A    
C14   H6    S    
C10   C34   A    
C15   C17   A    
C16   C18   A    
S2    O26   S    
S6    O37   D    
S6    O36   D    
C26   C28   A    
O11   V3    S    
C20   C22   A    
C27   C29   A    
C32   H4    S    
C13   C35   A    
C28   C30   A    
N1    H14   S    
C24   C32   A    
C5    C39   S    
S2    O25   D    
O8    C4    A    
O8    V2    S    
S3    O27   D    
C39   H9    S    
O23   H11   S    
S2    O24   D    
C1    O11   A    
C30   H8    S    
O15   V3    S    
C17   S3    S    
C9    C25   A    
C25   C27   A    
S1    O21   D    
C1    C36   S    
C18   S4    S    
S3    O28   D    
S1    O22   D    
C22   C36   A    
O32   H18   S    
C19   C23   A    
S4    O30   D    
O10   V2    S    
O1    V3    S    
C10   N2    S    
C17   C19   A    
C11   C33   A    
C38   S6    S    
C12   C34   A    
C40   H10   S    
N2    H16   S    
O18   V4    S    
O15   C5    A    
C4    C37   S    
O16   C6    A    
O1    C3    A    
C33   S1    S    
C6    C40   S    
C21   C29   A    
V2    O20   S    
C22   C30   A    
O10   C6    A    
C34   S2    S    
O16   V4    S    
O18   C8    A    
C31   H3    S    
C14   C16   A    
C16   N4    S    
C21   C35   A    
C29   H7    S    
O5    V1    S    
O17   C7    A    
O6    V2    S    
C20   C24   A    
C10   C26   A    
O2    V4    S    
V3    O19   S    
O13   V3    S    
S3    O29   S    
V4    O20   S    
S5    O34   D    
C7    C11   S    
O9    C5    A    
S5    O35   S    
C15   N3    S    
O14   V2    S    
O29   H17   S    
O2    C4    A    
S1    O23   S    
H2    C28   S    
O4    V2    S    
N2    H15   S    
N3    H20   S    
C38   C40   D    
C12   C32   A    
S6    O38   S    
C11   C31   A    
