data_mof_unit_37728.cif
_audit_creation_date              2013-03-05T15:50:34-0500
_audit_creation_method            fapswitch 2.2
_symmetry_space_group_name_H-M    P1
_symmetry_Int_Tables_number       1
_space_group_crystal_system       triclinic
_cell_length_a                    9.614988
_cell_length_b                    10.846534
_cell_length_c                    13.461952
_cell_angle_alpha                 93.24357
_cell_angle_beta                  72.557917
_cell_angle_gamma                 88.579957
_cell_volume                      1335.95467453

loop_
_atom_site_label
_atom_site_type_symbol
_atom_site_description
_atom_site_fract_x
_atom_site_fract_y
_atom_site_fract_z
_atom_type_partial_charge
O1    O     O_R   0.381190 0.680360 0.500010 -0.572228
O2    O     O_R   0.618760 0.680340 0.500000 -0.583009
C1    C     C_R   0.495433 0.737084 0.506635 0.790295
O3    O     O_R   0.323240 0.499990 0.650990 -0.594909
O4    O     O_R   0.560820 0.499960 0.650980 -0.570211
C2    C     C_R   0.421247 0.507167 0.700302 0.765626
Cu1   Cu    Cu3+1 0.359340 0.500010 0.500010 0.940050
Cu2   Cu    Cu3+1 0.640660 0.499990 0.499990 0.947257
O5    O     O_R   0.381240 0.319660 0.500000 -0.599996
O6    O     O_R   0.618810 0.319640 0.499990 -0.574398
O7    O     O_R   0.439180 0.500040 0.349020 -0.594745
O8    O     O_R   0.676760 0.500010 0.349010 -0.599011
C3    C     C_R   0.499660 0.262572 0.503308 0.794703
C4    C     C_R   0.578208 0.501088 0.300238 0.794324
C5    C     C_R   0.783305 0.595017 0.032851 -0.173380
H1    H     H_    0.838514 0.576062 0.174191 0.159665
H2    H     H_    0.798952 0.671661 0.845887 0.135452
H3    H     H_    0.887287 0.633061 0.993962 0.138038
C6    C     C_R   0.621061 0.515738 0.187682 -0.032075
C7    C     C_R   0.232516 0.476692 0.867352 -0.187161
C8    C     C_R   0.189890 0.464334 0.974114 -0.100894
C9    C     C_R   0.288729 0.482068 0.030256 -0.142210
C10   C     C_R   0.431698 0.519849 0.981010 0.085053
C11   C     C_R   0.467784 0.547690 0.874820 0.095875
C12   C     C_R   0.539373 0.533117 0.033711 0.082944
C13   C     C_R   0.675157 0.583615 0.982635 0.176109
C14   C     C_R   0.699569 0.626020 0.883393 -0.216409
C15   C     C_R   0.595685 0.611175 0.831536 -0.183255
C16   C     C_R   0.516735 0.497221 0.135535 -0.201863
C17   C     C_R   0.756293 0.561472 0.135089 -0.173410
C18   C     C_R   0.372862 0.514130 0.815671 -0.108488
H4    H     H_    0.417382 0.455960 0.177003 0.157441
H5    H     H_    0.155859 0.454874 0.824885 0.179387
H6    H     H_    0.248126 0.468937 0.112472 0.141374
H7    H     H_    0.080453 0.437384 0.013160 0.184365
H8    H     H_    0.614120 0.654026 0.758719 0.152422
H9    H     H_    0.684838 0.866698 0.383167 0.158913
C19   C     C_R   0.266061 0.889554 0.662851 -0.220429
H10   H     H_    0.262068 0.790686 0.668802 0.144694
C20   C     C_R   0.155323 0.962960 0.733662 -0.145559
H11   H     H_    0.068015 0.919973 0.789791 0.157333
C21   C     C_R   0.157242 0.091044 0.732540 0.226468
C22   C     C_R   0.271615 0.146418 0.661850 -0.189213
H12   H     H_    0.271610 0.246026 0.667865 0.172420
C23   C     C_R   0.382265 0.074071 0.585972 0.033119
C24   C     C_R   0.378593 0.943444 0.586605 0.096812
C25   C     C_R   0.489713 0.870646 0.512249 -0.128548
C26   C     C_R   0.601092 0.924898 0.439724 -0.165725
C27   C     C_R   0.605430 0.051835 0.436938 0.133978
C28   C     C_R   0.497203 0.128182 0.510253 -0.087386
H13   H     H_    0.816946 0.637093 0.622505 0.120781
C29   C     C_R   0.926393 0.351711 0.346996 -0.266938
H14   H     H_    0.818307 0.340246 0.345381 0.224202
C30   C     C_R   0.034097 0.285944 0.267118 0.122878
C31   C     C_R   0.175692 0.277338 0.272954 0.108489
C32   C     C_R   0.209753 0.342084 0.353848 -0.238077
H15   H     H_    0.318972 0.326420 0.353867 0.223386
C33   C     C_R   0.107386 0.423052 0.427686 0.193067
C34   C     C_R   0.958927 0.424997 0.426310 0.181848
N1    N     N_R   0.852480 0.498790 0.499000 -0.186065
C35   C     C_R   0.895756 0.574334 0.568079 -0.024347
H16   H     H_    0.073320 0.635301 0.624090 0.121313
C36   C     C_R   0.043352 0.574192 0.568254 -0.043927
N2    N     N_R   0.148360 0.498710 0.498970 -0.187686
I1    I     I_    0.985115 0.201545 0.836191 -0.339521
C37   C     C_3   0.726393 0.102157 0.353558 -0.779554
H17   H     H_    0.806887 0.138580 0.390382 0.246356
H18   H     H_    0.783962 0.029414 0.292539 0.251629
H19   H     H_    0.682408 0.174155 0.314240 0.232275
I2    I     I_    0.978060 0.203962 0.138168 -0.346898
I3    I     I_    0.344588 0.166741 0.163427 -0.312815

loop_
_geom_bond_atom_site_label_1
_geom_bond_atom_site_label_2
_geom_bond_distance
_ccdc_geom_bond_type
C5    H3    1.083991 S    
C37   H18   1.111812 S    
C10   C11   1.418393 A    
C31   I3    2.125574 S    
H16   C36   1.081792 S    
C8    H7    1.081664 S    
C29   C34   1.409343 A    
O4    Cu2   1.945642 S    
C30   C31   1.388177 A    
C25   C26   1.384111 A    
H13   C35   1.076833 S    
Cu2   O8    1.956684 S    
C22   H12   1.078854 S    
C7    C8    1.386720 A    
C31   C32   1.387442 A    
C20   C21   1.390728 A    
C37   H17   1.106253 S    
C33   C34   1.432742 A    
C11   C18   1.420854 A    
C29   C30   1.395199 A    
C34   N1    1.384226 A    
C6    C16   1.398398 A    
O1    Cu1   1.972592 S    
C8    C9    1.390867 A    
C32   H15   1.059713 S    
H9    C26   1.086028 S    
Cu1   O7    1.945642 S    
C22   C23   1.416855 A    
C13   C14   1.392277 A    
O4    C2    1.304866 A    
C23   C28   1.424544 A    
O3    Cu1   1.956684 S    
C7    H5    1.082588 S    
C1    C25   1.445202 S    
C26   C27   1.380779 A    
C19   C20   1.392822 A    
O8    C4    1.304763 A    
O2    C1    1.298839 A    
C16   H4    1.074359 S    
C9    C10   1.417538 A    
C10   C12   1.425487 A    
C12   C16   1.401306 A    
C19   H10   1.080646 S    
C9    H6    1.076682 S    
O7    C4    1.301398 A    
O2    Cu2   1.962267 S    
Cu1   N2    2.033204 S    
C19   C24   1.413995 A    
C37   H19   1.110613 S    
C27   C37   1.492886 S    
H1    C17   1.083216 S    
C36   N2    1.366645 A    
H2    C14   1.084248 S    
C11   C15   1.408479 A    
Cu1   Cu2   2.704802 S    
C29   H14   1.056229 S    
C15   H8    1.076957 S    
C5    C17   1.393249 A    
Cu2   O6    1.972591 S    
C27   C28   1.411315 A    
C21   C22   1.394883 A    
C14   C15   1.387166 A    
Cu1   O5    1.962266 S    
C21   I1    2.109647 S    
O5    C3    1.296298 A    
C24   C25   1.412294 A    
C20   H11   1.082611 S    
C5    C13   1.404231 A    
C2    C18   1.478531 S    
C33   N2    1.379517 A    
C12   C13   1.420273 A    
C23   C24   1.418613 A    
C6    C17   1.399233 A    
O3    C2    1.306727 A    
C4    C6    1.465306 S    
O6    C3    1.305838 A    
C35   C36   1.419803 A    
Cu2   N1    2.032405 S    
C3    C28   1.466254 S    
C32   C33   1.414195 A    
N1    C35   1.368198 A    
O1    C1    1.295800 A    
C7    C18   1.402215 A    
C30   I2    2.122309 S    
