data_mof_unit_43323.cif
_audit_creation_date              2012-10-26T21:33:24-0400
_audit_creation_method            fapswitch 2.2
_symmetry_space_group_name_H-M    P1
_symmetry_Int_Tables_number       1
_space_group_crystal_system       triclinic
_cell_length_a                    27.612414
_cell_length_b                    19.195959
_cell_length_c                    17.631006
_cell_angle_alpha                 91.070063
_cell_angle_beta                  59.826314
_cell_angle_gamma                 91.123651
_cell_volume                      8077.05486852

loop_
_atom_site_label
_atom_site_type_symbol
_atom_type_description
_atom_site_fract_x
_atom_site_fract_y
_atom_site_fract_z
_atom_type_partial_charge
C1    C     C_R   0.706244 0.275771 0.671669 0.926477
C2    C     C_R   0.086750 0.496924 0.545805 0.081362
C3    C     C_R   0.197182 0.211426 0.895959 0.055752
C4    C     C_R   0.075730 0.096647 0.932171 0.895067
C5    C     C_R   0.923261 0.903918 0.069333 0.933302
C6    C     C_R   0.925789 0.099708 0.066614 0.899852
C7    C     C_R   0.080902 0.911468 0.926714 0.927794
C8    C     C_R   0.575333 0.597172 0.932595 0.900465
C9    C     C_R   0.422701 0.404469 0.069477 0.927964
C10   C     C_R   0.425870 0.599946 0.066426 0.903859
C11   C     C_R   0.578870 0.407594 0.928779 0.934255
C12   C     C_R   0.530149 0.122227 0.569116 -0.070233
C13   C     C_R   0.403633 0.004077 0.485722 0.078857
C14   C     C_R   0.457842 0.878260 0.469976 -0.067841
C15   C     C_R   0.445506 0.127641 0.525804 -0.098148
C16   C     C_R   0.539766 0.872470 0.516807 -0.083464
C17   C     C_R   0.029877 0.622614 0.569328 -0.070068
C18   C     C_R   0.958289 0.378100 0.470049 -0.071588
C19   C     C_R   0.946853 0.628222 0.522040 -0.094461
C20   C     C_R   0.042488 0.373374 0.511808 -0.079342
C21   C     C_R   0.506162 0.186746 0.571549 0.343225
C22   C     C_R   0.478887 0.813083 0.473067 0.340203
C23   C     C_R   0.466353 0.190221 0.544732 0.370889
C24   C     C_R   0.586261 0.996232 0.546679 0.079060
C25   C     C_R   0.517422 0.809730 0.501884 0.303404
C26   C     C_R   0.005720 0.687063 0.571655 0.343722
C27   C     C_R   0.980998 0.313294 0.470245 0.329386
C28   C     C_R   0.966446 0.690615 0.543571 0.371359
C29   C     C_R   0.021321 0.310492 0.495492 0.296147
C30   C     C_R   0.468024 0.063669 0.525719 -0.013065
C31   C     C_R   0.516874 0.936404 0.518625 -0.005396
C32   C     C_R   0.512162 0.061326 0.544089 -0.019960
C33   C     C_R   0.473688 0.938866 0.498733 -0.014187
C34   C     C_R   0.968050 0.563903 0.525445 -0.018218
C35   C     C_R   0.091840 0.374204 0.513497 -0.078664
C36   C     C_R   0.017498 0.436700 0.517964 -0.006068
C37   C     C_R   0.011855 0.561588 0.544681 -0.018299
C38   C     C_R   0.973802 0.438808 0.499198 -0.013253
C39   C     C_R   0.948936 0.502438 0.502970 0.070519
C40   C     C_R   0.037782 0.498182 0.537924 0.064461
C41   C     C_R   0.448825 0.002429 0.502927 0.068221
C42   C     C_R   0.537650 0.997784 0.537936 0.062687
C43   C     C_R   0.885904 0.442430 0.462632 -0.018895
C44   C     C_R   0.107807 0.558747 0.562003 -0.028264
C45   C     C_R   0.115467 0.434855 0.531505 -0.007251
C46   C     C_R   0.908099 0.629438 0.493016 -0.047374
C47   C     C_R   0.880976 0.567422 0.483171 -0.006120
C48   C     C_R   0.385772 0.942718 0.462177 -0.020215
C49   C     C_R   0.607791 0.058234 0.561823 -0.029638
C50   C     C_R   0.613647 0.933524 0.535805 0.000063
C51   C     C_R   0.378354 0.066834 0.489310 -0.007617
C52   C     C_R   0.834377 0.440010 0.462495 -0.213895
C53   C     C_R   0.163529 0.561170 0.548590 -0.215832
C54   C     C_R   0.167364 0.435503 0.533234 -0.235243
C55   C     C_R   0.832513 0.565987 0.471255 -0.238216
C56   C     C_R   0.334015 0.940014 0.462615 -0.214990
C57   C     C_R   0.919383 0.383291 0.442682 -0.077402
C58   C     C_R   0.663463 0.060779 0.548348 -0.216513
C59   C     C_R   0.666231 0.934746 0.535915 -0.239258
C60   C     C_R   0.330428 0.065562 0.476019 -0.240289
C61   C     C_R   0.805477 0.502772 0.466403 0.285700
C62   C     C_R   0.194158 0.498433 0.539517 0.274691
C63   C     C_R   0.304328 0.002442 0.467989 0.285898
C64   C     C_R   0.693754 0.997986 0.540034 0.272081
C65   C     C_R   0.074213 0.618394 0.586132 -0.099028
C66   C     C_R   0.587636 0.872024 0.523188 -0.090796
C67   C     C_R   0.403172 0.128364 0.504883 -0.064757
C68   C     C_R   0.419503 0.883791 0.441506 -0.083745
C69   C     C_R   0.297764 0.730633 0.324905 0.910998
C70   C     C_R   0.574393 0.117900 0.585883 -0.101796
C71   C     C_R   0.752019 0.328719 0.922913 -0.044107
C72   C     C_R   0.300379 0.770446 0.022358 -0.044549
C73   C     C_R   0.249322 0.314312 0.074918 -0.018130
C74   C     C_R   0.711359 0.747864 0.963757 -0.076975
C75   C     C_R   0.254792 0.835023 0.919068 -0.044338
C76   C     C_R   0.800776 0.269036 0.023244 -0.036086
C77   C     C_R   0.755530 0.805756 0.072196 -0.047591
C78   C     C_R   0.212086 0.249110 0.960864 -0.050799
C79   C     C_R   0.810560 0.322622 0.888534 -0.173439
C80   C     C_R   0.295195 0.273105 0.327206 0.945310
C81   C     C_R   0.243293 0.783241 0.052129 -0.140223
C82   C     C_R   0.195725 0.283431 0.105983 -0.163716
C83   C     C_R   0.757394 0.794415 0.932107 -0.193835
C84   C     C_R   0.313099 0.825992 0.885726 -0.176512
C85   C     C_R   0.743108 0.278265 0.055741 -0.166682
C86   C     C_R   0.700169 0.778008 0.109920 -0.151426
C87   C     C_R   0.262219 0.288541 0.932280 -0.174523
C88   C     C_R   0.835313 0.288362 0.931804 0.377076
C89   C     C_R   0.222492 0.824721 0.010371 0.340778
C90   C     C_R   0.175097 0.252733 0.054485 0.374330
C91   C     C_R   0.704864 0.725221 0.673208 0.947619
C92   C     C_R   0.777826 0.827117 0.982403 0.396263
C93   C     C_R   0.336274 0.789926 0.930725 0.374920
C94   C     C_R   0.720355 0.317409 0.014172 0.363445
C95   C     C_R   0.677882 0.746516 0.059230 0.403092
C96   C     C_R   0.274717 0.330845 0.985067 0.333637
C97   C     C_R   0.675017 0.379499 0.899346 -0.227067
C98   C     C_R   0.360886 0.686715 0.054633 -0.196306
C99   C     C_R   0.333005 0.357420 0.088072 -0.264848
C100  C     C_R   0.652438 0.663793 0.931612 -0.193500
C101  C     C_R   0.178721 0.887136 0.893435 -0.234809
C102  C     C_R   0.207541 0.777613 0.670342 0.924668
C103  C     C_R   0.861354 0.186420 0.054983 -0.201897
C104  C     C_R   0.832432 0.858771 0.095030 -0.229256
C105  C     C_R   0.154499 0.161396 0.929059 -0.203889
C106  C     C_R   0.631765 0.368334 0.880777 -0.156371
C107  C     C_R   0.384700 0.658276 0.102497 -0.167912
C108  C     C_R   0.371992 0.360165 0.116317 -0.182263
C109  C     C_R   0.620748 0.647602 0.892020 -0.152904
C110  C     C_R   0.134840 0.874993 0.876107 -0.161905
C111  C     C_R   0.885412 0.158387 0.102674 -0.166935
C112  C     C_R   0.875093 0.855935 0.114816 -0.181143
C113  C     C_R   0.799080 0.232929 0.324302 0.910580
C114  C     C_R   0.121952 0.145968 0.890622 -0.146088
C115  C     C_R   0.641135 0.326250 0.810666 0.295504
C116  C     C_R   0.368620 0.684271 0.185320 0.293953
C117  C     C_R   0.360687 0.327389 0.193006 0.301230
C118  C     C_R   0.634825 0.675329 0.811339 0.299946
C119  C     C_R   0.143762 0.833356 0.805382 0.297079
C120  C     C_R   0.869944 0.184600 0.185468 0.291897
C121  C     C_R   0.867451 0.816587 0.186186 0.302277
C122  C     C_R   0.135582 0.173734 0.809977 0.301737
C123  C     C_R   0.694698 0.299576 0.757918 -0.287435
C124  C     C_R   0.798782 0.766899 0.324177 0.945872
C125  C     C_R   0.319779 0.723222 0.229640 -0.287644
C126  C     C_R   0.308599 0.293606 0.240499 -0.301421
C127  C     C_R   0.686927 0.707722 0.764043 -0.287218
C128  C     C_R   0.196721 0.803914 0.754991 -0.293482
C129  C     C_R   0.823154 0.227228 0.228030 -0.285010
C130  C     C_R   0.817029 0.779909 0.232215 -0.288563
C131  C     C_R   0.187535 0.206428 0.762764 -0.296551
C132  C     C_R   0.736657 0.299688 0.786277 0.356073
C133  C     C_R   0.292023 0.751696 0.183735 0.340330
C134  C     C_R   0.269172 0.282949 0.207704 0.364629
C135  C     C_R   0.205106 0.224786 0.672710 0.943671
C136  C     C_R   0.720994 0.723014 0.804144 0.264854
C137  C     C_R   0.238238 0.802896 0.784578 0.355201
C138  C     C_R   0.798381 0.259111 0.179718 0.343903
C139  C     C_R   0.780955 0.764830 0.194742 0.358778
C140  C     C_R   0.221366 0.221576 0.802915 0.288811
C141  C     C_R   0.692332 0.128710 0.531306 0.866807
C142  C     C_R   0.306959 0.871631 0.471088 0.850566
C143  C     C_R   0.305007 0.129227 0.476696 0.909355
C144  C     C_R   0.694023 0.870777 0.526455 0.908389
C145  C     C_R   0.192287 0.628881 0.531606 0.867672
C146  C     C_R   0.904293 0.504119 0.484584 0.075218
C147  C     C_R   0.806960 0.371689 0.471267 0.854449
C148  C     C_R   0.805942 0.629409 0.474191 0.911375
C149  C     C_R   0.194489 0.371028 0.525143 0.894562
C150  C     C_R   0.723024 0.337240 0.866478 0.024274
C151  C     C_R   0.318061 0.737974 0.087864 0.025658
C152  C     C_R   0.282102 0.318753 0.126999 0.044918
C153  C     C_R   0.695561 0.713210 0.898438 0.046292
C154  C     C_R   0.225969 0.843467 0.862179 0.031732
C155  C     C_R   0.820989 0.240196 0.086578 0.021041
C156  C     C_R   0.788302 0.809560 0.123175 0.021817
Cl1   Cl    Cl    0.043523 0.227822 0.509219 -0.412045
Cl2   Cl    Cl    0.411387 0.667861 0.233681 -0.478972
Cl3   Cl    Cl    0.414976 0.324727 0.227051 -0.441339
Cl4   Cl    Cl    0.588610 0.665321 0.766915 -0.451703
Cl5   Cl    Cl    0.087115 0.816220 0.780721 -0.452387
Cl6   Cl    Cl    0.910175 0.163288 0.236793 -0.468305
Cl7   Cl    Cl    0.920790 0.813894 0.220021 -0.450235
Cl8   Cl    Cl    0.089436 0.163478 0.765674 -0.448729
Cl9   Cl    Cl    0.944779 0.774605 0.532849 -0.365131
Cl10  Cl    Cl    0.957410 0.234994 0.443825 -0.384419
Cl11  Cl    Cl    0.027850 0.764895 0.601733 -0.394915
Cl12  Cl    Cl    0.534194 0.726649 0.524551 -0.444925
Cl13  Cl    Cl    0.447758 0.274186 0.527702 -0.373453
Cl14  Cl    Cl    0.454088 0.734958 0.448344 -0.386229
Cl15  Cl    Cl    0.529064 0.264643 0.600214 -0.404826
Cl16  Cl    Cl    0.586531 0.310539 0.785536 -0.477282
H1    H     H_    0.112455 0.327025 0.486165 0.241629
H2    H     H_    0.212095 0.756563 0.106532 0.242045
H3    H     H_    0.167497 0.280718 0.171524 0.274224
H4    H     H_    0.774654 0.813457 0.869077 0.278961
H5    H     H_    0.340842 0.845223 0.821810 0.252248
H6    H     H_    0.714024 0.255133 0.116082 0.235305
H7    H     H_    0.672041 0.782694 0.182234 0.262616
H8    H     H_    0.296761 0.288216 0.870143 0.288148
H9    H     H_    0.671360 0.423296 0.939779 0.250007
H10   H     H_    0.374423 0.665260 0.991119 0.243717
H11   H     H_    0.343610 0.388964 0.034376 0.254912
H12   H     H_    0.904490 0.681661 0.474474 0.236053
H13   H     H_    0.645405 0.634422 0.987283 0.239764
H14   H     H_    0.174900 0.931254 0.933631 0.243660
H15   H     H_    0.872468 0.162771 0.993249 0.237655
H16   H     H_    0.830734 0.906623 0.067163 0.244199
H17   H     H_    0.148202 0.131542 0.983909 0.241308
H18   H     H_    0.662774 0.568068 0.521753 0.379947
H19   H     H_    0.296323 0.432008 0.591664 0.366382
H20   H     H_    0.161475 0.068096 0.527310 0.383360
H21   H     H_    0.797400 0.932791 0.590492 0.363634
H22   H     H_    0.699788 0.469320 0.085345 0.389006
H23   H     H_    0.916077 0.341080 0.404438 0.214801
H24   H     H_    0.471626 0.824625 0.858990 0.382795
H25   H     H_    0.321677 0.510222 0.987182 0.384163
H26   H     H_    0.531181 0.698170 0.119969 0.415398
H27   H     H_    0.203217 0.975790 0.081802 0.385781
H28   H     H_    0.969684 0.332268 0.855890 0.381402
H29   H     H_    0.819370 0.013057 0.975653 0.386676
H30   H     H_    0.030649 0.194457 0.111701 0.413473
H31   H     H_    0.889719 0.316784 0.655493 0.405255
H32   H     H_    0.211290 0.909026 0.226987 0.421558
H33   H     H_    0.116426 0.262856 0.331997 0.416651
H34   H     H_    0.083520 0.662598 0.615379 0.218460
H35   H     H_    0.775900 0.851793 0.707520 0.353684
H36   H     H_    0.391798 0.803149 0.654848 0.411436
H37   H     H_    0.713157 0.417411 0.204305 0.415980
H38   H     H_    0.635479 0.724335 0.361592 0.403511
H39   H     H_    0.275414 0.352353 0.732705 0.361240
H40   H     H_    0.604102 0.821032 0.505664 0.233206
H41   H     H_    0.393365 0.180106 0.501334 0.253515
H42   H     H_    0.416130 0.841548 0.403338 0.214967
H43   H     H_    0.583695 0.161948 0.615360 0.218615
H44   H     H_    0.837558 0.343552 0.825319 0.253229
O1    O     O_R   0.746490 0.236330 0.638080 -0.573122
O2    O     O_R   0.325830 0.813840 0.483730 -0.627792
O3    O     O_2   0.685285 0.273011 0.258912 -0.264087
O4    O     O_2   0.725191 0.357176 0.315155 -0.182620
O5    O     O_3   0.742746 0.380637 0.165288 -0.530230
O6    O     O_2   0.714025 0.664321 0.172270 -0.258308
O7    O     O_2   0.723407 0.641949 0.300189 -0.188371
O8    O     O_3   0.666400 0.754973 0.310104 -0.570153
O9    O     O_2   0.326706 0.203429 0.772099 -0.284589
O10   O     O_2   0.325109 0.229567 0.642803 -0.252057
O11   O     O_3   0.299242 0.330677 0.753742 -0.475700
O12   O     O_R   0.325830 0.186160 0.483730 -0.638868
O13   O     O_R   0.674170 0.813840 0.516270 -0.654122
O14   O     O_R   0.174170 0.686160 0.516270 -0.630332
O15   O     O_R   0.825830 0.313840 0.483730 -0.626332
O16   O     O_R   0.825830 0.686160 0.483730 -0.634262
O17   O     O_R   0.174170 0.313840 0.516270 -0.645069
O18   O     O_R   0.739960 0.127620 0.525000 -0.523047
O19   O     O_R   0.260040 0.872380 0.475000 -0.528911
O20   O     O_R   0.260040 0.127620 0.475000 -0.572674
O21   O     O_R   0.253510 0.763670 0.361920 -0.571360
O22   O     O_R   0.739960 0.872380 0.525000 -0.576492
O23   O     O_R   0.239960 0.627620 0.525000 -0.524798
O24   O     O_R   0.760040 0.372380 0.475000 -0.526941
O25   O     O_R   0.760040 0.627620 0.475000 -0.572223
O26   O     O_R   0.239960 0.372380 0.525000 -0.578865
O27   O     O_R   0.680700 0.294870 0.629350 -0.556737
O28   O     O_R   0.319300 0.705130 0.370650 -0.543890
O29   O     O_R   0.319300 0.294870 0.370650 -0.551272
O30   O     O_R   0.680700 0.705130 0.629350 -0.572963
O31   O     O_R   0.180700 0.794870 0.629350 -0.555743
O32   O     O_R   0.253510 0.236330 0.361920 -0.572777
O33   O     O_R   0.819300 0.205130 0.370650 -0.544882
O34   O     O_R   0.819300 0.794870 0.370650 -0.554966
O35   O     O_R   0.180700 0.205130 0.629350 -0.573854
O36   O     O_R   0.062020 0.072840 0.007170 -0.614719
O37   O     O_R   0.937980 0.927160 0.992830 -0.567416
O38   O     O_R   0.937980 0.072840 0.992830 -0.608092
O39   O     O_R   0.062020 0.927160 0.007170 -0.545828
O40   O     O_R   0.562020 0.572840 0.007170 -0.613403
O41   O     O_R   0.437980 0.427160 0.992830 -0.597180
O42   O     O_R   0.437980 0.572840 0.992830 -0.610121
O43   O     O_R   0.746490 0.763670 0.638080 -0.618288
O44   O     O_R   0.562020 0.427160 0.007170 -0.554723
O45   O     O_R   0.947860 0.073950 0.109290 -0.562831
O46   O     O_R   0.052140 0.926050 0.890710 -0.564661
O47   O     O_R   0.052140 0.073950 0.890710 -0.563659
O48   O     O_R   0.947860 0.926050 0.109290 -0.558343
O49   O     O_R   0.447860 0.573950 0.109290 -0.559845
O50   O     O_R   0.552140 0.426050 0.890710 -0.565838
O51   O     O_R   0.552140 0.573950 0.890710 -0.559840
O52   O     O_R   0.447860 0.426050 0.109290 -0.549393
O53   O     O_2   0.746344 0.455494 0.388717 -0.181252
O54   O     O_R   0.246490 0.736330 0.638080 -0.571965
O55   O     O_2   0.693947 0.461798 0.551001 -0.286011
O56   O     O_3   0.695587 0.562196 0.461792 -0.422665
O57   O     O_2   0.305859 0.533882 0.437092 -0.209125
O58   O     O_2   0.266936 0.550001 0.596140 -0.250968
O59   O     O_3   0.307912 0.437534 0.528849 -0.433746
O60   O     O_2   0.242081 0.953674 0.392292 -0.206221
O61   O     O_2   0.193089 0.961347 0.554188 -0.285347
O62   O     O_3   0.193588 0.062267 0.466663 -0.425459
O63   O     O_2   0.805337 0.033978 0.436955 -0.207680
O64   O     O_2   0.766711 0.049726 0.596075 -0.256414
O65   O     O_R   0.753510 0.263670 0.361920 -0.566633
O66   O     O_3   0.808167 0.937654 0.527911 -0.435190
O67   O     O_2   0.611811 0.347852 0.073952 -0.232609
O68   O     O_2   0.643260 0.359508 0.178362 -0.190382
O69   O     O_3   0.676006 0.454426 0.060119 -0.548860
O70   O     O_2   0.406827 0.682344 0.847020 -0.196344
O71   O     O_2   0.428990 0.790563 0.769467 -0.274970
O72   O     O_3   0.450758 0.783382 0.894293 -0.516096
O73   O     O_2   0.370070 0.402927 0.885100 -0.258106
O74   O     O_2   0.289775 0.435693 0.873100 -0.178744
O75   O     O_3   0.290928 0.475056 0.013303 -0.559033
O76   O     O_R   0.753510 0.736330 0.361920 -0.573040
O77   O     O_2   0.609479 0.634576 0.136830 -0.236840
O78   O     O_2   0.579223 0.744423 0.216433 -0.224493
O79   O     O_3   0.564827 0.727817 0.085251 -0.542186
O80   O     O_2   0.114116 0.853358 0.067595 -0.234863
O81   O     O_2   0.141956 0.866321 0.176643 -0.165575
O82   O     O_3   0.178160 0.962937 0.057126 -0.546983
O83   O     O_2   0.909932 0.183829 0.848886 -0.203887
O84   O     O_2   0.926870 0.290053 0.769124 -0.272122
O85   O     O_3   0.950650 0.290763 0.892300 -0.508002
O86   O     O_2   0.880041 0.891739 0.908465 -0.248293
O87   O     O_R   0.246490 0.263670 0.638080 -0.608719
O88   O     O_2   0.819260 0.926273 0.851027 -0.185898
O89   O     O_3   0.792325 0.973165 0.006022 -0.581277
O90   O     O_2   0.110272 0.139192 0.132014 -0.239203
O91   O     O_2   0.075470 0.248521 0.208905 -0.237042
O92   O     O_3   0.063553 0.225165 0.076325 -0.535453
O93   O     O_2   0.819589 0.220215 0.780258 -0.236861
O94   O     O_2   0.827977 0.222512 0.639920 -0.176447
O95   O     O_3   0.851261 0.335615 0.689116 -0.596186
O96   O     O_2   0.179351 0.749860 0.244990 -0.271735
O97   O     O_2   0.196072 0.829136 0.334288 -0.190379
O98   O     O_R   0.674170 0.186160 0.516270 -0.632543
O99   O     O_3   0.232163 0.871348 0.183206 -0.539239
O100  O     O_2   0.202643 0.180898 0.196800 -0.268435
O101  O     O_2   0.186755 0.183478 0.341491 -0.167371
O102  O     O_3   0.152442 0.289556 0.303187 -0.609529
O103  O     O_2   0.829037 0.722154 0.775588 -0.243825
O104  O     O_2   0.824837 0.720095 0.643851 -0.248118
O105  O     O_3   0.798632 0.836536 0.733574 -0.482383
O106  O     O_2   0.315043 0.718214 0.789372 -0.236198
O107  O     O_2   0.323786 0.712714 0.648890 -0.171269
O108  O     O_3   0.354853 0.826249 0.685928 -0.594264
S1    S     S_3+6 0.735381 0.498538 0.467643 0.121167
S2    S     S_3+6 0.906485 0.261812 0.859227 0.088319
S3    S     S_3+6 0.819706 0.905078 0.933608 0.065126
S4    S     S_3+6 0.105270 0.215444 0.119416 0.075074
S5    S     S_3+6 0.808555 0.265505 0.721744 0.076819
S6    S     S_3+6 0.223426 0.799536 0.241808 0.086405
S7    S     S_3+6 0.203378 0.230048 0.264158 0.065629
S8    S     S_3+6 0.795822 0.748075 0.737001 0.071710
S9    S     S_3+6 0.307394 0.761055 0.725503 0.082001
S10   S     S_3+6 0.736573 0.317360 0.233651 0.085859
S11   S     S_3+6 0.721700 0.701263 0.243672 0.082631
S12   S     S_3+6 0.268288 0.502398 0.525978 0.113111
S13   S     S_3+6 0.295274 0.244050 0.739513 0.050874
S14   S     S_3+6 0.233631 0.997718 0.469946 0.113882
S15   S     S_3+6 0.768077 0.002228 0.525794 0.110962
S16   S     S_3+6 0.660737 0.369060 0.084049 0.075888
S17   S     S_3+6 0.406547 0.760162 0.858996 0.085248
S18   S     S_3+6 0.308074 0.412448 0.935980 0.074584
S19   S     S_3+6 0.607078 0.711966 0.126230 0.079263
S20   S     S_3+6 0.162222 0.876249 0.080230 0.085341
Zn1   Zn    Zn3+2 0.792340 0.208750 0.507670 1.279834
Zn2   Zn    Zn3+2 0.494040 0.500000 0.919480 1.200585
Zn3   Zn    Zn3+2 0.005960 0.000000 0.080520 1.231392
Zn4   Zn    Zn3+2 0.994040 0.000000 0.919480 1.212662
Zn5   Zn    Zn3+2 0.207660 0.791250 0.492330 1.259351
Zn6   Zn    Zn3+2 0.207660 0.208750 0.492330 1.198449
Zn7   Zn    Zn3+2 0.792340 0.791250 0.507670 1.184541
Zn8   Zn    Zn3+2 0.292340 0.708750 0.507670 1.278685
Zn9   Zn    Zn3+2 0.707660 0.291250 0.492330 1.259265
Zn10  Zn    Zn3+2 0.707660 0.708750 0.492330 1.165249
Zn11  Zn    Zn3+2 0.292340 0.291250 0.507670 1.190570
Zn12  Zn    Zn3+2 0.505960 0.500000 0.080520 1.232339

loop_
_geom_bond_atom_site_label_1
_geom_bond_atom_site_label_2
_ccdc_geom_bond_type
C100  C153  A    
C145  O14   A    
O41   Zn2   S    
C10   O49   A    
C117  Cl3   S    
C132  C150  A    
C118  Cl4   S    
C133  C151  A    
C74   C83   A    
O40   Zn12  S    
H31   O95   S    
C119  Cl5   S    
C14   C33   A    
C19   C46   A    
C147  O24   A    
C3    C105  A    
C16   C31   A    
C91   C127  S    
C57   H23   S    
C50   C59   A    
C31   C42   A    
O64   S15   D    
O60   S14   D    
C52   C61   A    
C77   C156  S    
O68   S16   D    
O17   Zn6   S    
O3    S10   D    
H37   O5    S    
C7    O46   A    
C131  C140  A    
C1    O27   A    
O26   Zn11  S    
C13   C51   A    
C147  O15   A    
C44   C53   A    
C97   C150  A    
C117  C126  A    
O16   Zn7   S    
C20   C29   A    
C119  C128  A    
C138  S10   S    
C47   C146  A    
C100  C109  A    
C25   Cl12  S    
C24   C50   A    
C109  C118  A    
H36   O108  S    
C115  C123  A    
C105  H17   S    
C144  O13   A    
C103  H15   S    
C127  C136  A    
C4    O36   A    
C101  C110  A    
C8    O40   A    
O30   Zn10  S    
C34   C39   A    
C9    C108  S    
O97   S6    D    
C72   C151  S    
O104  S8    D    
H27   O82   S    
C124  C130  S    
O48   Zn3   S    
H28   O85   S    
O99   S6    S    
C22   Cl14  S    
O27   Zn9   S    
O44   Zn12  S    
O91   S4    D    
O88   S3    D    
C66   H40   S    
C35   C45   A    
C15   C30   A    
C16   C25   A    
O29   Zn11  S    
C76   C155  S    
O85   S2    S    
O77   S19   D    
H18   O56   S    
C115  Cl16  S    
C124  O76   A    
C69   O28   A    
O100  S7    D    
C106  C115  A    
C18   C38   A    
H29   O89   S    
C137  S9    S    
C136  C153  A    
C58   C141  S    
C132  S5    S    
C80   C126  S    
C89   S20   S    
C84   C93   A    
O7    S11   D    
O10   S13   D    
C90   S4    S    
C86   C95   A    
C2    C40   A    
O18   Zn1   S    
O50   Zn2   S    
C111  C120  A    
C76   C85   A    
C78   C87   A    
C64   S15   S    
C93   S17   S    
C123  C132  A    
C27   C29   A    
C6    C111  S    
O79   S19   S    
C121  C130  A    
C71   C79   A    
O101  S7    D    
C99   C108  A    
O9    S13   D    
O62   S14   S    
C140  S13   S    
C37   C40   A    
C102  C128  S    
C60   C143  S    
C38   C39   A    
C75   C84   A    
C71   C150  S    
O103  S8    D    
C121  Cl7   S    
C113  O33   A    
O11   S13   S    
C5    O37   A    
C142  O2    A    
C124  O34   A    
C20   C35   A    
O6    S11   D    
C2    C44   A    
C85   H6    S    
C22   C25   A    
C30   C41   A    
C99   H11   S    
C120  Cl6   S    
C91   O30   A    
C83   H4    S    
C44   C65   A    
O98   Zn9   S    
C8    O51   A    
O22   Zn7   S    
H19   O59   S    
O38   Zn4   S    
C2    C45   A    
C58   C64   A    
C104  H16   S    
C26   Cl11  S    
C120  C129  A    
C35   H1    S    
C136  S8    S    
C88   S2    S    
C104  C112  A    
H22   O69   S    
C149  O17   A    
O14   Zn5   S    
O95   S5    S    
C143  O20   A    
O12   Zn11  S    
O73   S18   D    
C116  Cl2   S    
C23   Cl13  S    
C15   C67   A    
C51   C67   A    
C19   C28   A    
C126  C134  A    
C142  O19   A    
C59   C144  S    
O83   S2    D    
C116  C125  A    
C73   C152  S    
O102  S7    S    
O82   S20   S    
C118  C127  A    
C122  C131  A    
O21   Zn5   S    
C62   S12   S    
O106  S9    D    
C12   C70   A    
C79   H44   S    
C32   C42   A    
O24   Zn9   S    
O33   Zn1   S    
C108  C117  A    
O93   S5    D    
C102  O31   A    
C135  O35   A    
C110  C119  A    
C77   C86   A    
C1    O1    A    
C94   S16   S    
C5    C112  S    
O49   Zn12  S    
C99   C152  A    
H35   O105  S    
C7    C110  S    
O80   S20   D    
C100  H13   S    
O36   Zn3   S    
C81   C89   A    
C112  C121  A    
O51   Zn2   S    
C55   C148  S    
C101  C154  A    
O46   Zn4   S    
O47   Zn4   S    
C55   C61   A    
C86   H7    S    
C11   O50   A    
C84   H5    S    
C107  C116  A    
C91   O43   A    
C43   C57   A    
C134  S7    S    
C82   H3    S    
O58   S12   D    
O89   S3    S    
C113  O65   A    
O39   Zn3   S    
C51   C60   A    
H24   O72   S    
C138  C155  A    
O28   Zn8   S    
O2    Zn8   S    
O66   S15   S    
O71   S17   D    
C9    O41   A    
C34   C37   A    
C24   C42   A    
C13   C41   A    
C78   C90   A    
O15   Zn1   S    
C70   H43   S    
C4    C114  S    
O75   S18   S    
O5    S10   S    
O87   Zn11  S    
C103  C111  A    
O42   Zn2   S    
O90   S4    D    
C87   H8    S    
H25   O75   S    
C149  O26   A    
C80   O32   A    
O84   S2    D    
C148  O16   A    
C68   H42   S    
C72   C81   A    
C56   C142  S    
C69   C125  S    
O55   S1    D    
C130  C139  A    
C79   C88   A    
C98   C151  A    
O56   S1    S    
H38   O8    S    
O69   S16   S    
O8    S11   S    
C29   Cl1   S    
C54   C62   A    
C21   Cl15  S    
C98   C107  A    
C98   H10   S    
C1    C123  S    
O92   S4    S    
C92   S3    S    
C18   C57   A    
C134  C152  A    
C11   C106  S    
C53   C145  S    
C48   C68   A    
O70   S17   D    
O45   Zn3   S    
O63   S15   D    
C28   Cl9   S    
H33   O102  S    
C103  C155  A    
C49   C70   A    
C21   C23   A    
C16   C66   A    
C73   C82   A    
O108  S9    S    
C46   C47   A    
C141  O98   A    
C102  O54   A    
C7    O39   A    
C17   C65   A    
C135  O87   A    
C82   C90   A    
C33   C41   A    
C11   O44   A    
C36   C38   A    
C43   C146  A    
C14   C22   A    
O25   Zn10  S    
O53   S1    D    
C39   C146  A    
C137  C154  A    
O59   S12   S    
C43   C52   A    
O35   Zn6   S    
C27   Cl10  S    
C20   C36   A    
O37   Zn4   S    
O61   S14   D    
C14   C68   A    
O43   Zn7   S    
C73   C96   A    
C3    C78   S    
H20   O62   S    
C77   C92   A    
H21   O66   S    
O20   Zn6   S    
O107  S9    D    
C143  O12   A    
C122  Cl8   S    
C71   C94   A    
C83   C92   A    
C59   C64   A    
O105  S8    S    
C113  C129  S    
C60   C63   A    
C17   C26   A    
O67   S16   D    
C131  C135  S    
O74   S18   D    
C46   H12   S    
C6    O38   A    
O32   Zn6   S    
C129  C138  A    
C141  O18   A    
C5    O48   A    
C31   C33   A    
C76   C88   A    
C15   C23   A    
H39   O11   S    
H26   O79   S    
C12   C32   A    
C10   C107  S    
C61   S1    S    
O54   Zn8   S    
C54   C149  S    
O23   Zn8   S    
C9    O52   A    
O96   S6    D    
C144  O22   A    
C105  C114  A    
C36   C40   A    
H30   O92   S    
C133  S6    S    
C75   C89   A    
C65   H34   S    
C12   C21   A    
O57   S12   D    
C49   C58   A    
C74   C153  S    
O13   Zn10  S    
O19   Zn5   S    
C128  C137  A    
O94   S5    D    
C85   C94   A    
C87   C96   A    
C10   O42   A    
C56   C63   A    
C17   C37   A    
C104  C156  A    
C50   C66   A    
O86   S3    D    
H32   O99   S    
O65   Zn9   S    
C45   C54   A    
C52   C147  S    
C148  O25   A    
C67   H41   S    
C72   C93   A    
C101  H14   S    
O31   Zn5   S    
C47   C55   A    
C125  C133  A    
C24   C49   A    
C48   C56   A    
O81   S20   D    
C74   C95   A    
C18   C27   A    
C19   C34   A    
C13   C48   A    
C97   H9    S    
C95   S19   S    
C26   C28   A    
O78   S19   D    
O34   Zn7   S    
C81   H2    S    
C8    C109  S    
C30   C32   A    
C75   C154  S    
C139  S11   S    
C139  C156  A    
C4    O47   A    
O72   S17   S    
C145  O23   A    
C6    O45   A    
O52   Zn12  S    
O4    S10   D    
C63   S14   S    
O1    Zn1   S    
C114  C122  A    
C53   C62   A    
C96   S18   S    
C80   O29   A    
O76   Zn10  S    
C3    C140  A    
C69   O21   A    
C97   C106  A    
