data_mof_unit_20128.cif
_audit_creation_date              2012-12-11T17:01:28-0500
_audit_creation_method            fapswitch 2.2
_symmetry_space_group_name_H-M    P1
_symmetry_Int_Tables_number       1
_space_group_crystal_system       triclinic
_cell_length_a                    15.06
_cell_length_b                    14.982364
_cell_length_c                    14.905884
_cell_angle_alpha                 109.659669
_cell_angle_beta                  109.114457
_cell_angle_gamma                 109.937547
_cell_volume                      2579.38512738

loop_
_atom_site_label
_atom_site_type_symbol
_atom_type_description
_atom_site_fract_x
_atom_site_fract_y
_atom_site_fract_z
_atom_type_partial_charge
C1    C     C_R   0.006940 0.804308 0.100166 -0.154954
C2    C     C_R   0.210962 0.805085 0.300612 -0.139464
C3    C     C_R   0.961424 0.412376 0.228174 -0.140176
C4    C     C_R   0.779936 0.250065 0.685193 -0.137665
C5    C     C_R   0.300735 0.592807 0.998409 -0.137901
C6    C     C_R   0.038864 0.506208 0.329981 0.085095
C7    C     C_R   0.301506 0.501934 0.935362 -0.007317
C8    C     C_R   0.304168 0.866865 0.301162 0.080403
C9    C     C_R   0.032409 0.205696 0.032974 0.083679
C10   C     C_3   0.475149 0.404583 0.839165 -0.391629
C11   C     C_3   0.370327 0.403290 0.830984 -0.400206
C12   C     C_R   0.676401 0.215323 0.671071 0.067192
C13   C     C_3   0.559997 0.495036 0.046754 -0.402614
C14   C     C_3   0.581529 0.610582 0.955939 -0.396508
C15   C     C_3   0.574966 0.503153 0.951379 0.387963
C16   C     C_R   0.098885 0.593032 0.795463 -0.120227
C17   C     C_3   0.398872 0.502853 0.936105 0.393427
C18   C     C_3   0.457347 0.496347 0.038599 -0.384183
C19   C     C_3   0.476320 0.609629 0.945195 -0.409042
C20   C     C_R   0.576241 0.117188 0.467454 0.158045
C21   C     C_R   0.576726 0.160698 0.566758 0.036668
C22   C     C_R   0.475983 0.135042 0.562791 -0.199592
C23   C     C_R   0.071760 0.503747 0.702530 0.080525
C24   C     C_R   0.380030 0.045284 0.467756 -0.193216
C25   C     C_R   0.385958 0.982774 0.377608 0.029994
C26   C     C_R   0.481736 0.029055 0.373743 0.154763
C27   C     C_3   0.542117 0.978228 0.335718 -0.520775
C28   C     C_R   0.684497 0.409420 0.950046 -0.142114
C29   C     C_3   0.645371 0.074584 0.438265 -0.506050
C30   C     C_R   0.137046 0.611713 0.531845 0.166229
C31   C     C_R   0.087967 0.512807 0.435046 -0.006129
C32   C     C_R   0.081306 0.419925 0.442441 -0.197068
C33   C     C_R   0.097663 0.420085 0.541184 -0.046547
C34   C     C_R   0.674957 0.501644 0.966080 0.000842
C35   C     C_R   0.112692 0.512259 0.627559 -0.100812
C36   C     C_R   0.148222 0.611418 0.626769 0.163122
C37   C     C_3   0.120969 0.700596 0.659676 -0.491380
C38   C     C_3   0.109714 0.701008 0.555724 -0.517709
C39   C     C_R   0.043401 0.024966 0.151579 0.171468
C40   C     C_R   0.006020 0.410698 0.700198 -0.149688
C41   C     C_R   0.098939 0.982480 0.108264 0.046176
C42   C     C_R   0.165881 0.043656 0.078870 -0.195175
C43   C     C_R   0.153068 0.126949 0.064763 -0.184526
C44   C     C_R   0.072511 0.147015 0.078774 0.057410
C45   C     C_R   0.061154 0.595438 0.315308 -0.140532
C46   C     C_R   0.026453 0.102636 0.132212 0.128102
C47   C     C_3   0.912663 0.052854 0.115175 -0.282596
C48   C     C_3   0.932768 0.969610 0.139878 -0.552312
C49   C     C_R   0.778072 0.593448 0.034150 -0.132812
C50   C     C_R   0.684883 0.238187 0.772886 -0.114512
C51   C     C_R   0.093712 0.804545 0.004711 -0.111917
C52   C     C_R   0.066812 0.867949 0.070397 0.092835
C53   C     C_2   0.097200 0.325101 0.551709 0.488822
C54   C     C_2   0.821558 0.999904 0.998967 0.585360
C55   C     C_R   0.209465 0.409575 0.905048 -0.156138
C56   C     C_R   0.299989 0.802168 0.207318 -0.147741
C57   C     C_R   0.960820 0.236622 0.051503 -0.121368
C58   C     C_R   0.057140 0.240535 0.964490 -0.114215
H1    H     H_    0.990804 0.832500 0.166691 0.101729
H2    H     H_    0.804202 0.247544 0.624462 0.111338
H3    H     H_    0.316109 0.324216 0.820947 0.150272
H4    H     H_    0.553642 0.417821 0.044128 0.155607
H5    H     H_    0.402707 0.420684 0.034018 0.154807
H6    H     H_    0.650592 0.684214 0.035477 0.150012
H7    H     H_    0.594209 0.618604 0.888932 0.166780
H8    H     H_    0.435411 0.614858 0.871544 0.158495
H9    H     H_    0.499396 0.684102 0.018897 0.150005
H10   H     H_    0.631607 0.565081 0.127514 0.159924
H11   H     H_    0.479492 0.568151 0.114694 0.161307
H12   H     H_    0.180492 0.324683 0.850048 0.090663
H13   H     H_    0.471977 0.173999 0.635909 0.123927
H14   H     H_    0.162623 0.676994 0.833106 0.094048
H15   H     H_    0.305394 0.017711 0.471021 0.128097
H16   H     H_    0.523219 0.899310 0.334874 0.205111
H17   H     H_    0.538164 0.976658 0.259358 0.186876
H18   H     H_    0.684517 0.049924 0.495248 0.204461
H19   H     H_    0.700759 0.128375 0.420867 0.195037
H20   H     H_    0.056968 0.346207 0.370477 0.163225
H21   H     H_    0.042244 0.672670 0.659348 0.208147
H22   H     H_    0.191131 0.778125 0.735137 0.181934
H23   H     H_    0.109045 0.228746 0.931806 0.090710
H24   H     H_    0.024905 0.673227 0.496304 0.202891
H25   H     H_    0.620556 0.327798 0.918630 0.081312
H26   H     H_    0.173957 0.778343 0.571554 0.188275
H27   H     H_    0.217051 0.018844 0.053274 0.119833
H28   H     H_    0.196983 0.165814 0.031447 0.119182
H29   H     H_    0.903704 0.107986 0.179023 0.126021
H30   H     H_    0.938772 0.979738 0.219426 0.199345
H31   H     H_    0.877216 0.883688 0.069693 0.208138
H32   H     H_    0.978170 0.326336 0.645007 0.090197
H33   H     H_    0.801837 0.679220 0.071284 0.093229
H34   H     H_    0.180445 0.835468 0.353029 0.085786
H35   H     H_    0.618383 0.212335 0.788408 0.085654
H36   H     H_    0.347444 0.828776 0.171075 0.097170
H37   H     H_    0.920282 0.216587 0.094420 0.067033
H38   H     H_    0.127825 0.332096 0.631974 -0.005189
H39   H     H_    0.750238 0.008148 0.985883 -0.029549
H40   H     H_    0.151694 0.832633 0.978803 0.080467
H41   H     H_    0.117705 0.681072 0.376204 0.109461
H42   H     H_    0.916998 0.331272 0.214512 0.089349
H43   H     H_    0.356285 0.678486 0.030949 0.084535
H44   H     H_    0.466819 0.324846 0.829452 0.143101
H45   H     H_    0.484977 0.411278 0.770466 0.163536
H46   H     H_    0.327140 0.406679 0.756805 0.155237
N1    N     N_R   0.995640 0.706130 0.053910 -0.037362
N2    N     N_R   0.054010 0.556790 0.847890 -0.039991
N3    N     N_R   0.789940 0.443190 0.997130 -0.035274
N4    N     N_R   0.997630 0.443170 0.791110 -0.038371
N5    N     N_R   0.846320 0.556810 0.053910 -0.036849
N6    N     N_R   0.791080 0.293860 0.847890 -0.040488
N7    N     N_R   0.052880 0.706130 0.997130 -0.040426
N8    N     N_R   0.002370 0.556830 0.208890 -0.043051
N9    N     N_R   0.153680 0.443190 0.946090 -0.032885
N10   N     N_R   0.208920 0.706140 0.152110 -0.039030
N11   N     N_R   0.947120 0.293870 0.002870 -0.042826
N12   N     N_R   0.004360 0.293870 0.946090 -0.043034
N13   N     N_R   0.151690 0.706140 0.208890 -0.038841
N14   N     N_R   0.945990 0.443210 0.152110 -0.041330
N15   N     N_R   0.210060 0.556810 0.002870 -0.033246
N16   N     N_R   0.848310 0.293860 0.791110 -0.040644
Ni1   Ni    Ni4+2 0.999010 0.630300 0.130220 0.206579
Ni2   Ni    Ni4+2 0.000990 0.369700 0.869780 0.216670
Ni3   Ni    Ni4+2 0.130280 0.630280 0.000000 0.202360
Ni4   Ni    Ni4+2 0.869720 0.369720 0.000000 0.214015
O1    O     O_2   0.065118 0.238821 0.471392 -0.602389
O2    O     O_2   0.826103 0.946728 0.919663 -0.572423

loop_
_geom_bond_atom_site_label_1
_geom_bond_atom_site_label_2
_ccdc_geom_bond_type
C6    C45   A    
C27   C29   S    
C41   C42   A    
C35   C36   A    
C16   H14   S    
C7    C55   A    
C3    C6    A    
C8    C56   A    
C45   N8    A    
C57   N11   A    
C29   H18   S    
C56   H36   S    
C37   H21   S    
C26   C27   S    
N12   Ni2   S    
C13   C18   S    
C5    N15   A    
C36   C37   S    
C10   C15   S    
C1    H1    S    
C30   C31   A    
C24   H15   S    
C28   N3    A    
N11   N12   A    
C50   N6    A    
C30   C38   S    
C19   H8    S    
C9    C58   A    
N13   Ni1   S    
N6    Ni4   S    
N9    N15   A    
C3    H42   S    
C11   C17   S    
C13   H4    S    
C47   C48   S    
N16   Ni2   S    
C7    C17   S    
N2    Ni3   S    
C48   H30   S    
C54   H39   S    
C19   H9    S    
C11   H46   S    
C4    C12   A    
C27   H16   S    
C15   C34   S    
C16   N2    A    
C40   N4    A    
C18   H11   S    
C6    C31   S    
N1    N7    A    
C28   C34   A    
C21   C22   A    
C38   H24   S    
C28   H25   S    
C58   N12   A    
C8    C25   S    
N3    N5    A    
N3    Ni4   S    
C49   H33   S    
C27   H17   S    
C2    N13   A    
C44   C46   A    
C20   C29   S    
C33   C53   S    
C37   H22   S    
C5    H43   S    
N9    Ni2   S    
N7    Ni3   S    
C51   C52   A    
N10   N13   A    
C10   H44   S    
C24   C25   A    
C39   C41   A    
C45   H41   S    
C58   H23   S    
N6    N16   A    
C5    C7    A    
C17   C19   S    
C55   N9    A    
C25   C26   A    
C12   C21   S    
C47   H29   S    
C43   C44   A    
C37   C38   S    
C3    N14   A    
C54   O2    D    
C31   C32   A    
C14   H6    S    
C4    H2    S    
C17   C18   S    
N1    Ni1   S    
C42   H27   S    
N14   Ni4   S    
C2    H34   S    
C9    C44   S    
C53   O1    D    
C39   C46   A    
N10   Ni3   S    
C16   C23   A    
C23   C35   S    
C48   H31   S    
C47   C54   S    
C22   C24   A    
C42   C43   A    
C22   H13   S    
C49   N5    A    
C46   C47   S    
C10   H45   S    
C34   C49   A    
C51   N7    A    
N11   Ni4   S    
C41   C52   S    
C38   H26   S    
C43   H28   S    
C14   C19   S    
C2    C8    A    
N4    Ni2   S    
C11   H3    S    
C12   C50   A    
C50   H35   S    
N15   Ni3   S    
C30   C36   A    
C32   C33   A    
C13   C15   S    
N8    Ni1   S    
C20   C26   A    
N8    N14   A    
N5    Ni1   S    
N2    N4    A    
C51   H40   S    
C33   C35   A    
C14   H7    S    
C9    C57   A    
C18   H5    S    
C1    C52   A    
C55   H12   S    
C10   C11   S    
C32   H20   S    
C29   H19   S    
C20   C21   A    
C57   H37   S    
C56   N10   A    
C14   C15   S    
C4    N16   A    
C40   H32   S    
C23   C40   A    
C1    N1    A    
C39   C48   S    
C53   H38   S    
C13   H10   S    
