data_mof_unit_26000.cif
_audit_creation_date              2012-10-26T17:13:05-0400
_audit_creation_method            fapswitch 2.2
_symmetry_space_group_name_H-M    P1
_symmetry_Int_Tables_number       1
_space_group_crystal_system       triclinic
_cell_length_a                    16.76926
_cell_length_b                    16.741253
_cell_length_c                    16.753705
_cell_angle_alpha                 67.982452
_cell_angle_beta                  67.855784
_cell_angle_gamma                 67.573362
_cell_volume                      3877.53720329

loop_
_atom_site_label
_atom_site_type_symbol
_atom_type_description
_atom_site_fract_x
_atom_site_fract_y
_atom_site_fract_z
_atom_type_partial_charge
Br1   Br    Br    0.325323 0.899063 0.863310 -0.285047
Br2   Br    Br    0.238851 0.806325 0.099487 -0.253473
Br3   Br    Br    0.894742 0.755089 0.200760 -0.264257
Br4   Br    Br    0.099219 0.246550 0.801154 -0.263622
Br5   Br    Br    0.543527 0.829569 0.827329 -0.456887
Br6   Br    Br    0.439215 0.173680 0.175161 -0.430989
Br7   Br    Br    0.831886 0.829032 0.537454 -0.447745
Br8   Br    Br    0.167471 0.171670 0.462775 -0.428931
Br9   Br    Br    0.767437 0.371147 0.131844 -0.280780
Br10  Br    Br    0.169588 0.468799 0.165488 -0.428054
Br11  Br    Br    0.259699 0.808702 0.590512 -0.397287
Br12  Br    Br    0.642801 0.167589 0.146323 -0.319263
Br13  Br    Br    0.758562 0.180546 0.400473 -0.353826
Br14  Br    Br    0.595578 0.259257 0.818008 -0.401370
Br15  Br    Br    0.399710 0.751491 0.185654 -0.393500
Br16  Br    Br    0.811243 0.591480 0.259090 -0.388415
Br17  Br    Br    0.187070 0.407925 0.741146 -0.389007
Br18  Br    Br    0.906978 0.863534 0.319231 -0.289745
Br19  Br    Br    0.090070 0.137540 0.681188 -0.280124
Br20  Br    Br    0.857799 0.308533 0.939684 -0.294407
Br21  Br    Br    0.134944 0.688790 0.079194 -0.273217
Br22  Br    Br    0.205498 0.887537 0.756792 -0.256278
Br23  Br    Br    0.606338 0.283438 0.294959 -0.286207
Br24  Br    Br    0.756469 0.196281 0.905922 -0.261990
C1    C     C_R   0.325365 0.949855 0.451066 0.034753
C2    C     C_R   0.308434 0.430521 0.010252 0.018270
C3    C     C_R   0.543352 0.418377 0.981047 -0.006941
C4    C     C_R   0.032904 0.453357 0.576276 -0.019804
C5    C     C_R   0.965804 0.547334 0.423522 -0.014665
C6    C     C_R   0.988964 0.690495 0.571186 0.010871
C7    C     C_R   0.010290 0.309985 0.428632 0.014139
C8    C     C_R   0.447092 0.994778 0.453952 0.025312
C9    C     C_R   0.545440 0.011388 0.549006 0.025728
C10   C     C_R   0.992280 0.452712 0.450293 0.024578
C11   C     C_R   0.006661 0.547946 0.549430 0.018052
C12   C     C_R   0.449525 0.450110 0.998258 0.026645
C13   C     C_R   0.541407 0.542475 0.027030 0.027115
C14   C     C_R   0.014181 0.831372 0.569770 0.572867
C15   C     C_R   0.670013 0.054962 0.550027 0.031935
C16   C     C_R   0.985651 0.168712 0.430235 0.571801
C17   C     C_R   0.828756 0.565616 0.025521 0.555899
C18   C     C_R   0.168664 0.430341 0.985355 0.570299
C19   C     C_R   0.570056 0.013572 0.831525 0.570129
C20   C     C_R   0.430307 0.985079 0.169081 0.573504
C21   C     C_R   0.435610 0.171931 0.970710 0.579693
C22   C     C_R   0.564324 0.827975 0.029433 0.573939
C23   C     C_R   0.970918 0.435578 0.171783 0.583297
C24   C     C_R   0.028388 0.564659 0.828265 0.556533
C25   C     C_R   0.171993 0.969751 0.435900 0.578110
C26   C     C_R   0.952740 0.450209 0.324645 0.033217
C27   C     C_R   0.827669 0.030111 0.564154 0.577485
C28   C     C_R   0.400165 0.984547 0.405613 -0.001005
C29   C     C_R   0.595484 0.018852 0.596281 -0.001560
C30   C     C_R   0.984701 0.404514 0.401405 -0.001855
C31   C     C_R   0.014218 0.596004 0.598486 -0.014320
C32   C     C_R   0.402716 0.402236 0.987268 0.001319
C33   C     C_R   0.589231 0.589346 0.038187 -0.004412
C34   C     C_R   0.270688 0.955670 0.400104 0.017430
C35   C     C_R   0.728406 0.043991 0.600272 0.015483
C36   C     C_R   0.958781 0.399188 0.269902 0.021071
C37   C     C_R   0.045834 0.550181 0.675504 0.012573
C38   C     C_R   0.040057 0.601109 0.730215 0.002017
C39   C     C_R   0.399389 0.270444 0.959083 0.019542
C40   C     C_R   0.598265 0.728388 0.046509 0.015293
C41   C     C_R   0.612013 0.010545 0.737332 -0.000767
C42   C     C_R   0.388490 0.986753 0.263995 0.002721
C43   C     C_R   0.730649 0.599479 0.039185 0.001172
C44   C     C_R   0.262671 0.389218 0.988070 0.000135
C45   C     C_R   0.010985 0.737320 0.611569 0.000059
C46   C     C_R   0.988418 0.262941 0.388396 -0.001553
C47   C     C_R   0.511219 0.935901 0.733867 0.197581
C48   C     C_R   0.449560 0.324451 0.956281 0.038135
C49   C     C_R   0.479683 0.071704 0.268332 0.196633
C50   C     C_R   0.939272 0.734768 0.507640 0.192865
C51   C     C_R   0.059896 0.265877 0.492204 0.197492
C52   C     C_R   0.716220 0.457346 0.035806 0.206541
C53   C     C_R   0.263165 0.496341 0.057870 0.199111
C54   C     C_R   0.308340 0.910415 0.544432 0.203483
C55   C     C_R   0.678312 0.104671 0.458775 0.197690
C56   C     C_R   0.543907 0.304106 0.923037 0.205190
C57   C     C_R   0.450496 0.698590 0.085994 0.211388
C58   C     C_R   0.914311 0.544039 0.306474 0.204178
C59   C     C_R   0.545289 0.674298 0.055065 0.038039
C60   C     C_R   0.083888 0.456312 0.693788 0.197771
C61   C     C_R   0.308046 0.963823 0.308629 -0.123074
C62   C     C_R   0.693165 0.031922 0.692521 -0.129471
C63   C     C_R   0.967774 0.307465 0.306693 -0.119296
C64   C     C_R   0.031382 0.692753 0.693368 -0.129592
C65   C     C_R   0.308045 0.307749 0.966664 -0.125576
C66   C     C_R   0.689282 0.688849 0.041431 -0.128327
C67   C     C_R   0.622300 0.103703 0.412808 0.012256
C68   C     C_R   0.351698 0.924404 0.594672 0.014697
C69   C     C_R   0.068788 0.406518 0.651077 0.004232
C70   C     C_R   0.571921 0.988602 0.690318 0.017319
C71   C     C_R   0.929264 0.594114 0.349110 0.014207
C72   C     C_R   0.400992 0.655216 0.070903 0.016914
C73   C     C_R   0.591936 0.342871 0.945665 0.022164
C74   C     C_R   0.530409 0.079757 0.314679 0.014167
C75   C     C_R   0.453824 0.937331 0.689367 0.009306
C76   C     C_R   0.307632 0.554297 0.054504 0.007921
C77   C     C_R   0.678971 0.423131 0.997921 0.003311
C78   C     C_R   0.056509 0.311193 0.549702 0.008030
C79   C     C_R   0.942268 0.689529 0.450185 0.008699
C80   C     C_R   0.621640 0.156958 0.324986 0.231487
C81   C     C_R   0.425989 0.011952 0.311224 0.015311
C82   C     C_R   0.323315 0.904122 0.689588 0.215275
C83   C     C_R   0.086105 0.311772 0.681769 0.209977
C84   C     C_R   0.911069 0.689021 0.318898 0.215305
C85   C     C_R   0.306504 0.687559 0.084060 0.218468
C86   C     C_R   0.685967 0.308454 0.936219 0.226233
C87   C     C_R   0.589866 0.133889 0.273141 0.215816
C88   C     C_R   0.374738 0.909765 0.736392 0.200325
C89   C     C_R   0.260395 0.636782 0.076402 0.200943
C90   C     C_R   0.728703 0.348698 0.962577 0.202177
C91   C     C_R   0.080847 0.264419 0.630684 0.200189
C92   C     C_R   0.680067 0.548424 0.037563 0.005350
C93   C     C_R   0.917026 0.736355 0.369637 0.201861
C94   C     C_R   0.514806 0.039492 0.408003 -0.014711
C95   C     C_R   0.474002 0.971259 0.595539 -0.014916
C96   C     C_R   0.026014 0.405778 0.526268 -0.015171
C97   C     C_R   0.972876 0.594934 0.473458 -0.016046
C98   C     C_R   0.401847 0.528122 0.029430 -0.012767
C99   C     C_R   0.588107 0.461915 0.000658 -0.009085
C100  C     C_R   0.563111 0.048966 0.456095 -0.014092
C101  C     C_R   0.423832 0.963883 0.548159 -0.014057
C102  C     C_R   0.448176 0.576766 0.040216 -0.011663
Cu1   Cu    Cu3+1 0.995180 0.995180 0.424630 1.178022
Cu2   Cu    Cu3+1 0.004820 0.004820 0.575370 1.180384
Cu3   Cu    Cu3+1 0.995180 0.424630 0.995180 1.183885
Cu4   Cu    Cu3+1 0.004820 0.575370 0.004820 1.181171
Cu5   Cu    Cu3+1 0.424630 0.995180 0.995180 1.183533
Cu6   Cu    Cu3+1 0.575370 0.004820 0.004820 1.169892
H1    H     H_    0.271903 0.956839 0.271063 0.184770
H2    H     H_    0.730777 0.036057 0.730419 0.181818
H3    H     H_    0.962034 0.269758 0.269786 0.189070
H4    H     H_    0.037272 0.730379 0.730261 0.184557
H5    H     H_    0.271085 0.271179 0.959490 0.182537
H6    H     H_    0.729421 0.729326 0.035826 0.179183
O1    O     O_R   0.124540 0.978640 0.385460 -0.514846
O2    O     O_R   0.124540 0.385460 0.978640 -0.490075
O3    O     O_R   0.021360 0.875460 0.614540 -0.493524
O4    O     O_R   0.978640 0.124540 0.385460 -0.492838
O5    O     O_R   0.013780 0.867370 0.487190 -0.474044
O6    O     O_R   0.986220 0.132630 0.512810 -0.475974
O7    O     O_R   0.867370 0.487190 0.013780 -0.478413
O8    O     O_R   0.132630 0.512810 0.986220 -0.474795
O9    O     O_R   0.487190 0.013780 0.867370 -0.474139
O10   O     O_R   0.512810 0.986220 0.132630 -0.479615
O11   O     O_R   0.512810 0.132630 0.986220 -0.446351
O12   O     O_R   0.875460 0.021360 0.614540 -0.515798
O13   O     O_R   0.487190 0.867370 0.013780 -0.443762
O14   O     O_R   0.986220 0.512810 0.132630 -0.446625
O15   O     O_R   0.013780 0.487190 0.867370 -0.470630
O16   O     O_R   0.132630 0.986220 0.512810 -0.443110
O17   O     O_R   0.867370 0.013780 0.487190 -0.440119
O18   O     O_R   0.978640 0.385460 0.124540 -0.498180
O19   O     O_R   0.021360 0.614540 0.875460 -0.510785
O20   O     O_R   0.385460 0.124540 0.978640 -0.512647
O21   O     O_R   0.614540 0.875460 0.021360 -0.516323
O22   O     O_R   0.614540 0.021360 0.875460 -0.494373
O23   O     O_R   0.385460 0.978640 0.124540 -0.489113
O24   O     O_R   0.875460 0.614540 0.021360 -0.494621

loop_
_geom_bond_atom_site_label_1
_geom_bond_atom_site_label_2
_ccdc_geom_bond_type
Cu3   O15   S    
C24   O15   A    
Br13  C55   S    
Br2   C85   S    
C77   C90   A    
C16   O4    A    
C56   C73   A    
Cu4   O8    S    
C14   O5    A    
C6    C31   A    
Cu5   O13   S    
C40   C66   A    
C67   C80   A    
C68   C101  A    
C42   C61   A    
C41   C62   A    
Br15  C57   S    
C47   C70   A    
C82   C88   A    
C52   C92   A    
C27   O17   A    
C26   C30   A    
C16   C46   S    
Cu4   O19   S    
C13   C102  A    
Br1   C88   S    
C6    C50   A    
C23   O18   A    
C22   O21   A    
C53   C76   A    
C8    C28   A    
C78   C91   A    
C57   C59   A    
C23   C36   S    
C13   C99   A    
C49   C81   A    
C62   H2    S    
C7    C46   A    
C27   O12   A    
C32   C48   A    
C5    C97   A    
C51   C78   A    
C33   C59   A    
Cu5   O9    S    
C74   C87   A    
Br9   C52   S    
Br14  C56   S    
C33   C92   A    
Cu2   O3    S    
C86   C90   A    
C55   C67   A    
C85   C89   A    
Cu4   O24   S    
C22   O13   A    
C14   C45   S    
C7    C30   A    
C17   O24   A    
C18   C44   S    
Cu6   O11   S    
C79   C93   A    
Cu1   O1    S    
C46   C63   A    
C66   H6    S    
Br10  C53   S    
C74   C94   A    
Br7   C50   S    
C9    C29   A    
C49   C74   A    
Br4   C83   S    
Cu6   O21   S    
C21   O20   A    
C11   C31   A    
C1    C54   A    
C2    C53   A    
C63   H3    S    
C25   O16   A    
C11   C97   A    
Br24  C86   S    
C4    C11   A    
C76   C98   A    
Br21  C89   S    
C19   O22   A    
C4    C96   A    
Cu1   O17   S    
C5    C71   A    
C57   C72   A    
C3    C99   A    
C94   C100  A    
C54   C68   A    
Br22  C82   S    
C18   O2    A    
C5    C10   A    
C21   C39   S    
Br8   C51   S    
C25   C34   S    
C22   C40   S    
C4    C69   A    
Cu1   O4    S    
C36   C63   A    
C8    C101  A    
C98   C102  A    
Cu5   O20   S    
C12   C98   A    
C43   C92   A    
C40   C59   A    
C12   C32   A    
Br11  C54   S    
Cu3   O18   S    
C7    C51   A    
Br23  C80   S    
Br19  C91   S    
C19   C41   S    
C15   C35   A    
C39   C65   A    
Br16  C58   S    
C44   C65   A    
C72   C102  A    
Cu1   O5    S    
C23   O14   A    
Cu2   O6    S    
Br18  C93   S    
C64   H4    S    
C20   C42   S    
C45   C64   A    
C77   C99   A    
C95   C101  A    
C68   C82   A    
C41   C70   A    
C28   C81   A    
C10   C30   A    
C65   H5    S    
C67   C100  A    
C16   O6    A    
Cu4   O14   S    
Br3   C84   S    
C14   O3    A    
C27   C35   S    
C20   O23   A    
C42   C81   A    
Cu5   Cu6   S    
C18   O8    A    
C34   C61   A    
C24   C38   S    
C6    C45   A    
C78   C96   A    
C26   C58   A    
Br6   C49   S    
Cu3   Cu4   S    
C72   C85   A    
Cu2   O12   S    
C52   C77   A    
C3    C73   A    
C58   C71   A    
C29   C70   A    
Cu6   O10   S    
Cu3   O7    S    
C84   C93   A    
C76   C89   A    
C8    C94   A    
C37   C60   A    
C2    C32   A    
C80   C87   A    
C9    C95   A    
Cu2   O16   S    
C3    C12   A    
C24   O19   A    
Br17  C60   S    
C2    C44   A    
C25   O1    A    
C1    C28   A    
C26   C36   A    
C48   C56   A    
C69   C83   A    
Br20  C90   S    
C73   C86   A    
C15   C29   A    
Cu3   O2    S    
C38   C64   A    
C75   C88   A    
C31   C37   A    
C20   O10   A    
C83   C91   A    
C21   O11   A    
C60   C69   A    
C43   C66   A    
C17   C43   S    
C47   C75   A    
C37   C38   A    
C35   C62   A    
C19   O9    A    
C71   C84   A    
C75   C95   A    
C17   O7    A    
C39   C48   A    
C10   C96   A    
Br5   C47   S    
C1    C34   A    
C61   H1    S    
C9    C100  A    
Cu5   O23   S    
Cu6   O22   S    
Br12  C87   S    
C13   C33   A    
Cu1   Cu2   S    
C15   C55   A    
C50   C79   A    
C79   C97   A    
