data_mof_unit_43946.cif
_audit_creation_date              2013-03-05T15:46:23-0500
_audit_creation_method            fapswitch 2.2
_symmetry_space_group_name_H-M    P1
_symmetry_Int_Tables_number       1
_space_group_crystal_system       triclinic
_cell_length_a                    10.883496
_cell_length_b                    10.905959
_cell_length_c                    18.737893
_cell_angle_alpha                 90.084965
_cell_angle_beta                  90.363462
_cell_angle_gamma                 60.311024
_cell_volume                      1932.08727476

loop_
_atom_site_label
_atom_site_type_symbol
_atom_site_description
_atom_site_fract_x
_atom_site_fract_y
_atom_site_fract_z
_atom_type_partial_charge
O1    O     O_R   0.748800 0.497470 0.428000 -0.535142
O2    O     O_R   0.476420 0.724060 0.429470 -0.522624
C1    C     C_R   0.357889 0.775067 0.397724 0.536630
O3    O     O_R   0.264580 0.744340 0.416750 -0.505484
O4    O     O_R   0.309380 0.472470 0.418200 -0.493642
C2    C     C_R   0.386820 0.355507 0.387044 0.528804
O5    O     O_R   0.501710 0.260430 0.414300 -0.534633
O6    O     O_R   0.728090 0.305600 0.428960 -0.499204
C3    C     C_R   0.712557 0.416098 0.394705 0.555450
O7    O     O_R   0.738760 0.495930 0.588610 -0.523815
O8    O     O_R   0.467110 0.722640 0.578360 -0.508466
C4    C     C_R   0.344397 0.768803 0.604741 0.548175
O9    O     O_R   0.254530 0.742800 0.577360 -0.522229
O10   O     O_R   0.300070 0.471040 0.567100 -0.497782
C5    C     C_R   0.373328 0.352328 0.597723 0.547596
O11   O     O_R   0.491670 0.258900 0.574910 -0.520963
O12   O     O_R   0.718780 0.304180 0.577850 -0.494608
C6    C     C_R   0.760295 0.378429 0.611517 0.546767
Cr1   Cr    Cr6+3 0.601770 0.606860 0.505860 0.993770
Cr2   Cr    Cr6+3 0.291380 0.601660 0.495070 1.020810
Cr3   Cr    Cr6+3 0.606880 0.291510 0.499120 1.011398
O13   O     O_3   0.500010 0.500010 0.500020 -0.268723
C7    C     C_R   0.849768 0.911300 0.091398 -0.104078
C8    C     C_R   0.785358 0.049826 0.066104 -0.055524
C9    C     C_R   0.671446 0.157726 0.102697 -0.047343
C10   C     C_R   0.617049 0.126987 0.163867 0.052213
H1    H     H_    0.579680 0.170380 0.300977 0.142687
C11   C     C_R   0.361081 0.333414 0.161535 -0.003333
C12   C     C_R   0.483754 0.243830 0.272908 -0.147749
C13   C     C_R   0.485933 0.238610 0.199068 -0.025491
C14   C     C_R   0.066462 0.705962 0.283808 -0.089927
C15   C     C_R   0.947991 0.816785 0.316162 -0.117287
C16   C     C_R   0.683734 0.986845 0.189070 -0.106678
C17   C     C_R   0.798939 0.879850 0.152821 -0.129008
C18   C     C_R   0.247297 0.442372 0.198251 -0.151411
C19   C     C_R   0.246126 0.449072 0.272485 -0.036028
C20   C     C_R   0.880772 0.789382 0.371971 -0.117144
C21   C     C_R   0.931309 0.650918 0.395188 -0.096315
C22   C     C_R   0.047779 0.539237 0.361936 -0.048682
C23   C     C_R   0.118656 0.565961 0.306874 0.055463
C24   C     C_R   0.365243 0.344939 0.310613 -0.002721
H2    H     H_    0.847787 0.772116 0.171945 0.124640
H3    H     H_    0.908627 0.924180 0.298152 0.112700
H4    H     H_    0.938243 0.828163 0.063052 0.117927
H5    H     H_    0.822804 0.073386 0.017603 0.170098
H6    H     H_    0.621711 0.263993 0.081497 0.111326
H7    H     H_    0.118209 0.729488 0.241109 0.119413
H8    H     H_    0.644753 0.959370 0.235892 0.103447
H9    H     H_    0.152843 0.516726 0.169326 0.137650
H10   H     H_    0.789971 0.875501 0.397443 0.111610
H11   H     H_    0.881113 0.630603 0.439607 0.141590
H12   H     H_    0.085677 0.432568 0.380629 0.098971
C25   C     C_R   0.905092 0.324609 0.308109 -0.120382
H13   H     H_    0.981536 0.291980 0.351278 0.120080
C26   C     C_R   0.950997 0.304729 0.238247 -0.139298
H14   H     H_    0.062814 0.260298 0.227569 0.113329
C27   C     C_R   0.853300 0.341486 0.182382 0.037683
C28   C     C_R   0.708279 0.407124 0.195920 -0.134884
H15   H     H_    0.632134 0.441341 0.152586 0.108365
C29   C     C_R   0.661647 0.430721 0.266228 -0.149616
H16   H     H_    0.549308 0.482943 0.277170 0.110671
C30   C     C_R   0.760526 0.388208 0.322022 0.034934
C31   C     C_R   0.454900 0.824435 0.288620 -0.145981
H17   H     H_    0.561807 0.761873 0.309004 0.134080
C32   C     C_R   0.435150 0.866866 0.217291 -0.135038
H18   H     H_    0.526440 0.837341 0.183982 0.138197
C33   C     C_R   0.298366 0.935723 0.188234 0.023953
C34   C     C_R   0.181784 0.970226 0.232075 -0.154867
H19   H     H_    0.075414 0.021813 0.210289 0.138757
C35   C     C_R   0.201069 0.931310 0.303233 -0.141624
H20   H     H_    0.109643 0.955570 0.335465 0.134875
C36   C     C_R   0.337681 0.851204 0.330831 0.026777
C37   C     C_R   0.467474 0.283264 0.717597 -0.113117
H21   H     H_    0.573515 0.239169 0.696492 0.170242
C38   C     C_R   0.451690 0.283654 0.790523 0.204504
C39   C     C_R   0.314663 0.338906 0.818080 0.016683
C40   C     C_R   0.195232 0.408472 0.773400 -0.179078
H22   H     H_    0.089143 0.451364 0.794221 0.153874
C41   C     C_R   0.212413 0.411597 0.700328 -0.158375
H23   H     H_    0.120437 0.463217 0.665730 0.135369
C42   C     C_R   0.348656 0.343144 0.672327 -0.009019
C43   C     C_R   0.873934 0.220446 0.715242 -0.157165
H24   H     H_    0.930670 0.130348 0.680437 0.131333
C44   C     C_R   0.893438 0.204197 0.788631 -0.102150
H25   H     H_    0.970428 0.101684 0.809375 0.153948
C45   C     C_R   0.822345 0.321278 0.834317 0.078870
C46   C     C_R   0.723666 0.454009 0.806292 0.244295
C47   C     C_R   0.709185 0.469660 0.732911 -0.068906
H26   H     H_    0.635317 0.572223 0.711229 0.159991
C48   C     C_R   0.786701 0.354676 0.687348 -0.032373
C49   C     C_R   0.214015 0.804606 0.716054 -0.134146
H27   H     H_    0.138887 0.781519 0.689739 0.149531
C50   C     C_R   0.208058 0.816481 0.789295 -0.144317
H28   H     H_    0.124872 0.809686 0.817348 0.148114
C51   C     C_R   0.304535 0.843666 0.825201 0.047238
C52   C     C_R   0.409678 0.855097 0.787120 -0.077278
H29   H     H_    0.484699 0.878112 0.813616 0.177656
C53   C     C_R   0.415993 0.842620 0.713773 -0.148439
H30   H     H_    0.498927 0.849379 0.685437 0.133879
C54   C     C_R   0.319270 0.815748 0.677985 0.017351
O14   O     O_R   0.186690 0.923650 0.086970 -0.519659
O15   O     O_R   0.957250 0.194250 0.084630 -0.536008
C55   C     C_R   0.906779 0.317509 0.110715 0.528911
O16   O     O_R   0.934970 0.407490 0.085330 -0.510727
O17   O     O_R   0.203780 0.365190 0.067090 -0.510991
C56   C     C_R   0.330102 0.295406 0.091604 0.538002
O18   O     O_R   0.417600 0.174890 0.067840 -0.503773
O19   O     O_R   0.375320 0.946260 0.070860 -0.495136
C57   C     C_R   0.271509 0.963980 0.112001 0.560975
O20   O     O_R   0.160600 0.919630 0.926660 -0.525634
O21   O     O_R   0.933060 0.190520 0.936020 -0.505244
C58   C     C_R   0.879873 0.309466 0.905560 0.547074
O22   O     O_R   0.908880 0.403460 0.925020 -0.508273
O23   O     O_R   0.179600 0.361450 0.918490 -0.513508
C59   C     C_R   0.297346 0.292309 0.887264 0.581014
O24   O     O_R   0.391510 0.170860 0.907530 -0.462288
O25   O     O_R   0.351130 0.942530 0.922260 -0.499171
C60   C     C_R   0.276362 0.893306 0.898018 0.558893
Cr4   Cr    Cr6+3 0.062440 0.063090 0.008210 0.998974
Cr5   Cr    Cr6+3 0.062880 0.375170 0.998920 1.020514
Cr6   Cr    Cr6+3 0.374700 0.061720 0.992470 1.068895
O26   O     O_3   0.166667 0.166667 0.999870 -0.280601
N1    N     N_R   0.575151 0.221292 0.835666 0.079953
O27   O     O_R   0.575589 0.279219 0.896391 -0.368799
O28   O     O_R   0.686646 0.104452 0.816824 -0.367232
O29   O     O_3   0.643645 0.570765 0.848266 -0.701026
H31   H     H_    0.643315 0.539413 0.897825 0.343238

loop_
_geom_bond_atom_site_label_1
_geom_bond_atom_site_label_2
_geom_bond_distance
_ccdc_geom_bond_type
C26   H14   1.083732 S    
C31   C32   1.395120 A    
C50   H28   1.083555 S    
H1    C12   1.083567 S    
C37   H21   1.083996 S    
C51   C52   1.409300 A    
C17   H2    1.082403 S    
O19   Cr6   1.933943 S    
C46   C47   1.384161 A    
O20   C60   1.267913 A    
O23   C59   1.266553 A    
N1    O27   1.301790 A    
C5    C42   1.438106 S    
O4    Cr2   1.955079 S    
C40   H22   1.083657 S    
C14   C23   1.407278 A    
C4    O9    1.252284 A    
O8    Cr1   1.942893 S    
C12   C13   1.384555 A    
C38   N1    1.437215 S    
C8    H5    1.080345 S    
C29   C30   1.399638 A    
C44   C45   1.410117 A    
C21   C22   1.398892 A    
N1    O28   1.301249 A    
C56   O18   1.263494 A    
C28   C29   1.391953 A    
C5    O11   1.259173 A    
C39   C59   1.440223 S    
O19   C57   1.304778 A    
O21   Cr4   1.945985 S    
O25   Cr6   1.951209 S    
C44   H25   1.082723 S    
C33   C57   1.458652 S    
C18   C19   1.392606 A    
C11   C18   1.403433 A    
C11   C56   1.460740 S    
C34   H19   1.083002 S    
C32   C33   1.400030 A    
C2    C24   1.463398 S    
C52   C53   1.379678 A    
C18   H9    1.084692 S    
C7    C8    1.395448 A    
O17   Cr5   1.950720 S    
C35   H20   1.082226 S    
C49   C54   1.408685 A    
O9    Cr2   2.072935 S    
C25   C26   1.382168 A    
C22   H12   1.081764 S    
C50   C51   1.393512 A    
C14   H7    1.082879 S    
Cr3   O13   1.975843 S    
C37   C38   1.378052 A    
C19   C24   1.418835 A    
C37   C42   1.403372 A    
C58   O22   1.265482 A    
Cr5   O26   1.975472 S    
C16   C17   1.397930 A    
C40   C41   1.385857 A    
C51   C60   1.444813 S    
C27   C55   1.438253 S    
O1    Cr1   2.060527 S    
O24   Cr6   2.051448 S    
C3    C30   1.438878 S    
O14   Cr4   2.064822 S    
O10   Cr2   1.931459 S    
C19   C23   1.490629 S    
Cr1   O13   1.967988 S    
O1    C3    1.293975 A    
C8    C9    1.398257 A    
C49   H27   1.083300 S    
C41   C42   1.394078 A    
C45   C46   1.407024 A    
O6    C3    1.300740 A    
C21   H11   1.080053 S    
C28   H15   1.082303 S    
C25   H13   1.082678 S    
C43   H24   1.083657 S    
O12   Cr3   1.954969 S    
C7    H4    1.082425 S    
C33   C34   1.402037 A    
C29   H16   1.083653 S    
C6    C48   1.445982 S    
C45   C58   1.449381 S    
C38   C39   1.404443 A    
C20   C21   1.395813 A    
C49   C50   1.377214 A    
O22   Cr5   2.069159 S    
C25   C30   1.395787 A    
C10   C16   1.408793 A    
C14   C15   1.398163 A    
O7    Cr1   2.068868 S    
C7    C17   1.394819 A    
C52   H29   1.083346 S    
O12   C6    1.270870 A    
C15   C20   1.394744 A    
C39   C40   1.406163 A    
Cr6   O26   1.972818 S    
Cr2   O13   1.974197 S    
C10   C13   1.497366 S    
C53   C54   1.392759 A    
C26   C27   1.397125 A    
O18   Cr6   2.071989 S    
C1    O3    1.269947 A    
C22   C23   1.406473 A    
Cr4   O26   1.964498 S    
O21   C58   1.264030 A    
C12   C24   1.406806 A    
O2    Cr1   1.948616 S    
C47   C48   1.403983 A    
C31   H17   1.083492 S    
O6    Cr3   1.927585 S    
O20   Cr4   2.069324 S    
O8    C4    1.274008 A    
O11   Cr3   2.044837 S    
C2    O5    1.268323 A    
O17   C56   1.279416 A    
C43   C44   1.388266 A    
C43   C48   1.391691 A    
C11   C13   1.417168 A    
C1    C36   1.458634 S    
C9    C10   1.408202 A    
O5    Cr3   2.076224 S    
O25   C60   1.258578 A    
C20   H10   1.082474 S    
C27   C28   1.397593 A    
O4    C2    1.271755 A    
O7    C6    1.258626 A    
O29   H31   0.990696 S    
C31   C36   1.407679 A    
C15   H3    1.082379 S    
O2    C1    1.268013 A    
C32   H18   1.082011 S    
O15   C55   1.271878 A    
C4    C54   1.443773 S    
C41   H23   1.083451 S    
O3    Cr2   2.052282 S    
C47   H26   1.081182 S    
C34   C35   1.382719 A    
C53   H30   1.083586 S    
C55   O16   1.258931 A    
C16   H8    1.082107 S    
O10   C5    1.270828 A    
C35   C36   1.395043 A    
O14   C57   1.289075 A    
C9    H6    1.082199 S    
C46   O29   1.380461 S    
O23   Cr5   1.934620 S    
O15   Cr4   1.949304 S    
C59   O24   1.265214 A    
O16   Cr5   2.055398 S    
