data_mof_unit_23425.cif
_audit_creation_date              2012-12-11T17:26:00-0500
_audit_creation_method            fapswitch 2.2
_symmetry_space_group_name_H-M    P1
_symmetry_Int_Tables_number       1
_space_group_crystal_system       triclinic
_cell_length_a                    22.766672
_cell_length_b                    22.608601
_cell_length_c                    23.610062
_cell_angle_alpha                 90.952405
_cell_angle_beta                  89.512355
_cell_angle_gamma                 90.251414
_cell_volume                      12150.4039819

loop_
_atom_site_label
_atom_site_type_symbol
_atom_type_description
_atom_site_fract_x
_atom_site_fract_y
_atom_site_fract_z
_atom_type_partial_charge
C1    C     C_R   0.849241 0.082295 0.431289 0.640869
C2    C     C_R   0.133695 0.935297 0.601218 0.547021
C3    C     C_R   0.934733 0.863165 0.399506 0.572428
C4    C     C_R   0.081264 0.152083 0.568032 0.598127
C5    C     C_R   0.150566 0.917114 0.429070 0.612275
C6    C     C_R   0.864874 0.066854 0.600853 0.551753
C7    C     C_R   0.067100 0.135897 0.400501 0.567243
C8    C     C_R   0.917465 0.848273 0.566769 0.600067
C9    C     C_R   0.150811 0.083018 0.569517 0.606456
C10   C     C_R   0.865292 0.932407 0.399439 0.560016
C11   C     C_R   0.062915 0.867344 0.602640 0.582217
C12   C     C_R   0.919449 0.151943 0.433391 0.615929
C13   C     C_R   0.848359 0.918224 0.566602 0.639733
C14   C     C_R   0.136219 0.067530 0.400072 0.552393
C15   C     C_R   0.934491 0.136338 0.600962 0.582123
C16   C     C_R   0.080891 0.847792 0.432618 0.592692
C17   C     C_R   0.349196 0.582111 0.931206 0.644281
C18   C     C_R   0.633891 0.435212 0.101037 0.547740
C19   C     C_R   0.434756 0.363142 0.899529 0.570080
C20   C     C_R   0.581340 0.652251 0.067127 0.591947
C21   C     C_R   0.650731 0.416920 0.929978 0.575733
C22   C     C_R   0.364883 0.566868 0.100828 0.551296
C23   C     C_R   0.568021 0.638571 0.903301 0.580998
C24   C     C_R   0.417254 0.348520 0.067663 0.598628
C25   C     C_R   0.650913 0.583198 0.068878 0.612924
C26   C     C_R   0.365239 0.432317 0.899471 0.561206
C27   C     C_R   0.563286 0.367040 0.102399 0.581320
C28   C     C_R   0.419223 0.651917 0.933566 0.567084
C29   C     C_R   0.348303 0.418678 0.066917 0.640808
C30   C     C_R   0.637656 0.568149 0.901605 0.568987
C31   C     C_R   0.434692 0.636246 0.101018 0.582084
C32   C     C_R   0.580879 0.347722 0.932922 0.592593
C33   C     C_1   0.218110 0.228438 0.607546 -0.025796
C34   C     C_1   0.845679 0.851760 0.268755 -0.014702
C35   C     C_1   0.844490 0.145989 0.732374 -0.015546
C36   C     C_1   0.216363 0.770437 0.392668 -0.025434
C37   C     C_1   0.775881 0.779158 0.607236 -0.016696
C38   C     C_1   0.148930 0.152119 0.270608 -0.009444
C39   C     C_1   0.163078 0.849585 0.722059 -0.002327
C40   C     C_1   0.791895 0.222185 0.379461 -0.022274
C41   C     C_1   0.717685 0.728682 0.107201 -0.024528
C42   C     C_1   0.346208 0.351816 0.768484 -0.015167
C43   C     C_1   0.344839 0.645915 0.232550 -0.015279
C44   C     C_1   0.716122 0.270099 0.893034 -0.025644
C45   C     C_1   0.275302 0.283162 0.113775 -0.009910
C46   C     C_1   0.654315 0.655312 0.771213 -0.012614
C47   C     C_1   0.663415 0.349695 0.222075 -0.002310
C48   C     C_1   0.291853 0.721834 0.879084 -0.021415
C49   C     C_1   0.864886 0.865824 0.314376 0.026638
C50   C     C_1   0.183841 0.189903 0.592619 -0.002629
C51   C     C_1   0.182726 0.809563 0.407212 -0.000603
C52   C     C_1   0.863845 0.132460 0.686449 0.027785
C53   C     C_1   0.133766 0.134006 0.315821 0.070399
C54   C     C_1   0.812673 0.814219 0.591262 -0.014260
C55   C     C_1   0.821017 0.185664 0.402056 -0.025133
C56   C     C_1   0.137892 0.867402 0.681717 0.056254
C57   C     C_1   0.365159 0.365857 0.814226 0.023594
C58   C     C_1   0.683633 0.690147 0.091907 0.001818
C59   C     C_1   0.682602 0.309221 0.907819 -0.002913
C60   C     C_1   0.364089 0.632373 0.186581 0.027219
C61   C     C_1   0.638543 0.639276 0.817794 -0.030241
C62   C     C_1   0.312420 0.316535 0.095475 -0.019198
C63   C     C_1   0.320876 0.685362 0.901838 -0.030640
C64   C     C_1   0.638324 0.367294 0.181563 0.054834
C65   C     C_R   0.860349 0.142287 0.422693 -0.355693
C66   C     C_R   0.111335 0.889220 0.632171 -0.329019
C67   C     C_R   0.886416 0.883945 0.369081 -0.327220
C68   C     C_R   0.140770 0.143660 0.579684 -0.356408
C69   C     C_R   0.140282 0.856221 0.419837 -0.360031
C70   C     C_R   0.885795 0.115042 0.631495 -0.329666
C71   C     C_R   0.114994 0.114959 0.370337 -0.332087
C72   C     C_R   0.857143 0.857850 0.576477 -0.371262
C73   C     C_R   0.360197 0.642070 0.922630 -0.347697
C74   C     C_R   0.611798 0.388908 0.131876 -0.329135
C75   C     C_R   0.386436 0.383874 0.869081 -0.327971
C76   C     C_R   0.640787 0.643855 0.078719 -0.354973
C77   C     C_R   0.640362 0.356020 0.920631 -0.351195
C78   C     C_R   0.385940 0.615001 0.131565 -0.328137
C79   C     C_R   0.618154 0.618869 0.872829 -0.321755
C80   C     C_R   0.357019 0.358681 0.077773 -0.366575
C81   C     C_R   0.817689 0.762630 0.137152 0.106680
C82   C     C_R   0.263589 0.354011 0.701533 0.105341
C83   C     C_R   0.349341 0.701409 0.323544 0.156044
C84   C     C_R   0.729757 0.173123 0.843668 0.165585
C85   C     C_R   0.181388 0.269446 0.166796 0.120990
C86   C     C_R   0.721965 0.648935 0.687071 0.105142
C87   C     C_R   0.669050 0.309464 0.318047 0.142732
C88   C     C_R   0.290653 0.787264 0.797757 0.144381
C89   C     C_R   0.201621 0.776872 0.857680 0.124798
C90   C     C_R   0.758268 0.319631 0.258683 0.140045
C91   C     C_R   0.646280 0.725593 0.691707 0.155582
C92   C     C_R   0.243820 0.183176 0.145063 0.146355
C93   C     C_R   0.816090 0.234744 0.864053 0.107323
C94   C     C_R   0.261050 0.644051 0.299240 0.104501
C95   C     C_R   0.351048 0.295117 0.678027 0.155576
C96   C     C_R   0.732114 0.825039 0.157467 0.165095
C97   C     C_R   0.318348 0.261929 0.637379 0.108542
C98   C     C_R   0.762369 0.853377 0.202648 0.107670
C99   C     C_R   0.848935 0.201015 0.823619 0.155877
C100  C     C_R   0.230387 0.673033 0.344114 0.165937
C101  C     C_R   0.677925 0.759068 0.651228 0.108600
C102  C     C_R   0.211451 0.149645 0.185017 0.104086
C103  C     C_R   0.169246 0.809739 0.818119 0.141640
C104  C     C_R   0.790909 0.288545 0.298838 0.142879
C105  C     C_R   0.701336 0.276587 0.357685 0.124821
C106  C     C_R   0.257903 0.818375 0.757700 0.140157
C107  C     C_R   0.148952 0.235775 0.206313 0.137618
C108  C     C_R   0.749865 0.679390 0.641982 0.158886
C109  C     C_R   0.316437 0.735259 0.363841 0.108485
C110  C     C_R   0.760398 0.144321 0.798688 0.104567
C111  C     C_R   0.850319 0.795673 0.177956 0.156010
C112  C     C_R   0.233441 0.325592 0.656307 0.163929
C113  C     C_R   0.257600 0.273605 0.631297 -0.033319
C114  C     C_R   0.819836 0.834636 0.215188 -0.035398
C115  C     C_R   0.818366 0.162591 0.786229 -0.035159
C116  C     C_R   0.255257 0.724567 0.369395 -0.034792
C117  C     C_R   0.733062 0.738254 0.631376 -0.028899
C118  C     C_R   0.168221 0.178247 0.218526 -0.043955
C119  C     C_R   0.197212 0.826855 0.767292 -0.043357
C120  C     C_R   0.761293 0.264483 0.346259 -0.052826
C121  C     C_R   0.756798 0.773812 0.131499 -0.034058
C122  C     C_R   0.320686 0.334679 0.714759 -0.034441
C123  C     C_R   0.318857 0.662590 0.286458 -0.035058
C124  C     C_R   0.754850 0.224282 0.869426 -0.035363
C125  C     C_R   0.231928 0.244487 0.140194 -0.031892
C126  C     C_R   0.673617 0.675799 0.715627 -0.029535
C127  C     C_R   0.697363 0.327252 0.267614 -0.043100
C128  C     C_R   0.261314 0.764019 0.845725 -0.053173
N1    N     N_R   0.900580 0.056480 0.443850 -0.139464
N2    N     N_R   0.099420 0.943520 0.556150 -0.139227
N3    N     N_R   0.943520 0.900580 0.443850 -0.130612
N4    N     N_R   0.056480 0.099420 0.556150 -0.141756
N5    N     N_R   0.099420 0.943520 0.443850 -0.137796
N6    N     N_R   0.900580 0.056480 0.556150 -0.136237
N7    N     N_R   0.056480 0.099420 0.443850 -0.130348
N8    N     N_R   0.943520 0.900580 0.556150 -0.141609
N9    N     N_R   0.099420 0.056480 0.556150 -0.141271
N10   N     N_R   0.900580 0.943520 0.443850 -0.134345
N11   N     N_R   0.056480 0.900580 0.556150 -0.124241
N12   N     N_R   0.943520 0.099420 0.443850 -0.138843
N13   N     N_R   0.900580 0.943520 0.556150 -0.141989
N14   N     N_R   0.099420 0.056480 0.443850 -0.134270
N15   N     N_R   0.943520 0.099420 0.556150 -0.127178
N16   N     N_R   0.056480 0.900580 0.443850 -0.139990
N17   N     N_R   0.400580 0.556480 0.943850 -0.140739
N18   N     N_R   0.599420 0.443520 0.056150 -0.137252
N19   N     N_R   0.443520 0.400580 0.943850 -0.131422
N20   N     N_R   0.556480 0.599420 0.056150 -0.142133
N21   N     N_R   0.599420 0.443520 0.943850 -0.143199
N22   N     N_R   0.400580 0.556480 0.056150 -0.135948
N23   N     N_R   0.556480 0.599420 0.943850 -0.128100
N24   N     N_R   0.443520 0.400580 0.056150 -0.141900
N25   N     N_R   0.599420 0.556480 0.056150 -0.141481
N26   N     N_R   0.400580 0.443520 0.943850 -0.133000
N27   N     N_R   0.556480 0.400580 0.056150 -0.124333
N28   N     N_R   0.443520 0.599420 0.943850 -0.144264
N29   N     N_R   0.400580 0.443520 0.056150 -0.142871
N30   N     N_R   0.599420 0.556480 0.943850 -0.131303
N31   N     N_R   0.443520 0.599420 0.056150 -0.125574
N32   N     N_R   0.556480 0.400580 0.943850 -0.141752
Ni1   Ni    Ni4+2 0.901480 0.000000 0.500000 0.257411
Ni2   Ni    Ni4+2 0.098520 0.000000 0.500000 0.251654
Ni3   Ni    Ni4+2 1.000000 0.901480 0.500000 0.285416
Ni4   Ni    Ni4+2 0.000000 0.098520 0.500000 0.274384
Ni5   Ni    Ni4+2 0.401480 0.500000 0.000000 0.255608
Ni6   Ni    Ni4+2 0.598520 0.500000 0.000000 0.266564
Ni7   Ni    Ni4+2 0.500000 0.401480 0.000000 0.282425
Ni8   Ni    Ni4+2 0.500000 0.598520 0.000000 0.286742
O1    O     O_3   0.796913 0.057512 0.450680 -0.577865
C129  C     C_3   0.746760 0.083053 0.427023 -0.214795
H1    H     H_    0.751429 0.088556 0.380420 0.146386
H2    H     H_    0.736126 0.125238 0.449448 0.146783
H3    H     H_    0.708887 0.053003 0.434141 0.145045
O2    O     O_3   0.185611 0.964434 0.612204 -0.595685
C130  C     C_3   0.232049 0.931528 0.587485 -0.179004
H4    H     H_    0.237538 0.943128 0.542502 0.216284
H5    H     H_    0.226479 0.882748 0.590909 0.119884
H6    H     H_    0.273427 0.943800 0.609218 0.129783
O3    O     O_3   0.965760 0.810665 0.393216 -0.575762
C131  C     C_3   0.959040 0.783588 0.339668 -0.281216
H7    H     H_    0.972133 0.814452 0.305582 0.146170
H8    H     H_    0.913896 0.765560 0.334638 0.156887
H9    H     H_    0.988687 0.745001 0.336215 0.146637
O4    O     O_3   0.057960 0.201462 0.542524 -0.569652
C132  C     C_3   0.072623 0.254200 0.570963 -0.133769
H10   H     H_    0.112790 0.272771 0.551392 0.134110
H11   H     H_    0.077184 0.248171 0.617360 0.107617
H12   H     H_    0.036887 0.286553 0.564613 0.166992
O5    O     O_3   0.203124 0.943103 0.445423 -0.587695
C133  C     C_3   0.251271 0.921397 0.414169 -0.167414
H13   H     H_    0.240901 0.913792 0.368584 0.139905
H14   H     H_    0.267943 0.881406 0.434627 0.140022
H15   H     H_    0.287339 0.954346 0.416497 0.149712
O6    O     O_3   0.817354 0.032480 0.615752 -0.597103
C134  C     C_3   0.765769 0.063488 0.602595 -0.157059
H16   H     H_    0.760986 0.067311 0.556031 0.183761
H17   H     H_    0.764363 0.108182 0.622851 0.115939
H18   H     H_    0.727433 0.038240 0.618683 0.145480
O7    O     O_3   0.033434 0.183942 0.386815 -0.601504
C135  C     C_3   0.066265 0.235997 0.397673 -0.199981
H19   H     H_    0.043845 0.273655 0.377655 0.135310
H20   H     H_    0.111713 0.234384 0.380038 0.099066
H21   H     H_    0.068132 0.245402 0.443850 0.192532
O8    O     O_3   0.942986 0.797406 0.543777 -0.541577
C136  C     C_3   0.919562 0.745079 0.565675 -0.072313
H22   H     H_    0.880416 0.731858 0.540810 0.133114
H23   H     H_    0.909946 0.748830 0.611854 0.083870
H24   H     H_    0.952566 0.709512 0.559825 0.152327
O9    O     O_3   0.202727 0.058528 0.549145 -0.589104
C137  C     C_3   0.251576 0.077731 0.580339 -0.160331
H25   H     H_    0.241764 0.082896 0.626470 0.141540
H26   H     H_    0.268914 0.118654 0.561665 0.139558
H27   H     H_    0.286903 0.044446 0.575479 0.145832
O10   O     O_3   0.819063 0.967230 0.383541 -0.594924
C138  C     C_3   0.766272 0.936573 0.394732 -0.159343
H28   H     H_    0.757880 0.934667 0.440973 0.182652
H29   H     H_    0.765756 0.891099 0.376146 0.114165
H30   H     H_    0.729552 0.961136 0.375693 0.145479
O11   O     O_3   0.030443 0.816544 0.612725 -0.562849
C139  C     C_3   0.021436 0.807467 0.671152 -0.261024
H31   H     H_    0.013860 0.849448 0.695501 0.117394
H32   H     H_    0.058513 0.782100 0.688685 0.153064
H33   H     H_    0.981552 0.779927 0.676843 0.152470
O12   O     O_3   0.941940 0.201593 0.461400 -0.555350
C140  C     C_3   0.927490 0.254578 0.434765 -0.114897
H34   H     H_    0.883177 0.269749 0.448166 0.125318
H35   H     H_    0.932180 0.250480 0.388118 0.148172
H36   H     H_    0.958721 0.289369 0.449130 0.138395
O13   O     O_3   0.799183 0.944614 0.543465 -0.578033
C141  C     C_3   0.746026 0.919203 0.560455 -0.226987
H37   H     H_    0.745213 0.911959 0.606747 0.171053
H38   H     H_    0.737779 0.878577 0.534722 0.126067
H39   H     H_    0.710075 0.950395 0.551072 0.148497
O14   O     O_3   0.186309 0.036274 0.386790 -0.580003
C142  C     C_3   0.235469 0.072852 0.397903 -0.159061
H40   H     H_    0.240262 0.080940 0.444194 0.172813
H41   H     H_    0.233624 0.115733 0.375604 0.095261
H42   H     H_    0.275589 0.050093 0.382265 0.138148
O15   O     O_3   0.965117 0.189251 0.607343 -0.564901
C143  C     C_3   0.959156 0.214914 0.661688 -0.270965
H43   H     H_    0.972096 0.183148 0.694761 0.140247
H44   H     H_    0.914279 0.232970 0.668199 0.154317
H45   H     H_    0.989272 0.253325 0.665345 0.146327
O16   O     O_3   0.057917 0.799247 0.460574 -0.551609
C144  C     C_3   0.070548 0.745788 0.432434 -0.036998
H46   H     H_    0.110681 0.726857 0.450750 0.130647
H47   H     H_    0.074286 0.750895 0.385804 0.080283
H48   H     H_    0.034128 0.714228 0.440598 0.157438
O17   O     O_3   0.296914 0.557216 0.950600 -0.575699
C145  C     C_3   0.246686 0.582801 0.927131 -0.214371
H49   H     H_    0.251198 0.588353 0.880522 0.145270
H50   H     H_    0.236146 0.624970 0.949631 0.146360
H51   H     H_    0.208832 0.552749 0.934338 0.145525
O18   O     O_3   0.684992 0.465545 0.112662 -0.601112
C146  C     C_3   0.732589 0.433226 0.089402 -0.183352
H52   H     H_    0.739063 0.444488 0.044459 0.218474
H53   H     H_    0.727743 0.384404 0.093039 0.121313
H54   H     H_    0.773169 0.446479 0.112013 0.129832
O19   O     O_3   0.465833 0.310667 0.893289 -0.576512
C147  C     C_3   0.458939 0.283384 0.839865 -0.283088
H55   H     H_    0.472134 0.314069 0.805669 0.145840
H56   H     H_    0.413721 0.265508 0.834952 0.158006
H57   H     H_    0.488426 0.244665 0.836522 0.146656
O20   O     O_3   0.558684 0.700968 0.039882 -0.540507
C148  C     C_3   0.572089 0.754275 0.067947 -0.023458
H58   H     H_    0.612811 0.772848 0.049451 0.128608
H59   H     H_    0.575147 0.749020 0.114529 0.074352
H60   H     H_    0.536361 0.786228 0.060059 0.153474
O21   O     O_3   0.702847 0.442882 0.947727 -0.567018
C149  C     C_3   0.752687 0.418032 0.921702 -0.180099
H61   H     H_    0.745368 0.406907 0.876212 0.119736
H62   H     H_    0.766965 0.379533 0.946209 0.137707
H63   H     H_    0.788924 0.450914 0.923827 0.165708
O22   O     O_3   0.317007 0.532778 0.115315 -0.601065
C150  C     C_3   0.265744 0.564461 0.102442 -0.169275
H64   H     H_    0.260847 0.568432 0.055908 0.184703
H65   H     H_    0.264898 0.609135 0.122778 0.119610
H66   H     H_    0.227166 0.539684 0.118651 0.143815
O23   O     O_3   0.540586 0.693268 0.904569 -0.559814
C151  C     C_3   0.550753 0.726167 0.855955 -0.259928
H67   H     H_    0.535103 0.701001 0.818213 0.152048
H68   H     H_    0.597488 0.740252 0.853333 0.158383
H69   H     H_    0.524729 0.767390 0.858926 0.149487
O24   O     O_3   0.442444 0.297011 0.045636 -0.539686
C152  C     C_3   0.417170 0.245230 0.066902 -0.079909
H70   H     H_    0.377181 0.233938 0.042427 0.133920
H71   H     H_    0.408425 0.248660 0.113242 0.084272
H72   H     H_    0.448668 0.208457 0.060096 0.151946
O25   O     O_3   0.702609 0.559010 0.047553 -0.561208
C153  C     C_3   0.751903 0.578347 0.078044 -0.093368
H73   H     H_    0.742863 0.583047 0.124351 0.118341
H74   H     H_    0.768648 0.619578 0.059447 0.141696
H75   H     H_    0.787388 0.545346 0.072357 0.135774
O26   O     O_3   0.318897 0.467048 0.883661 -0.596266
C154  C     C_3   0.266186 0.435936 0.894083 -0.153024
H76   H     H_    0.257802 0.432528 0.940236 0.182985
H77   H     H_    0.265785 0.391055 0.874214 0.114398
H78   H     H_    0.229375 0.460978 0.875780 0.144098
O27   O     O_3   0.531193 0.315931 0.112165 -0.559287
C155  C     C_3   0.522621 0.306122 0.170520 -0.256048
H79   H     H_    0.514704 0.347766 0.195298 0.115285
H80   H     H_    0.560073 0.280968 0.187608 0.151742
H81   H     H_    0.483081 0.278061 0.176110 0.151735
O28   O     O_3   0.441018 0.701450 0.962276 -0.538579
C156  C     C_3   0.425334 0.754734 0.936814 -0.061198
H82   H     H_    0.381877 0.769897 0.952800 0.111839
H83   H     H_    0.426590 0.750914 0.890029 0.115669
H84   H     H_    0.457845 0.789137 0.949264 0.151006
O29   O     O_3   0.299733 0.443455 0.041200 -0.578896
C157  C     C_3   0.246151 0.422199 0.061901 -0.228715
H85   H     H_    0.246280 0.420625 0.108739 0.174133
H86   H     H_    0.235526 0.379208 0.041016 0.128047
H87   H     H_    0.211115 0.453386 0.049861 0.148093
O30   O     O_3   0.692684 0.542334 0.899685 -0.549023
C158  C     C_3   0.715735 0.539209 0.844550 -0.192543
H88   H     H_    0.734205 0.582734 0.833224 0.168779
H89   H     H_    0.682687 0.522103 0.813827 0.099836
H90   H     H_    0.753097 0.508082 0.843421 0.149435
O31   O     O_3   0.465995 0.688744 0.107670 -0.572897
C159  C     C_3   0.459649 0.714607 0.161877 -0.283926
H91   H     H_    0.472254 0.682886 0.195105 0.144076
H92   H     H_    0.414765 0.732785 0.168005 0.157686
H93   H     H_    0.489842 0.752945 0.165667 0.147450
O32   O     O_3   0.557761 0.299343 0.961039 -0.551390
C160  C     C_3   0.570179 0.245772 0.933001 -0.033225
H94   H     H_    0.610372 0.226790 0.951162 0.129841
H95   H     H_    0.573683 0.250768 0.886356 0.078922
H96   H     H_    0.533736 0.214307 0.941400 0.157792
C161  C     C_3   0.916710 0.789258 0.183892 -0.344081
C162  C     C_3   0.948856 0.846924 0.170469 -0.926830
H97   H     H_    0.938705 0.860640 0.126674 0.261436
H98   H     H_    0.936240 0.882937 0.200576 0.265328
H99   H     H_    0.996986 0.840137 0.173698 0.248193
H100  H     H_    0.926930 0.775214 0.227291 0.171467
H101  H     H_    0.936151 0.755066 0.155799 0.200627
C163  C     C_3   0.176162 0.349797 0.633966 -0.343145
C164  C     C_3   0.183469 0.370337 0.572940 -0.954892
H102  H     H_    0.215618 0.407384 0.571245 0.266737
H103  H     H_    0.199144 0.333845 0.544726 0.261513
H104  H     H_    0.140639 0.386113 0.557011 0.247229
H105  H     H_    0.142085 0.315645 0.637620 0.165780
H106  H     H_    0.158529 0.387831 0.658375 0.201447
C165  C     C_3   0.345486 0.783070 0.400006 -0.320945
C166  C     C_3   0.360407 0.837733 0.365176 -0.970763
H107  H     H_    0.396114 0.828893 0.334084 0.256964
H108  H     H_    0.321364 0.852144 0.341359 0.260592
H109  H     H_    0.374936 0.874264 0.393842 0.247615
H110  H     H_    0.316647 0.796214 0.436023 0.177970
H111  H     H_    0.385242 0.765854 0.420867 0.178945
C167  C     C_3   0.731153 0.096130 0.762475 -0.315777
C168  C     C_3   0.685342 0.122317 0.723174 -0.955893
H112  H     H_    0.649550 0.144532 0.747368 0.254980
H113  H     H_    0.706291 0.155344 0.695095 0.260584
H114  H     H_    0.665678 0.086549 0.696625 0.248027
H115  H     H_    0.763421 0.071496 0.735823 0.211872
H116  H     H_    0.711529 0.061314 0.789311 0.176984
C169  C     C_3   0.094871 0.260494 0.237480 -0.345919
C170  C     C_3   0.038577 0.230977 0.216262 -0.881012
H117  H     H_    0.033141 0.239152 0.170348 0.247747
H118  H     H_    0.039558 0.182562 0.223272 0.266233
H119  H     H_    0.000184 0.249711 0.239584 0.251747
H120  H     H_    0.098948 0.253749 0.283538 0.191038
H121  H     H_    0.089407 0.308749 0.234009 0.193294
C171  C     C_3   0.797980 0.650984 0.605584 -0.342303
C172  C     C_3   0.780922 0.647814 0.543089 -0.938620
H122  H     H_    0.739868 0.621609 0.537940 0.263086
H123  H     H_    0.774247 0.692557 0.525740 0.264349
H124  H     H_    0.816484 0.625879 0.518171 0.249698
H125  H     H_    0.839028 0.676152 0.611332 0.165479
H126  H     H_    0.808831 0.605382 0.617379 0.200949
C173  C     C_3   0.672297 0.252721 0.411089 -0.321134
C174  C     C_3   0.638665 0.195390 0.398385 -0.961019
H127  H     H_    0.600759 0.203100 0.370356 0.255890
H128  H     H_    0.667920 0.162745 0.376995 0.258342
H129  H     H_    0.622101 0.176389 0.438565 0.250296
H130  H     H_    0.705316 0.243667 0.444137 0.185189
H131  H     H_    0.643074 0.286226 0.431283 0.183240
C175  C     C_3   0.286361 0.840107 0.702990 -0.341065
C176  C     C_3   0.282213 0.793234 0.655767 -0.939253
H132  H     H_    0.303231 0.751423 0.668692 0.258123
H133  H     H_    0.235615 0.783931 0.645250 0.268731
H134  H     H_    0.305012 0.809349 0.617198 0.244540
H135  H     H_    0.265228 0.881480 0.689474 0.197294
H136  H     H_    0.332793 0.853289 0.708487 0.192237
C177  C     C_3   0.105208 0.827026 0.828672 -0.346863
C178  C     C_3   0.100401 0.892369 0.845332 -0.912538
H137  H     H_    0.125381 0.901487 0.884760 0.256420
H138  H     H_    0.117785 0.920797 0.811103 0.265813
H139  H     H_    0.053602 0.903840 0.853028 0.249616
H140  H     H_    0.078681 0.817941 0.790248 0.174974
H141  H     H_    0.083383 0.801197 0.862113 0.198470
C179  C     C_3   0.857184 0.280864 0.291008 -0.323600
C180  C     C_3   0.890241 0.334085 0.315995 -0.973541
H142  H     H_    0.878953 0.375331 0.293873 0.261461
H143  H     H_    0.878819 0.340205 0.361502 0.257078
H144  H     H_    0.938313 0.326906 0.311752 0.252178
H145  H     H_    0.873286 0.239941 0.310520 0.183361
H146  H     H_    0.869713 0.274413 0.245919 0.194131
C181  C     C_3   0.654119 0.817220 0.630123 -0.338744
C182  C     C_3   0.660183 0.866604 0.674882 -0.944785
H147  H     H_    0.632567 0.857970 0.712749 0.255497
H148  H     H_    0.706536 0.870578 0.688769 0.264503
H149  H     H_    0.646260 0.909277 0.656770 0.246303
H150  H     H_    0.677157 0.830132 0.591098 0.174649
H151  H     H_    0.608017 0.812528 0.615941 0.177482
C183  C     C_3   0.223036 0.084067 0.193779 -0.323527
C184  C     C_3   0.274640 0.074728 0.233578 -0.910345
H152  H     H_    0.315541 0.094896 0.216690 0.244125
H153  H     H_    0.264974 0.094950 0.275731 0.263885
H154  H     H_    0.281939 0.026624 0.238898 0.253383
H155  H     H_    0.183739 0.061968 0.212135 0.194724
H156  H     H_    0.230035 0.060353 0.152791 0.178822
C185  C     C_3   0.915639 0.206051 0.818269 -0.344102
C186  C     C_3   0.945679 0.147482 0.831098 -0.925651
H157  H     H_    0.933770 0.133184 0.874511 0.261362
H158  H     H_    0.932977 0.112283 0.800237 0.264613
H159  H     H_    0.994083 0.153325 0.828558 0.248857
H160  H     H_    0.927469 0.220479 0.775152 0.171643
H161  H     H_    0.935292 0.239294 0.847129 0.200440
C187  C     C_3   0.171874 0.649849 0.365850 -0.353697
C188  C     C_3   0.177368 0.627882 0.426439 -0.941682
H162  H     H_    0.207953 0.589764 0.427353 0.264492
H163  H     H_    0.194141 0.663294 0.455222 0.265092
H164  H     H_    0.133675 0.613202 0.442206 0.247648
H165  H     H_    0.139029 0.684933 0.362828 0.165100
H166  H     H_    0.153431 0.612818 0.340666 0.201796
C189  C     C_3   0.347222 0.214006 0.601118 -0.324181
C190  C     C_3   0.359123 0.158552 0.635474 -0.965603
H167  H     H_    0.393749 0.166242 0.667450 0.256436
H168  H     H_    0.318709 0.144623 0.658243 0.260935
H169  H     H_    0.373798 0.122145 0.606645 0.246877
H170  H     H_    0.319320 0.202188 0.564437 0.175479
H171  H     H_    0.388248 0.230575 0.581149 0.179025
C191  C     C_3   0.733058 0.901535 0.238986 -0.319310
C192  C     C_3   0.685946 0.875354 0.277897 -0.960452
H172  H     H_    0.650803 0.852781 0.253432 0.256565
H173  H     H_    0.705918 0.842622 0.306416 0.261569
H174  H     H_    0.665576 0.911161 0.303984 0.246782
H175  H     H_    0.765058 0.925847 0.265884 0.211009
H176  H     H_    0.714567 0.936622 0.212246 0.176912
C193  C     C_3   0.417342 0.288217 0.684339 -0.341150
C194  C     C_3   0.450032 0.345596 0.670974 -0.934124
H177  H     H_    0.440204 0.359337 0.627116 0.261808
H178  H     H_    0.437593 0.381760 0.700981 0.265006
H179  H     H_    0.498084 0.338406 0.674415 0.247685
H180  H     H_    0.427165 0.274166 0.727813 0.171240
H181  H     H_    0.436691 0.253837 0.656400 0.200274
C195  C     C_3   0.674121 0.848547 0.136117 -0.354051
C196  C     C_3   0.680758 0.871436 0.075847 -0.939687
H182  H     H_    0.711783 0.909491 0.075381 0.265194
H183  H     H_    0.697537 0.836407 0.046528 0.265135
H184  H     H_    0.637460 0.886469 0.060414 0.247157
H185  H     H_    0.640958 0.813365 0.138604 0.165120
H186  H     H_    0.655491 0.885141 0.161844 0.202380
C197  C     C_3   0.845262 0.282137 0.900637 -0.317905
C198  C     C_3   0.860609 0.337039 0.866325 -0.969663
H187  H     H_    0.897221 0.328605 0.836136 0.256035
H188  H     H_    0.822159 0.351175 0.841524 0.259552
H189  H     H_    0.874081 0.373607 0.895430 0.248116
H190  H     H_    0.816323 0.295153 0.936582 0.177602
H191  H     H_    0.884833 0.264549 0.921536 0.178475
C199  C     C_3   0.232011 0.595339 0.263503 -0.317420
C200  C     C_3   0.185724 0.620791 0.224270 -0.953938
H192  H     H_    0.149884 0.642887 0.248494 0.254840
H193  H     H_    0.206206 0.653763 0.195829 0.260835
H194  H     H_    0.166204 0.584633 0.198109 0.247196
H195  H     H_    0.264338 0.570804 0.236827 0.212055
H196  H     H_    0.212853 0.560564 0.290690 0.176298
C201  C     C_3   0.584742 0.743180 0.711156 -0.334201
C202  C     C_3   0.539470 0.694880 0.697690 -0.947718
H197  H     H_    0.538442 0.686011 0.651292 0.264183
H198  H     H_    0.549527 0.653175 0.719599 0.263224
H199  H     H_    0.495217 0.709849 0.711797 0.248389
H200  H     H_    0.586049 0.753946 0.756602 0.167653
H201  H     H_    0.567965 0.783767 0.691961 0.200620
C203  C     C_3   0.292172 0.155166 0.108815 -0.345938
C204  C     C_3   0.275098 0.152265 0.046399 -0.930851
H202  H     H_    0.234753 0.125007 0.041031 0.261544
H203  H     H_    0.267106 0.197116 0.029778 0.264037
H204  H     H_    0.311197 0.131636 0.021188 0.248798
H205  H     H_    0.333095 0.180597 0.114593 0.165369
H206  H     H_    0.303952 0.109965 0.121301 0.199540
C205  C     C_3   0.172939 0.753834 0.911604 -0.322432
C206  C     C_3   0.138806 0.696604 0.899815 -0.956338
H207  H     H_    0.100701 0.704257 0.872018 0.256337
H208  H     H_    0.167642 0.663501 0.878541 0.257599
H209  H     H_    0.122474 0.678205 0.940344 0.250641
H210  H     H_    0.206223 0.744948 0.944452 0.185526
H211  H     H_    0.144126 0.787757 0.931704 0.183928
C207  C     C_3   0.787153 0.342283 0.204562 -0.341195
C208  C     C_3   0.784410 0.295755 0.156919 -0.939473
H212  H     H_    0.805873 0.254156 0.169782 0.258855
H213  H     H_    0.738116 0.285802 0.145711 0.268384
H214  H     H_    0.807501 0.312563 0.118791 0.244243
H215  H     H_    0.765555 0.383429 0.191133 0.196486
H216  H     H_    0.833280 0.356184 0.210837 0.192351
C209  C     C_3   0.604748 0.326057 0.328091 -0.347843
C210  C     C_3   0.599113 0.391325 0.344784 -0.914021
H217  H     H_    0.623667 0.400663 0.384419 0.256626
H218  H     H_    0.616470 0.419991 0.310728 0.266077
H219  H     H_    0.552133 0.402277 0.352125 0.248952
H220  H     H_    0.578668 0.316729 0.289433 0.174457
H221  H     H_    0.582897 0.299997 0.361346 0.197908
C211  C     C_3   0.356747 0.778742 0.789263 -0.326875
C212  C     C_3   0.390682 0.831956 0.813137 -0.970220
H222  H     H_    0.379830 0.872938 0.790390 0.261228
H223  H     H_    0.379647 0.839115 0.858612 0.256564
H224  H     H_    0.438608 0.824016 0.808708 0.247282
H225  H     H_    0.372719 0.737965 0.809160 0.178250
H226  H     H_    0.368594 0.771476 0.744103 0.192820
C213  C     C_3   0.163293 0.332194 0.154015 -0.340094
C214  C     C_3   0.187747 0.376113 0.197957 -0.940041
H227  H     H_    0.171752 0.365891 0.241207 0.254402
H228  H     H_    0.236490 0.374554 0.198046 0.265291
H229  H     H_    0.173665 0.421612 0.187631 0.248196
H230  H     H_    0.178277 0.343867 0.111208 0.169803
H231  H     H_    0.114902 0.336202 0.150947 0.183831
C215  C     C_3   0.744034 0.588981 0.705501 -0.334260
C216  C     C_3   0.802423 0.594538 0.736938 -0.952833
H232  H     H_    0.838613 0.608521 0.708436 0.255151
H233  H     H_    0.798867 0.627763 0.771939 0.263091
H234  H     H_    0.814217 0.551101 0.754803 0.247726
H235  H     H_    0.711479 0.567103 0.733021 0.176716
H236  H     H_    0.747916 0.557856 0.668885 0.178285
C217  C     C_3   0.416001 0.706780 0.317978 -0.344117
C218  C     C_3   0.446411 0.648436 0.330920 -0.927467
H237  H     H_    0.434729 0.634244 0.374421 0.261336
H238  H     H_    0.433802 0.613049 0.300221 0.264499
H239  H     H_    0.494776 0.654541 0.328211 0.248995
H240  H     H_    0.427581 0.721118 0.274784 0.171839
H241  H     H_    0.435589 0.740258 0.346638 0.200602
C219  C     C_3   0.670995 0.150160 0.865004 -0.354515
C220  C     C_3   0.676154 0.127391 0.925337 -0.938600
H242  H     H_    0.706376 0.088963 0.925872 0.264922
H243  H     H_    0.693203 0.162295 0.954533 0.264582
H244  H     H_    0.632294 0.112939 0.940865 0.247658
H245  H     H_    0.638465 0.185575 0.862337 0.165032
H246  H     H_    0.652276 0.113626 0.839351 0.202155
C221  C     C_3   0.846765 0.715266 0.100344 -0.318562
C222  C     C_3   0.859082 0.659515 0.134115 -0.969746
H247  H     H_    0.893741 0.667082 0.166084 0.257171
H248  H     H_    0.818803 0.645104 0.156823 0.259785
H249  H     H_    0.873893 0.623495 0.104903 0.248967
H250  H     H_    0.818822 0.703615 0.063641 0.181732
H251  H     H_    0.887633 0.732296 0.080434 0.180588
C223  C     C_3   0.234537 0.402888 0.737186 -0.320129
C224  C     C_3   0.186162 0.377850 0.775361 -0.958967
H252  H     H_    0.150863 0.356233 0.750344 0.256015
H253  H     H_    0.204817 0.344582 0.804140 0.261327
H254  H     H_    0.166289 0.414138 0.801193 0.247153
H255  H     H_    0.266453 0.426669 0.764597 0.210770
H256  H     H_    0.217285 0.438227 0.709987 0.176288

loop_
_geom_bond_atom_site_label_1
_geom_bond_atom_site_label_2
_ccdc_geom_bond_type
C216  H234  S    
C189  C190  S    
C22   N22   A    
C169  C170  S    
N25   Ni6   S    
C88   C211  S    
C153  H75   S    
C14   C71   A    
C106  C175  S    
C146  H53   S    
C164  H102  S    
C100  C187  S    
C201  C202  S    
C155  H79   S    
C103  C177  S    
C112  C163  S    
C217  H240  S    
C102  C183  S    
C3    N3    A    
C187  C188  S    
C16   N16   A    
C1    N1    A    
C99   C185  S    
C19   O19   S    
C98   C114  A    
C181  H151  S    
C145  H50   S    
C15   O15   S    
C140  H36   S    
O16   C144  S    
C95   C193  S    
C170  H119  S    
O22   C150  S    
C184  H154  S    
C206  H207  S    
C104  C179  S    
C186  H159  S    
N6    N15   A    
C213  H230  S    
C105  C173  S    
N7    N14   A    
C213  H231  S    
N27   Ni7   S    
O32   C160  S    
C196  H183  S    
C161  H100  S    
C35   C115  S    
C92   C102  A    
C134  H18   S    
C96   C195  S    
C145  H51   S    
C205  H210  S    
O7    C135  S    
C183  H156  S    
C144  H46   S    
O12   C140  S    
C186  H158  S    
C208  H213  S    
C28   C73   A    
C55   C65   S    
C131  H8    S    
C34   C114  S    
C157  H86   S    
C162  H97   S    
C200  H192  S    
N23   N30   A    
C27   O27   S    
C8    O8    S    
C22   C78   A    
C130  H5    S    
C47   C64   T    
C48   C63   T    
N4    N9    A    
C81   C121  A    
C178  H138  S    
C138  H28   S    
O13   C141  S    
C130  H4    S    
C40   C55   T    
C214  H227  S    
C150  H66   S    
C210  H217  S    
C26   C75   A    
C141  H38   S    
C90   C104  A    
N19   Ni7   S    
C95   C122  A    
C147  H56   S    
C220  H243  S    
C149  H62   S    
C138  H30   S    
C178  H139  S    
C207  C208  S    
C53   C71   S    
C6    O6    S    
C164  H104  S    
C211  C212  S    
C189  H170  S    
C92   C203  S    
N24   N29   A    
O24   C152  S    
C221  H250  S    
C211  H225  S    
C86   C108  A    
C157  H87   S    
C163  C164  S    
C95   C97   A    
C215  C216  S    
C13   C72   A    
C180  H142  S    
C16   C69   A    
C174  H129  S    
C25   C76   A    
C195  C196  S    
C84   C219  S    
C5    O5    S    
C152  H71   S    
N3    N10   A    
C10   C67   A    
C172  H122  S    
C20   O20   S    
C215  H236  S    
C38   C53   T    
C56   C66   S    
C203  H205  S    
C167  C168  S    
C134  H16   S    
C110  C167  S    
C37   C117  S    
C219  C220  S    
C135  H20   S    
C173  H130  S    
C144  H48   S    
C10   N10   A    
C175  C176  S    
C82   C122  A    
C191  H176  S    
C192  H173  S    
C14   N14   A    
C188  H162  S    
C85   C125  A    
C86   C126  A    
C168  H112  S    
C92   C125  A    
C168  H114  S    
C58   C76   S    
C193  H180  S    
C4    N4    A    
C18   O18   S    
C5    N5    A    
C29   C80   A    
C60   C78   S    
O17   C145  S    
C96   C121  A    
C223  H256  S    
C62   C80   S    
C41   C58   T    
C153  H73   S    
C211  H226  S    
C132  H11   S    
C129  H1    S    
N28   Ni8   S    
C44   C59   T    
C181  C182  S    
C214  H229  S    
C45   C62   T    
C171  C172  S    
C160  H95   S    
O2    C130  S    
C163  H106  S    
C199  H195  S    
O20   C148  S    
C156  H83   S    
C96   C98   A    
C1    C65   A    
C20   N20   A    
C105  C120  A    
C21   N21   A    
C111  C114  A    
C185  H161  S    
C107  C118  A    
C109  C116  A    
C155  H81   S    
N2    Ni2   S    
C217  C218  S    
C89   C103  A    
C17   C73   A    
C101  C181  S    
C187  H165  S    
C141  H37   S    
C91   C101  A    
C143  H44   S    
C139  H31   S    
O25   C153  S    
C136  H23   S    
C205  H211  S    
C180  H144  S    
C212  H223  S    
C224  H254  S    
C151  H67   S    
C172  H124  S    
N29   Ni5   S    
C4    C68   A    
C23   O23   S    
C202  H197  S    
C176  H134  S    
O30   C158  S    
C4    O4    S    
O3    C131  S    
C159  H92   S    
C171  H125  S    
C179  H145  S    
C12   C65   A    
C205  C206  S    
C87   C105  A    
C94   C100  A    
C142  H40   S    
O9    C137  S    
N1    Ni1   S    
C170  H118  S    
C148  H59   S    
C15   N15   A    
C30   C79   A    
C16   O16   S    
C188  H164  S    
C137  H26   S    
C142  H42   S    
C218  H238  S    
C213  C214  S    
C36   C116  S    
C43   C123  S    
C190  H167  S    
C90   C207  S    
O5    C133  S    
C216  H233  S    
C15   C70   A    
C158  H90   S    
C149  H61   S    
C108  C117  A    
C147  H55   S    
C2    C66   A    
C202  H199  S    
C11   C66   A    
C47   C127  S    
N12   Ni4   S    
C137  H27   S    
C51   C69   S    
C33   C113  S    
N6    Ni1   S    
C32   O32   S    
C111  C161  S    
N11   Ni3   S    
C167  H115  S    
C89   C205  S    
C198  H189  S    
C39   C119  S    
C185  H160  S    
C17   O17   S    
C143  H43   S    
C140  H35   S    
N8    N13   A    
C174  H128  S    
C207  H215  S    
C184  H153  S    
N21   N32   A    
C85   C213  S    
C197  C198  S    
O8    C136  S    
C196  H182  S    
C221  C222  S    
N24   Ni7   S    
C26   O26   S    
C194  H177  S    
C220  H242  S    
C97   C113  A    
C89   C128  A    
C206  H209  S    
C146  H52   S    
C134  H17   S    
C169  H121  S    
C185  C186  S    
C173  H131  S    
C11   O11   S    
C106  C119  A    
C8    N8    A    
O15   C143  S    
C100  C116  A    
C151  H69   S    
N5    Ni2   S    
C191  C192  S    
C201  H201  S    
C21   O21   S    
C176  H132  S    
N17   Ni5   S    
C133  H13   S    
C162  H98   S    
C81   C111  A    
C222  H247  S    
C147  H57   S    
C99   C115  A    
O26   C154  S    
C219  H245  S    
C173  C174  S    
C197  H191  S    
C83   C217  S    
C223  C224  S    
N7    Ni4   S    
C175  H135  S    
C11   N11   A    
C12   O12   S    
C5    C69   A    
C24   N24   A    
C133  H15   S    
C32   C77   A    
C177  H141  S    
N17   N28   A    
C9    N9    A    
N18   N27   A    
N5    N16   A    
C162  H99   S    
C214  H228  S    
C200  H194  S    
C210  H218  S    
C90   C127  A    
C12   N12   A    
C13   N13   A    
C82   C223  S    
C93   C99   A    
C97   C189  S    
C190  H169  S    
C94   C123  A    
O6    C134  S    
C146  H54   S    
C158  H88   S    
O21   C149  S    
C149  H63   S    
C29   O29   S    
C182  H149  S    
N2    N11   A    
C30   O30   S    
C42   C57   T    
C87   C127  A    
C203  C204  S    
C164  H103  S    
C155  H80   S    
C130  H6    S    
C107  C169  S    
C27   N27   A    
C181  H150  S    
C3    C67   A    
C8    C72   A    
C210  H219  S    
C217  H241  S    
C46   C61   T    
C25   N25   A    
O1    C129  S    
C154  H77   S    
N22   N31   A    
O11   C139  S    
C199  C200  S    
C182  H147  S    
C29   N29   A    
C63   C73   S    
C145  H49   S    
O29   C157  S    
C44   C124  S    
C143  H45   S    
C19   N19   A    
C209  H220  S    
C82   C112  A    
C17   N17   A    
O27   C155  S    
N4    Ni4   S    
C152  H70   S    
C48   C128  S    
C18   C74   A    
C94   C199  S    
C166  H109  S    
N3    Ni3   S    
C196  H184  S    
C161  H101  S    
C203  H206  S    
C40   C120  S    
C183  H155  S    
C144  H47   S    
N16   Ni3   S    
C186  H157  S    
N20   Ni8   S    
C208  H214  S    
C87   C209  S    
C84   C124  A    
O14   C142  S    
N15   Ni4   S    
C154  H76   S    
C131  H7    S    
N30   Ni6   S    
C31   C78   A    
C177  C178  S    
C6    C70   A    
C157  H85   S    
C204  H203  S    
C133  H14   S    
C150  H65   S    
C209  H221  S    
C222  H249  S    
C10   O10   S    
C151  H68   S    
C179  C180  S    
N14   Ni2   S    
C168  H113  S    
C204  H204  S    
C174  H127  S    
C139  H32   S    
C101  C117  A    
O18   C146  S    
C172  H123  S    
C178  H137  S    
C33   C50   T    
O23   C151  S    
C57   C75   S    
C132  H10   S    
C129  H2    S    
C165  H111  S    
C19   C75   A    
C2    N2    A    
C224  H252  S    
C86   C215  S    
N10   Ni1   S    
C160  H94   S    
C13   O13   S    
O31   C159  S    
C38   C118  S    
C199  H196  S    
C34   C49   T    
C198  H188  S    
C156  H82   S    
C220  H244  S    
C35   C52   T    
C64   C74   S    
C183  C184  S    
C189  H171  S    
C83   C123  A    
C50   C68   S    
C110  C115  A    
C22   O22   S    
C104  C120  A    
C129  H3    S    
C165  C166  S    
N13   Ni1   S    
C91   C126  A    
C161  C162  S    
C187  H166  S    
C215  H235  S    
C93   C124  A    
C59   C77   S    
C206  H208  S    
C216  H232  S    
C136  H22   S    
O4    C132  S    
C180  H143  S    
C212  H222  S    
C204  H202  S    
C224  H253  S    
C61   C79   S    
C152  H72   S    
C138  H29   S    
C7    C71   A    
N9    Ni2   S    
C202  H198  S    
C176  H133  S    
C41   C121  S    
N23   Ni8   S    
N31   Ni8   S    
C20   C76   A    
C141  H39   S    
C209  C210  S    
N32   Ni7   S    
C171  H126  S    
N19   N26   A    
C3    O3    S    
C28   O28   S    
C179  H146  S    
C24   C80   A    
C39   C56   T    
C9    O9    S    
C135  H19   S    
C208  H212  S    
C221  H251  S    
C27   C74   A    
C148  H58   S    
C191  H175  S    
C102  C118  A    
C131  H9    S    
C192  H174  S    
N18   Ni6   S    
C91   C201  S    
C165  H110  S    
C7    O7    S    
C142  H41   S    
C218  H239  S    
C112  C113  A    
C190  H168  S    
C193  H181  S    
C154  H78   S    
C158  H89   S    
C223  H255  S    
C24   O24   S    
C182  H148  S    
C45   C125  S    
O10   C138  S    
C198  H187  S    
C132  H12   S    
N22   Ni5   S    
C84   C110  A    
C177  H140  S    
C25   O25   S    
C160  H96   S    
C7    N7    A    
C163  H105  S    
C88   C106  A    
C81   C221  S    
C167  H116  S    
C184  H152  S    
C156  H84   S    
C83   C109  A    
C140  H34   S    
N26   Ni5   S    
C207  H216  S    
C195  H185  S    
C166  H107  S    
C36   C51   T    
C43   C60   T    
C37   C54   T    
O28   C156  S    
C93   C197  S    
C150  H64   S    
C166  H108  S    
C195  H186  S    
C26   N26   A    
C194  H178  S    
O19   C147  S    
C14   O14   S    
C42   C122  S    
C200  H193  S    
C136  H24   S    
C169  H120  S    
C30   N30   A    
C23   N23   A    
C212  H224  S    
C49   C67   S    
N8    Ni3   S    
C46   C126  S    
C103  C119  A    
N21   Ni6   S    
C18   N18   A    
C201  H200  S    
C108  C171  S    
C98   C191  S    
C23   C79   A    
C159  H91   S    
C194  H179  S    
C222  H248  S    
C9    C68   A    
C88   C128  A    
C2    O2    S    
C193  C194  S    
C197  H190  S    
N1    N12   A    
C219  H246  S    
C135  H21   S    
C1    O1    S    
C153  H74   S    
C139  H33   S    
C175  H136  S    
C170  H117  S    
C148  H60   S    
C52   C70   S    
C192  H172  S    
C31   O31   S    
C6    N6    A    
C54   C72   S    
C159  H93   S    
C188  H163  S    
C137  H25   S    
N20   N25   A    
C21   C77   A    
C28   N28   A    
C218  H237  S    
C109  C165  S    
C85   C107  A    
C31   N31   A    
C32   N32   A    
