data_mof_unit_14239.cif
_audit_creation_date              2012-12-10T19:45:02-0500
_audit_creation_method            fapswitch 2.2
_symmetry_space_group_name_H-M    P1
_symmetry_Int_Tables_number       1
_space_group_crystal_system       triclinic
_cell_length_a                    15.059947
_cell_length_b                    10.797389
_cell_length_c                    13.693542
_cell_angle_alpha                 90.02355
_cell_angle_beta                  89.760851
_cell_angle_gamma                 90.095937
_cell_volume                      2226.65823065

loop_
_atom_site_label
_atom_site_type_symbol
_atom_type_description
_atom_site_fract_x
_atom_site_fract_y
_atom_site_fract_z
_atom_type_partial_charge
C1    C     C_R   0.498963 0.262499 0.499867 0.823925
C2    C     C_R   0.642001 0.869580 0.598896 0.075652
C3    C     C_R   0.369664 0.178102 0.306785 -0.067589
C4    C     C_R   0.630177 0.821987 0.693326 -0.067600
C5    C     C_R   0.299295 0.236218 0.259276 -0.158139
C6    C     C_R   0.700479 0.763855 0.740922 -0.158129
C7    C     C_R   0.216072 0.243833 0.304361 -0.170013
C8    C     C_R   0.783726 0.756146 0.695923 -0.170062
C9    C     C_R   0.432135 0.934318 0.451434 -0.066036
C10   C     C_R   0.567868 0.065685 0.548563 -0.066041
C11   C     C_R   0.500475 0.871361 0.500588 -0.134675
C12   C     C_R   0.501038 0.737502 0.500133 0.823914
C13   C     C_R   0.499527 0.128642 0.499411 -0.134658
C14   C     C_R   0.568374 0.936186 0.549625 -0.048408
C15   C     C_R   0.431618 0.063818 0.450390 -0.048382
C16   C     C_R   0.328501 0.500609 0.500177 0.835437
C17   C     C_R   0.671499 0.499388 0.499824 0.835420
C18   C     C_R   0.559333 0.427667 0.793032 0.009362
C19   C     C_R   0.440667 0.572335 0.206968 0.009335
C20   C     C_R   0.440882 0.572645 0.793595 -0.003293
C21   C     C_R   0.559120 0.427358 0.206405 -0.003301
C22   C     C_R   0.439448 0.574373 0.896676 -0.007934
C23   C     C_R   0.045459 0.451355 0.673789 -0.170297
C24   C     C_R   0.560554 0.425632 0.103323 -0.007919
C25   C     C_R   0.500056 0.500087 0.948176 0.087662
C26   C     C_R   0.499947 0.499918 0.051824 0.087675
C27   C     C_R   0.560761 0.425956 0.896079 -0.012257
C28   C     C_R   0.439241 0.574048 0.103920 -0.012249
C29   C     C_R   0.379053 0.648155 0.949270 -0.203032
C30   C     C_R   0.620950 0.351851 0.050730 -0.203031
C31   C     C_R   0.378923 0.647954 0.051948 -0.200578
C32   C     C_R   0.621080 0.352052 0.948052 -0.200577
C33   C     C_R   0.814949 0.521943 0.412761 -0.229337
C34   C     C_R   0.954540 0.548606 0.326209 -0.170393
C35   C     C_R   0.185050 0.478040 0.587242 -0.229429
C36   C     C_R   0.768269 0.497821 0.499501 -0.077425
C37   C     C_R   0.231730 0.502166 0.500500 -0.077396
C38   C     C_R   0.814183 0.472740 0.586111 -0.226706
C39   C     C_R   0.185816 0.527234 0.413887 -0.226681
C40   C     C_R   0.906620 0.472988 0.586850 0.109647
C41   C     C_R   0.093379 0.526975 0.413147 0.109477
C42   C     C_R   0.953495 0.498704 0.499746 0.100603
C43   C     C_R   0.046504 0.501267 0.500254 0.100542
C44   C     C_R   0.907423 0.522848 0.412317 0.125549
C45   C     C_R   0.202671 0.194513 0.398379 0.038691
C46   C     C_R   0.092576 0.477125 0.587683 0.125516
C47   C     C_R   0.952915 0.449403 0.673393 -0.194303
C48   C     C_R   0.047085 0.550549 0.326602 -0.194521
C49   C     C_1   0.360950 0.866147 0.404164 0.250638
C50   C     C_1   0.639054 0.133856 0.595830 0.250649
C51   C     C_2   0.113803 0.198608 0.445298 0.836101
C52   C     C_2   0.886121 0.801216 0.555089 0.836122
C53   C     C_R   0.797222 0.805393 0.601908 0.038727
C54   C     C_R   0.274562 0.139309 0.446883 -0.206870
C55   C     C_R   0.725396 0.860608 0.553312 -0.206890
C56   C     C_R   0.357932 0.130426 0.401211 0.075586
Cu1   Cu    Cu3+1 0.500010 0.499980 0.597420 0.952557
Cu2   Cu    Cu3+1 0.499990 0.500020 0.402580 0.952538
H1    H     H_    0.779412 0.541580 0.345838 0.157642
H2    H     H_    0.668321 0.294358 0.909312 0.148225
H3    H     H_    0.778059 0.453571 0.653108 0.161913
H4    H     H_    0.221939 0.546402 0.346886 0.161919
H5    H     H_    0.917545 0.429753 0.740715 0.141216
H6    H     H_    0.082454 0.570190 0.259277 0.141260
H7    H     H_    0.080181 0.432620 0.741324 0.143324
H8    H     H_    0.919819 0.567338 0.258674 0.143334
H9    H     H_    0.162217 0.288173 0.265671 0.164778
H10   H     H_    0.837528 0.711799 0.734683 0.164757
H11   H     H_    0.265659 0.100424 0.519200 0.177371
H12   H     H_    0.220588 0.458407 0.654167 0.157670
H13   H     H_    0.734370 0.899431 0.480992 0.177383
H14   H     H_    0.433310 0.170304 0.270167 0.131030
H15   H     H_    0.566512 0.829857 0.729873 0.131002
H16   H     H_    0.309001 0.274217 0.186863 0.139540
H17   H     H_    0.690700 0.725917 0.813337 0.139563
H18   H     H_    0.040089 0.171845 0.566894 0.345965
H19   H     H_    0.959948 0.827874 0.433579 0.345977
H20   H     H_    0.605521 0.371156 0.751934 0.146568
H21   H     H_    0.394479 0.628845 0.248065 0.146576
H22   H     H_    0.394866 0.629443 0.752897 0.132557
H23   H     H_    0.605136 0.370559 0.247103 0.132563
H24   H     H_    0.331877 0.705959 0.911021 0.144167
H25   H     H_    0.668126 0.294046 0.088979 0.144160
H26   H     H_    0.331682 0.705647 0.090688 0.148228
N1    N     N_R   0.499960 0.499900 0.743810 -0.185582
N2    N     N_R   0.500040 0.500100 0.256190 -0.185594
N3    N     N_1   0.304106 0.812083 0.366633 -0.309294
N4    N     N_1   0.695899 0.187918 0.633360 -0.309285
O1    O     O_R   0.500000 0.319630 0.582270 -0.577725
O2    O     O_R   0.103696 0.163991 0.543129 -0.765553
O3    O     O_2   0.950874 0.768023 0.601855 -0.600025
O4    O     O_R   0.896328 0.835786 0.457271 -0.765558
O5    O     O_R   0.500000 0.680370 0.417730 -0.577718
O6    O     O_R   0.499990 0.319660 0.417730 -0.588091
O7    O     O_R   0.500010 0.680340 0.582270 -0.588067
O8    O     O_R   0.370260 0.499960 0.582280 -0.594169
O9    O     O_R   0.629740 0.500040 0.417720 -0.594168
O10   O     O_R   0.370250 0.499990 0.417740 -0.582535
O11   O     O_R   0.629750 0.500010 0.582260 -0.582526
O12   O     O_2   0.048990 0.231771 0.398601 -0.599977

loop_
_geom_bond_atom_site_label_1
_geom_bond_atom_site_label_2
_ccdc_geom_bond_type
C40   C47   A    
C38   C40   A    
H19   O4    S    
C22   C29   A    
C49   N3    T    
Cu2   O10   S    
C19   N2    A    
C34   H8    S    
C6    H17   S    
C39   C41   A    
Cu1   O1    S    
C7    C45   A    
C35   C37   A    
Cu2   O5    S    
C24   C26   A    
C2    C55   A    
C51   O2    S    
C47   H5    S    
C11   C14   A    
C48   H6    S    
C45   C51   S    
Cu1   O11   S    
C5    H16   S    
C33   C36   A    
C30   H25   S    
C35   H12   S    
C1    O6    A    
Cu1   O8    S    
C12   O7    A    
C17   C36   S    
C50   N4    T    
C16   C37   S    
C38   H3    S    
C40   C42   A    
C33   H1    S    
C23   C46   A    
C41   C43   A    
Cu2   O9    S    
C42   C44   A    
Cu2   N2    S    
C53   C55   A    
C54   C56   A    
C16   O8    A    
C18   N1    A    
C23   C47   A    
C20   H22   S    
C9    C49   S    
C4    C6    A    
C10   C14   A    
C5    C7    A    
C6    C8    A    
C25   C26   A    
C22   C25   A    
C31   H26   S    
C2    C4    A    
C17   O11   A    
C3    C56   A    
C18   H20   S    
C20   N1    A    
C34   C44   A    
C19   H21   S    
C19   C28   A    
C9    C11   A    
C4    H15   S    
C21   H23   S    
C45   C54   A    
C8    H10   S    
C13   C15   A    
C12   O5    A    
C52   O4    S    
C1    C13   S    
C42   C43   A    
C32   H2    S    
C10   C50   S    
C52   C53   S    
C51   O12   D    
C39   H4    S    
C21   N2    A    
C1    O1    A    
C27   C32   A    
C33   C44   A    
C28   C31   A    
C18   C27   A    
C20   C22   A    
C3    C5    A    
C10   C13   A    
C8    C53   A    
C11   C12   S    
C25   C27   A    
C26   C28   A    
C15   C56   S    
C23   H7    S    
C36   C38   A    
C3    H14   S    
C9    C15   A    
C29   H24   S    
C29   C31   A    
C30   C32   A    
C16   O10   A    
Cu1   Cu2   S    
C54   H11   S    
C41   C48   A    
Cu1   N1    S    
Cu2   O6    S    
C2    C14   S    
C43   C46   A    
C24   C30   A    
C7    H9    S    
C34   C48   A    
C37   C39   A    
Cu1   O7    S    
C21   C24   A    
C52   O3    D    
C35   C46   A    
C17   O9    A    
C55   H13   S    
H18   O2    S    
