data_mof_unit_12582.cif
_audit_creation_date              2012-12-11T17:45:23-0500
_audit_creation_method            fapswitch 2.2
_symmetry_space_group_name_H-M    P1
_symmetry_Int_Tables_number       1
_space_group_crystal_system       triclinic
_cell_length_a                    15.032799
_cell_length_b                    14.953514
_cell_length_c                    15.248701
_cell_angle_alpha                 110.776199
_cell_angle_beta                  109.303062
_cell_angle_gamma                 108.434796
_cell_volume                      2634.60488247

loop_
_atom_site_label
_atom_site_type_symbol
_atom_type_description
_atom_site_fract_x
_atom_site_fract_y
_atom_site_fract_z
_atom_type_partial_charge
C1    C     C_R   0.966327 0.237855 0.051125 0.509782
C2    C     C_R   0.322132 0.775464 0.325472 -0.125096
C3    C     C_R   0.290959 0.497617 0.918653 -0.065103
C4    C     C_R   0.943986 0.500777 0.303147 0.015631
C5    C     C_R   0.686349 0.407384 0.935074 0.436541
C6    C     C_R   0.032776 0.593606 0.781634 -0.081185
C7    C     C_R   0.789187 0.199773 0.695885 -0.114711
C8    C     C_R   0.007671 0.807050 0.101751 -0.081204
C9    C     C_R   0.092591 0.804956 0.007401 -0.120132
C10   C     C_R   0.705588 0.194760 0.791577 -0.029398
C11   C     C_R   0.775074 0.589523 0.021196 0.415215
C12   C     C_R   0.313960 0.756092 0.225241 0.544142
C13   C     C_R   0.950502 0.409311 0.685855 -0.132166
C14   C     C_R   0.670991 0.497294 0.945775 -0.124477
C15   C     C_R   0.973930 0.503878 0.679438 0.040311
C16   C     C_R   0.699426 0.136778 0.695519 0.025157
C17   C     C_R   0.065704 0.870958 0.073146 0.031173
C18   C     C_R   0.610553 0.260396 0.108758 -0.131425
C19   C     C_R   0.695142 0.349862 0.209790 -0.164586
C20   C     C_R   0.754111 0.332531 0.288997 0.111071
C21   C     C_R   0.722992 0.224234 0.266995 -0.139878
C22   C     C_R   0.636065 0.135144 0.166667 -0.085339
C23   C     C_R   0.203747 0.407802 0.896705 -0.245117
C24   C     C_R   0.580347 0.153269 0.087216 -0.059996
C25   C     C_R   0.864286 0.431532 0.488263 -0.235866
C26   C     C_R   0.960651 0.511008 0.585389 0.072736
C27   C     C_R   0.046411 0.590124 0.589319 -0.004828
C28   C     C_R   0.032470 0.586768 0.494653 -0.195741
C29   C     C_R   0.938145 0.505696 0.396697 0.080733
C30   C     C_R   0.852260 0.425958 0.391910 0.025528
C31   C     C_R   0.185622 0.773234 0.758881 -0.194005
C32   C     C_R   0.292370 0.847766 0.842783 -0.049140
C33   C     C_R   0.373105 0.819048 0.849117 0.026039
C34   C     C_R   0.997209 0.591330 0.298914 -0.148884
C35   C     C_R   0.346904 0.715588 0.771968 -0.065202
C36   C     C_R   0.239346 0.638782 0.691173 -0.101808
C37   C     C_R   0.157455 0.666680 0.684391 0.135852
C38   C     C_R   0.147922 0.931148 0.447033 0.361522
C39   C     C_R   0.249523 0.953288 0.456060 0.452908
C40   C     C_R   0.314781 0.923096 0.517847 -0.356041
C41   C     C_R   0.281393 0.882074 0.579045 0.454276
C42   C     C_R   0.181317 0.863634 0.570181 -0.348338
C43   C     C_R   0.111975 0.881844 0.501405 0.300486
C44   C     C_R   0.508961 0.018673 0.601059 -0.255285
C45   C     C_R   0.292745 0.589705 0.986461 0.543189
C46   C     C_R   0.607892 0.030307 0.611074 0.040261
C47   C     C_R   0.613967 0.944760 0.539571 0.054689
C48   C     C_R   0.517084 0.854165 0.449325 -0.296350
C49   C     C_R   0.417764 0.850049 0.432702 0.105023
C50   C     C_R   0.414200 0.928700 0.515371 0.106294
C51   C     C_R   0.744869 0.938923 0.473038 -0.285671
C52   C     C_R   0.850808 0.966472 0.494948 -0.153934
C53   C     C_R   0.933050 0.009727 0.599775 0.651103
C54   C     C_R   0.906239 0.015072 0.680874 -0.314087
C55   C     C_R   0.799909 0.984898 0.658531 -0.171016
C56   C     C_R   0.912891 0.408936 0.210715 -0.086903
C57   C     C_R   0.719583 0.952256 0.555954 0.139892
C58   C     C_3   0.466294 0.377960 0.852539 0.367510
C59   C     C_3   0.360888 0.378518 0.838797 -0.574151
C60   C     C_3   0.575411 0.543435 0.039629 -0.523430
C61   C     C_3   0.537527 0.563835 0.872522 0.396402
C62   C     C_3   0.565835 0.496979 0.926551 0.217346
C63   C     C_3   0.386761 0.495925 0.913189 0.327726
C64   C     C_3   0.471495 0.540498 0.031462 -0.463305
C65   C     C_3   0.432967 0.565290 0.868062 -0.537252
C66   C     C_R   0.237381 0.063844 0.839575 -0.105308
C67   C     C_R   0.218332 0.735793 0.308768 -0.167921
C68   C     C_R   0.172718 0.053454 0.886800 -0.225240
C69   C     C_R   0.207033 0.139180 0.989056 0.120814
C70   C     C_R   0.303636 0.237225 0.040841 -0.120406
C71   C     C_R   0.367622 0.247228 0.992755 -0.143313
C72   C     C_R   0.335996 0.159254 0.893486 -0.130023
C73   C     C_R   0.165414 0.035084 0.073359 -0.219415
C74   C     C_R   0.100803 0.988369 0.109972 0.092378
C75   C     C_R   0.064098 0.053376 0.166076 0.109870
C76   C     C_R   0.081717 0.151170 0.166935 -0.205395
C77   C     C_R   0.101966 0.165808 0.089101 0.035364
C78   C     C_R   0.065456 0.248565 0.968931 -0.212914
C79   C     C_R   0.157222 0.115580 0.051606 0.039701
C80   C     C_R   0.878646 0.949423 0.129237 -0.265455
C81   C     C_R   0.800396 0.945190 0.160235 0.004099
C82   C     C_R   0.831090 0.011544 0.267663 -0.165208
C83   C     C_R   0.940245 0.083670 0.344651 -0.350050
C84   C     C_R   0.020024 0.090212 0.314350 0.650635
C85   C     C_R   0.989136 0.020993 0.205752 0.025482
C86   C     C_R   0.047076 0.214858 0.038123 -0.095526
H1    H     H_    0.057459 0.677962 0.806089 0.100285
H2    H     H_    0.815344 0.174656 0.637823 0.108577
H3    H     H_    0.149627 0.830367 0.981391 0.107055
H4    H     H_    0.908152 0.325135 0.620321 0.099206
H5    H     H_    0.717442 0.432286 0.224623 0.120765
H6    H     H_    0.767808 0.208625 0.326335 0.110951
H7    H     H_    0.613276 0.052102 0.149852 0.106212
H8    H     H_    0.101098 0.641898 0.496291 0.149341
H9    H     H_    0.124706 0.798402 0.751905 0.106345
H10   H     H_    0.312904 0.928546 0.901490 0.103584
H11   H     H_    0.456248 0.877602 0.912419 0.073877
H12   H     H_    0.410387 0.695696 0.773787 0.113324
H13   H     H_    0.220334 0.559003 0.631663 0.104844
H14   H     H_    0.504140 0.082939 0.658191 0.177121
H15   H     H_    0.684212 0.912779 0.393046 0.139425
H16   H     H_    0.869926 0.958005 0.431183 0.142036
H17   H     H_    0.967888 0.045433 0.761881 0.134351
H18   H     H_    0.021213 0.674956 0.352340 0.125091
H19   H     H_    0.781655 0.993531 0.723142 0.138095
H20   H     H_    0.304813 0.348675 0.752966 0.207840
H21   H     H_    0.319547 0.319861 0.858816 0.167938
H22   H     H_    0.438197 0.488410 0.062015 0.181359
H23   H     H_    0.521617 0.521654 0.788112 0.150181
H24   H     H_    0.371554 0.530797 0.782819 0.158661
H25   H     H_    0.450920 0.650686 0.913181 0.184733
H26   H     H_    0.387244 0.163832 0.857735 0.127854
H27   H     H_    0.212504 0.996705 0.762798 0.150520
H28   H     H_    0.099165 0.976314 0.846905 0.128542
H29   H     H_    0.332001 0.303203 0.120571 0.120135
H30   H     H_    0.211670 0.000557 0.047778 0.132578
H31   H     H_    0.057346 0.203259 0.211613 0.166451
H32   H     H_    0.861388 0.324770 0.183656 0.182754
H33   H     H_    0.852803 0.903014 0.044155 0.147287
H34   H     H_    0.715499 0.894462 0.100287 0.107422
H35   H     H_    0.770013 0.008828 0.290901 0.122711
H36   H     H_    0.193668 0.729827 0.365884 0.129688
H37   H     H_    0.120347 0.244181 0.939144 0.146471
N1    N     N_R   0.947080 0.293830 0.002870 -0.074487
N2    N     N_R   0.054040 0.556820 0.847890 -0.038189
N3    N     N_R   0.848290 0.293830 0.791110 -0.048113
N4    N     N_R   0.995680 0.706170 0.053910 -0.055915
N5    N     N_R   0.052920 0.706170 0.997130 -0.050529
N6    N     N_R   0.791050 0.293830 0.847890 -0.048604
N7    N     N_R   0.846330 0.556820 0.053910 -0.101886
N8    N     N_R   0.997640 0.443180 0.791110 -0.044181
N9    N     N_R   0.208950 0.706170 0.152110 -0.065265
N10   N     N_R   0.153670 0.443180 0.946090 -0.069351
N11   N     N_R   0.002360 0.556820 0.208890 -0.048671
N12   N     N_R   0.210070 0.556820 0.002870 -0.076577
N13   N     N_R   0.945960 0.443180 0.152110 -0.049242
N14   N     N_R   0.151710 0.706170 0.208890 -0.064590
N15   N     N_R   0.004320 0.293830 0.946090 -0.064515
N16   N     N_R   0.789930 0.443180 0.997130 -0.134465
Ni1   Ni    Ni4+2 0.869690 0.369690 0.000000 0.211304
Ni2   Ni    Ni4+2 0.130310 0.630310 0.000000 0.285528
Ni3   Ni    Ni4+2 0.000970 0.369690 0.869780 0.194024
Ni4   Ni    Ni4+2 0.999030 0.630310 0.130220 0.228027
O1    O     O_3   0.898536 0.191422 0.083333 -0.807138
H38   H     H_    0.889988 0.117451 0.063754 0.311738
H39   H     H_    0.992225 0.836919 0.167534 0.199907
H40   H     H_    0.660807 0.158255 0.823554 0.108451
O2    O     O_3   0.798857 0.696243 0.072693 -0.772518
H41   H     H_    0.800632 0.719584 0.019955 0.347430
H42   H     H_    0.514500 0.084520 0.008669 0.102453
H43   H     H_    0.569976 0.274271 0.046415 0.114297
O3    O     O_3   0.395307 0.796200 0.204294 -0.771442
H44   H     H_    0.462404 0.853173 0.273592 0.305211
H45   H     H_    0.799865 0.371409 0.487325 0.135237
O4    O     O_3   0.008061 0.844217 0.484827 -0.713404
H46   H     H_    0.958346 0.823152 0.410467 0.319725
H47   H     H_    0.169999 0.322664 0.837340 0.141768
O5    O     O_3   0.085576 0.957716 0.383446 -0.717265
H48   H     H_    0.034202 0.967657 0.407724 0.329092
O6    O     O_3   0.279224 0.999696 0.399340 -0.672047
H49   H     H_    0.354777 0.018644 0.417903 0.324714
O7    O     O_3   0.340163 0.853174 0.643862 -0.747687
H50   H     H_    0.408973 0.867821 0.643892 0.330791
H51   H     H_    0.153365 0.827807 0.612279 0.202262
H52   H     H_    0.519041 0.789558 0.389588 0.146836
O8    O     O_3   0.038430 0.048454 0.620932 -0.763063
H53   H     H_    0.086944 0.084971 0.699878 0.307673
H54   H     H_    0.476065 0.332317 0.894635 0.117599
O9    O     O_3   0.457755 0.324885 0.750875 -0.721201
H55   H     H_    0.409584 0.245113 0.717700 0.340425
H56   H     H_    0.593863 0.494625 0.076523 0.164153
O10   O     O_3   0.621169 0.671248 0.923555 -0.782717
H57   H     H_    0.629873 0.712342 0.995724 0.334557
O11   O     O_3   0.336911 0.690251 0.995536 -0.736266
H58   H     H_    0.416266 0.721865 0.035627 0.310984
H59   H     H_    0.642518 0.629270 0.096793 0.239079
H60   H     H_    0.491462 0.625062 0.086669 0.166992
H61   H     H_    0.442621 0.322669 0.034024 0.105785
H62   H     H_    0.962478 0.136195 0.427392 0.136493
O12   O     O_3   0.128083 0.165725 0.388111 -0.716584
H63   H     H_    0.135985 0.207317 0.459902 0.313694
O13   O     O_3   0.608533 0.300730 0.886476 -0.786807
H64   H     H_    0.637689 0.272099 0.931726 0.293229

loop_
_geom_bond_atom_site_label_1
_geom_bond_atom_site_label_2
_ccdc_geom_bond_type
C58   C62   S    
C66   C68   A    
C72   H26   S    
C66   H27   S    
C39   O6    S    
C41   C42   A    
C12   O3    S    
C3    C23   A    
C35   C36   A    
N13   Ni1   S    
C61   H23   S    
C63   C65   S    
C81   C82   A    
C20   C30   S    
C53   C54   A    
O10   H57   S    
C67   H36   S    
C81   H34   S    
C52   H16   S    
N10   Ni3   S    
C80   C85   A    
C73   H30   S    
C55   H19   S    
C83   C84   A    
C18   C24   A    
C71   H61   S    
N1    N15   A    
C28   C29   A    
C38   C39   A    
C13   H4    S    
C11   C14   A    
C42   H51   S    
C11   O2    S    
C34   N11   A    
C14   C62   S    
N9    Ni2   S    
C60   C62   S    
C18   C19   A    
C73   C74   A    
C84   O12   S    
C7    H2    S    
O11   H58   S    
C65   H25   S    
N11   Ni4   S    
O13   H64   S    
C75   C85   S    
C66   C72   A    
C48   H52   S    
C31   C32   A    
N2    Ni2   S    
C68   C69   A    
C64   H22   S    
C70   C71   A    
C51   C57   A    
C35   H12   S    
C58   H54   S    
N5    Ni2   S    
C82   H35   S    
C8    H39   S    
C4    C29   S    
C10   H40   S    
C78   C86   A    
C6    C15   A    
C80   H33   S    
C2    C12   A    
C21   C22   A    
C4    C56   A    
O8    H53   S    
C61   C62   S    
C43   O4    S    
N7    N16   A    
C78   N15   A    
C56   N13   A    
C44   C46   A    
C5    N16   A    
C76   C77   A    
C77   C79   A    
C13   N8    A    
C4    C34   A    
C45   N12   A    
C59   H20   S    
C74   C75   A    
C23   N10   A    
C51   C52   A    
C9    N5    A    
O9    H55   S    
C54   H17   S    
C58   O9    S    
C84   C85   A    
C38   O5    S    
C2    C67   A    
N15   Ni3   S    
C16   C46   S    
C39   C40   A    
O1    H38   S    
C28   H8    S    
N11   N13   A    
N3    N6    A    
C25   C26   A    
C3    C45   A    
C59   H21   S    
C6    H1    S    
C31   C37   A    
C75   C76   A    
C29   C30   A    
C78   H37   S    
C2    C49   S    
C47   C57   S    
N2    N8    A    
C8    N4    A    
C47   C48   A    
N12   Ni2   S    
C48   C49   A    
C73   C79   A    
C61   O10   S    
N4    Ni4   S    
O2    H41   S    
N7    Ni4   S    
C34   H18   S    
C5    C14   A    
N8    Ni3   S    
C24   H42   S    
C9    C17   A    
C40   C41   A    
C32   H10   S    
C77   C86   S    
C49   C50   A    
C13   C15   A    
C26   C27   A    
O5    H48   S    
C60   H59   S    
C22   H7    S    
C22   C24   A    
C69   C79   S    
C42   C43   A    
C9    H3    S    
N4    N5    A    
C11   N7    A    
C5    O13   S    
O4    H46   S    
C52   C53   A    
O7    H50   S    
C44   C50   A    
C25   C30   A    
C54   C55   A    
C36   C37   A    
C12   N9    A    
C25   H45   S    
C60   H56   S    
C56   H32   S    
N1    Ni1   S    
C7    C16   A    
C8    C17   A    
C6    N2    A    
C80   C81   A    
C15   C26   S    
N16   Ni1   S    
C3    C63   S    
C70   H29   S    
C51   H15   S    
C59   C63   S    
C76   H31   S    
C83   H62   S    
C60   C64   S    
C32   C33   A    
C19   C20   A    
C55   C57   A    
N9    N14   A    
C10   N6    A    
C38   C43   A    
C31   H9    S    
C1    O1    S    
C10   C16   A    
C45   O11   S    
O6    H49   S    
C64   H60   S    
C44   H14   S    
C17   C74   S    
N6    Ni1   S    
C27   C37   S    
C40   C50   S    
C23   H47   S    
C33   C35   A    
N3    Ni3   S    
C36   H13   S    
C33   H11   S    
C7    N3    A    
N14   Ni4   S    
C69   C70   A    
C67   N14   A    
C58   C59   S    
C65   H24   S    
C1    N1    A    
C46   C47   A    
C19   H5    S    
C63   C64   S    
C61   C65   S    
C53   O8    S    
C1    C86   A    
C71   C72   A    
C20   C21   A    
C82   C83   A    
C27   C28   A    
N10   N12   A    
O3    H44   S    
C41   O7    S    
O12   H63   S    
C18   H43   S    
C68   H28   S    
C21   H6    S    
