data_mof_unit_26368.cif
_audit_creation_date              2012-12-10T17:11:58-0500
_audit_creation_method            fapswitch 2.2
_symmetry_space_group_name_H-M    P1
_symmetry_Int_Tables_number       1
_space_group_crystal_system       triclinic
_cell_length_a                    11.639579
_cell_length_b                    13.0607
_cell_length_c                    15.793234
_cell_angle_alpha                 92.197166
_cell_angle_beta                  73.871039
_cell_angle_gamma                 99.680932
_cell_volume                      2273.46838483

loop_
_atom_site_label
_atom_site_type_symbol
_atom_type_description
_atom_site_fract_x
_atom_site_fract_y
_atom_site_fract_z
_atom_type_partial_charge
C1    C     C_R   0.521388 0.700798 0.498939 0.890989
C2    C     C_R   0.478971 0.299544 0.499528 0.904501
C3    C     C_R   0.365155 0.537906 0.084659 -0.099683
C4    C     C_R   0.638354 0.468629 0.914557 -0.121915
C5    C     C_R   0.274556 0.510027 0.040865 0.379464
C6    C     C_R   0.728681 0.495601 0.959121 0.453962
C7    C     C_R   0.465731 0.186776 0.502493 -0.342580
C8    C     C_R   0.534727 0.814067 0.492720 -0.337497
C9    C     C_R   0.663482 0.982152 0.455893 0.447141
C10   C     C_R   0.342591 0.021119 0.554412 0.436316
C11   C     C_R   0.650513 0.873931 0.460226 0.309230
C12   C     C_R   0.352144 0.127808 0.542751 0.309763
C13   C     C_R   0.430838 0.862317 0.516165 0.424555
C14   C     C_R   0.568567 0.138824 0.468811 0.435335
C15   C     C_R   0.443801 0.971224 0.517299 -0.253464
C16   C     C_R   0.559591 0.031217 0.480368 -0.242977
C17   C     C_R   0.936870 0.589736 0.587311 -0.303322
C18   C     C_R   0.062884 0.409619 0.413077 -0.352977
C19   C     C_R   0.819304 0.582277 0.578024 0.137933
C20   C     C_R   0.180805 0.417866 0.421847 0.071967
C21   C     C_R   0.861467 0.461788 0.461781 0.047121
C22   C     C_R   0.138032 0.537153 0.538921 0.039044
C23   C     C_R   0.426696 0.495648 0.668432 0.801276
C24   C     C_R   0.573373 0.504668 0.331606 0.768666
C25   C     C_R   0.980824 0.467130 0.468406 0.070897
C26   C     C_R   0.018718 0.531846 0.532241 0.053890
C27   C     C_R   0.382967 0.492462 0.765111 -0.052684
C28   C     C_R   0.617668 0.509127 0.235041 -0.059040
C29   C     C_R   0.222478 0.480541 0.901482 -0.149791
C30   C     C_R   0.779226 0.521894 0.099291 -0.150586
C31   C     C_R   0.259323 0.478607 0.809576 -0.202376
C32   C     C_R   0.741474 0.522376 0.191166 -0.235930
C33   C     C_R   0.468040 0.503211 0.813541 -0.236314
C34   C     C_R   0.533349 0.500720 0.186144 -0.135519
C35   C     C_R   0.432671 0.492442 0.905507 0.038115
C36   C     C_R   0.569890 0.512613 0.094252 0.076067
C37   C     C_R   0.308753 0.491216 0.950050 0.068054
C38   C     C_R   0.693752 0.513172 0.050154 0.003728
C39   C     C_R   0.519004 0.491613 0.954021 -0.128433
C40   C     C_R   0.484539 0.515036 0.045348 -0.020904
Cu1   Cu    Cu3+1 0.386820 0.492450 0.493500 0.963019
Cu2   Cu    Cu3+1 0.613180 0.507550 0.506500 0.970674
H1    H     H_    0.243864 0.373583 0.378870 0.113516
H2    H     H_    0.756502 0.627070 0.620646 0.121838
H3    H     H_    0.963458 0.640329 0.636970 0.139582
H4    H     H_    0.036341 0.359015 0.363407 0.140092
H5    H     H_    0.438163 0.481571 0.220322 0.135468
H6    H     H_    0.562874 0.523855 0.778901 0.156759
H7    H     H_    0.808598 0.529204 0.227645 0.155429
H8    H     H_    0.191620 0.470245 0.773510 0.170635
H9    H     H_    0.126723 0.476329 0.934125 0.196403
H10   H     H_    0.875027 0.525469 0.067140 0.193949
H11   H     H_    0.168561 0.586560 0.587672 0.145589
H12   H     H_    0.830765 0.412071 0.413276 0.140992
N1    N     N_R   0.216750 0.481110 0.483710 -0.177121
N2    N     N_R   0.783250 0.518890 0.516290 -0.187095
O1    O     O_R   0.419950 0.645670 0.495380 -0.557752
O2    O     O_R   0.580050 0.354330 0.504620 -0.546543
O3    O     O_R   0.611110 0.658410 0.506370 -0.549526
O4    O     O_R   0.388890 0.341590 0.493630 -0.561798
O5    O     O_R   0.350820 0.490050 0.621260 -0.577394
O6    O     O_R   0.649180 0.509950 0.378740 -0.594429
O7    O     O_R   0.541970 0.502800 0.632250 -0.599993
O8    O     O_R   0.458030 0.497200 0.367750 -0.598668
O9    O     O_3   0.155896 0.521245 0.082494 -0.594981
C41   C     C_3   0.097189 0.428726 0.129515 -0.393072
H13   H     H_    0.002101 0.437166 0.163291 0.192210
H14   H     H_    0.140791 0.413207 0.181117 0.149458
H15   H     H_    0.094756 0.361387 0.084268 0.178335
O10   O     O_3   0.847850 0.485877 0.917835 -0.549059
C42   C     C_3   0.907444 0.581368 0.876155 -0.267912
H16   H     H_    0.865098 0.602051 0.825368 0.171972
H17   H     H_    0.002793 0.573993 0.842141 0.181059
H18   H     H_    0.909026 0.644900 0.925080 0.139642
C43   C     C_2   0.335469 0.604639 0.163806 0.367051
H19   H     H_    0.243498 0.596975 0.206383 0.107877
O11   O     O_2   0.412354 0.672564 0.179705 -0.552886
C44   C     C_2   0.663842 0.401069 0.835282 0.392902
H20   H     H_    0.589690 0.350030 0.818632 0.068529
O12   O     O_2   0.766548 0.400774 0.788109 -0.503046
O13   O     O_3   0.678331 0.198197 0.425771 -0.527467
C45   C     C_3   0.683153 0.206993 0.336026 -0.239251
H21   H     H_    0.772088 0.252728 0.301308 0.167619
H22   H     H_    0.611490 0.249066 0.327481 0.112578
H23   H     H_    0.675890 0.129449 0.304310 0.164220
O14   O     O_3   0.316298 0.802464 0.538819 -0.536473
C46   C     C_3   0.269308 0.796939 0.464886 -0.178899
H24   H     H_    0.176839 0.750726 0.483341 0.168447
H25   H     H_    0.325634 0.757683 0.408549 0.160076
H26   H     H_    0.261119 0.874915 0.443522 0.149310
O15   O     O_3   0.252680 0.176085 0.579553 -0.541821
C47   C     C_3   0.174766 0.160564 0.524165 -0.217109
H27   H     H_    0.129745 0.078290 0.525943 0.174097
H28   H     H_    0.223424 0.185182 0.454942 0.127351
H29   H     H_    0.102652 0.208904 0.548409 0.181222
O16   O     O_3   0.752950 0.827298 0.433348 -0.549677
C48   C     C_3   0.774564 0.805693 0.342576 -0.214734
H30   H     H_    0.854958 0.766087 0.321463 0.177055
H31   H     H_    0.794890 0.878370 0.302838 0.168991
H32   H     H_    0.696832 0.752454 0.328490 0.138371
O17   O     O_3   0.778716 0.038631 0.424435 -0.535297
C49   C     C_3   0.829285 0.061260 0.495835 -0.196386
H33   H     H_    0.842100 0.989178 0.524925 0.162864
H34   H     H_    0.772996 0.106510 0.547476 0.162601
H35   H     H_    0.919884 0.109724 0.471161 0.161095
O18   O     O_3   0.232962 0.966481 0.602836 -0.541133
C50   C     C_3   0.234134 0.964288 0.691789 -0.205566
H36   H     H_    0.242701 0.043955 0.719541 0.162895
H37   H     H_    0.307930 0.924497 0.699812 0.149893
H38   H     H_    0.146799 0.919645 0.730548 0.171402

loop_
_geom_bond_atom_site_label_1
_geom_bond_atom_site_label_2
_ccdc_geom_bond_type
C19   N2    A    
C11   O16   S    
C41   H14   S    
C46   H24   S    
C8    C13   A    
C5    C37   A    
C1    C8    S    
Cu1   Cu2   S    
C12   O15   S    
C2    C7    S    
Cu1   O5    S    
Cu2   O2    S    
C48   H30   S    
C27   C33   A    
O17   C49   S    
C17   C26   A    
C35   C37   A    
C9    C16   A    
C17   H3    S    
C10   C15   A    
C1    O3    A    
C21   H12   S    
C44   O12   D    
C41   H15   S    
O18   C50   S    
C15   C16   A    
C30   C38   A    
C49   H35   S    
Cu1   N1    S    
C21   C25   A    
Cu2   N2    S    
C7    C14   A    
C13   O14   S    
C50   H36   S    
C6    C38   A    
O10   C42   S    
C23   C27   S    
C3    C43   S    
Cu2   O6    S    
C34   C36   A    
C23   O7    A    
C41   H13   S    
C28   C34   A    
C24   O8    A    
C50   H37   S    
C18   C25   A    
C20   N1    A    
C18   H4    S    
C48   H31   S    
O13   C45   S    
C22   H11   S    
C7    C12   A    
C27   C31   A    
C28   C32   A    
C2    O4    A    
C5    O9    S    
O15   C47   S    
C42   H17   S    
C44   H20   S    
C17   C19   A    
C25   C26   A    
C47   H29   S    
C35   C39   A    
C43   H19   S    
C4    C44   S    
C1    O1    A    
C42   H18   S    
C43   O11   D    
C4    C39   A    
C36   C40   A    
O16   C48   S    
C47   H28   S    
C49   H34   S    
C9    C11   A    
C10   C12   A    
C4    C6    A    
C3    C40   A    
C45   H21   S    
C45   H22   S    
C46   H25   S    
C50   H38   S    
C14   C16   A    
C10   O18   S    
C31   H8    S    
C39   C40   A    
C20   H1    S    
C19   H2    S    
C29   H9    S    
C6    O10   S    
C30   H10   S    
C24   O6    A    
C48   H32   S    
O14   C46   S    
C24   C28   S    
Cu1   O4    S    
C3    C5    A    
Cu2   O3    S    
C21   N2    A    
C2    O2    A    
C22   N1    A    
C45   H23   S    
Cu1   O8    S    
C13   C15   A    
Cu1   O1    S    
C42   H16   S    
C29   C31   A    
C30   C32   A    
C8    C11   A    
C36   C38   A    
C47   H27   S    
C33   C35   A    
C18   C20   A    
C49   H33   S    
C32   H7    S    
C23   O5    A    
C9    O17   S    
O9    C41   S    
C22   C26   A    
C46   H26   S    
C29   C37   A    
C33   H6    S    
C34   H5    S    
C14   O13   S    
Cu2   O7    S    
