data_mof_unit_26126.cif
_audit_creation_date              2013-03-05T15:55:43-0500
_audit_creation_method            fapswitch 2.2
_symmetry_space_group_name_H-M    P1
_symmetry_Int_Tables_number       1
_space_group_crystal_system       triclinic
_cell_length_a                    6.919382
_cell_length_b                    17.758766
_cell_length_c                    19.3783
_cell_angle_alpha                 108.553195
_cell_angle_beta                  89.440555
_cell_angle_gamma                 90.736819
_cell_volume                      2257.21819825

loop_
_atom_site_label
_atom_site_type_symbol
_atom_site_description
_atom_site_fract_x
_atom_site_fract_y
_atom_site_fract_z
_atom_type_partial_charge
O1    O     O_R   0.494330 0.415710 0.413720 -0.571399
O2    O     O_R   0.819360 0.430070 0.560210 -0.559615
O3    O     O_R   0.994320 0.584290 0.586280 -0.589912
C1    C     C_R   0.650347 0.416922 0.583454 1.029573
O4    O     O_R   0.823740 0.406290 0.412670 -0.550966
O5    O     O_R   0.998730 0.560340 0.437690 -0.563688
C2    C     C_R   0.652733 0.381783 0.385483 1.093759
O6    O     O_R   0.489920 0.439660 0.562310 -0.602182
O7    O     O_3   0.662330 0.550570 0.508380 -0.262452
V1    V     V_3+5 0.935370 0.490620 0.498440 1.368937
O8    O     O_R   0.328720 0.569930 0.439790 -0.559334
C3    C     C_R   0.162129 0.584856 0.417840 1.095418
O9    O     O_R   0.324340 0.593710 0.587330 -0.620583
C4    C     C_R   0.155157 0.616918 0.615352 1.002450
V2    V     V_3+5 0.435940 0.509380 0.501560 1.325513
O10   O     O_3   0.159110 0.449430 0.491620 -0.235983
C5    C     C_R   0.312577 0.723571 0.718729 -0.109906
H1    H     H_    0.453741 0.704290 0.695783 0.127498
C6    C     C_R   0.301370 0.787312 0.783651 -0.112648
H2    H     H_    0.434480 0.815266 0.808566 0.123252
C7    C     C_R   0.121249 0.814606 0.815838 -0.122879
C8    C     C_R   0.952666 0.776320 0.781160 -0.130794
H3    H     H_    0.811493 0.795573 0.804106 0.122908
C9    C     C_R   0.963874 0.712610 0.716224 -0.023462
C10   C     C_R   0.143990 0.685303 0.684056 -0.112372
C11   C     C_R   0.299989 0.628138 0.314365 0.348182
C12   C     C_R   0.160244 0.637242 0.370806 -0.461210
C13   C     C_R   0.018101 0.696869 0.382469 0.314864
C14   C     C_R   0.004190 0.741836 0.333895 0.002780
C15   C     C_R   0.142566 0.731867 0.277380 0.015716
C16   C     C_R   0.294411 0.677493 0.269651 -0.062977
C17   C     C_R   0.857994 0.798385 0.341616 -0.128768
C18   C     C_R   0.844587 0.842047 0.293564 -0.133467
C19   C     C_R   0.980239 0.832797 0.237165 0.055984
C20   C     C_R   0.131716 0.777815 0.229343 0.063332
C21   C     C_R   0.272865 0.769187 0.173910 -0.025462
C22   C     C_R   0.426572 0.715756 0.167606 0.321854
C23   C     C_R   0.438606 0.672960 0.216702 -0.190586
C24   C     C_R   0.968075 0.877935 0.188965 0.337625
C25   C     C_R   0.108979 0.869208 0.133795 -0.326301
C26   C     C_R   0.260704 0.816062 0.127722 -0.090465
C27   C     C_R   0.778298 0.192545 0.876584 0.275982
C28   C     C_R   0.625778 0.137144 0.871419 -0.292320
C29   C     C_R   0.480060 0.129621 0.819600 -0.142900
C30   C     C_R   0.483816 0.175486 0.772591 0.089265
C31   C     C_R   0.635951 0.230084 0.776665 0.055825
C32   C     C_R   0.783631 0.238977 0.828956 0.004361
C33   C     C_R   0.337513 0.166717 0.721126 -0.283658
C34   C     C_R   0.340507 0.210648 0.672366 0.340570
C35   C     C_R   0.490201 0.267419 0.676963 -0.039979
C36   C     C_R   0.638659 0.276699 0.729152 0.042551
C37   C     C_R   0.788844 0.333197 0.734674 0.048881
C38   C     C_R   0.932435 0.342210 0.787724 -0.133650
C39   C     C_R   0.930147 0.295907 0.833800 -0.124404
C40   C     C_R   0.493521 0.315993 0.631757 -0.079170
C41   C     C_R   0.643492 0.371092 0.635771 -0.307554
C42   C     C_R   0.790740 0.380543 0.688173 0.323489
H4    H     H_    0.380163 0.311439 0.592619 0.205294
C43   C     C_R   0.770939 0.249062 0.301215 0.390735
C44   C     C_R   0.765430 0.189473 0.233102 -0.102216
C45   C     C_R   0.619765 0.186350 0.182580 -0.384221
C46   C     C_R   0.475716 0.244784 0.200273 0.267969
C47   C     C_R   0.477764 0.305404 0.268322 0.284560
C48   C     C_R   0.633567 0.311166 0.317950 -0.483943
O11   O     O_R   0.774940 0.060470 0.937800 -0.586812
O12   O     O_R   0.440880 0.093730 0.087350 -0.575658
O13   O     O_R   0.266130 0.939630 0.062280 -0.590143
C49   C     C_R   0.609975 0.117621 0.114535 1.110327
O14   O     O_R   0.445480 0.069960 0.939820 -0.571817
O15   O     O_R   0.270770 0.915690 0.913690 -0.617209
C50   C     C_R   0.615377 0.086169 0.919202 1.010506
O16   O     O_R   0.770300 0.084410 0.086380 -0.575650
O17   O     O_3   0.602600 0.949510 0.991670 -0.286648
V3    V     V_3+5 0.329470 0.009370 0.001550 1.290895
O18   O     O_R   0.940760 0.906160 0.912560 -0.612828
C51   C     C_R   0.110006 0.882998 0.884568 0.911606
O19   O     O_R   0.936150 0.929930 0.060100 -0.567269
C52   C     C_R   0.103337 0.916710 0.083172 1.005917
V4    V     V_3+5 0.828930 0.990450 0.998310 1.275272
O20   O     O_3   0.105670 0.050490 0.008320 -0.220272
H5    H     H_    0.370021 0.812235 0.086557 0.199630
N1    N     N_R   0.569241 0.702150 0.110592 0.244228
O21   O     O_R   0.514855 0.682221 0.043008 -0.361554
O22   O     O_R   0.749326 0.692740 0.124422 -0.385120
H6    H     H_    0.561968 0.634845 0.211872 0.220565
N2    N     N_R   0.921396 0.204324 0.932288 0.240893
O23   O     O_R   0.870310 0.228112 0.000568 -0.317911
O24   O     O_R   0.100955 0.186652 0.914804 -0.389538
H7    H     H_    0.363712 0.086870 0.815259 0.154258
H8    H     H_    0.222012 0.123827 0.717565 0.180392
N3    N     N_R   0.193139 0.195036 0.617652 0.243522
O25   O     O_R   0.241457 0.179227 0.549486 -0.326408
O26   O     O_R   0.016688 0.180109 0.633610 -0.385730
N4    N     N_R   0.936416 0.441051 0.696554 0.225828
O27   O     O_R   0.115573 0.421616 0.680012 -0.420920
O28   O     O_R   0.887822 0.515444 0.716067 -0.426332
H9    H     H_    0.047864 0.385576 0.794604 0.182804
H10   H     H_    0.043582 0.306048 0.873830 0.192662
N5    N     N_R   0.904257 0.240701 0.354941 0.271954
O29   O     O_R   0.063381 0.201221 0.334525 -0.315183
O30   O     O_R   0.849847 0.257599 0.422610 -0.361164
H11   H     H_    0.870706 0.142406 0.220783 0.209592
N6    N     N_R   0.326245 0.243110 0.148921 0.273359
O31   O     O_R   0.146746 0.232189 0.164235 -0.327647
O32   O     O_R   0.370213 0.250452 0.085911 -0.300495
N7    N     N_R   0.315827 0.358273 0.287186 0.249058
O33   O     O_R   0.198115 0.353439 0.338276 -0.342319
O34   O     O_R   0.253874 0.391835 0.241124 -0.292631
H12   H     H_    0.830764 0.684659 0.691302 0.129539
N8    N     N_R   0.440218 0.565652 0.298874 0.231241
O35   O     O_R   0.587998 0.572449 0.341378 -0.358127
O36   O     O_R   0.449102 0.514538 0.233748 -0.326417
N9    N     N_R   0.899540 0.715792 0.447064 0.239671
O37   O     O_R   0.980258 0.735867 0.510814 -0.425716
O38   O     O_R   0.712391 0.708825 0.442619 -0.364936
H13   H     H_    0.751341 0.809714 0.384643 0.188360
H14   H     H_    0.727086 0.883670 0.301413 0.184934
N10   N     N_R   0.819976 0.936096 0.198908 0.216863
O39   O     O_R   0.841071 0.005393 0.247872 -0.397802
O40   O     O_R   0.653872 0.915948 0.167120 -0.411322

loop_
_geom_bond_atom_site_label_1
_geom_bond_atom_site_label_2
_geom_bond_distance
_ccdc_geom_bond_type
O12   C49   1.297514 A    
C40   C41   1.402620 A    
O18   C51   1.301092 A    
C18   H14   1.082594 S    
O11   V4    2.002273 S    
C43   N5    1.441386 S    
O17   V3    2.157193 S    
C20   C21   1.417699 A    
C1    O6    1.299558 A    
O19   C52   1.295047 A    
C29   C30   1.401815 A    
C7    C51   1.492008 S    
C13   C14   1.419533 A    
C43   C48   1.420705 A    
C14   C15   1.417037 A    
C15   C20   1.422784 A    
C21   C22   1.412818 A    
C6    C7    1.408996 A    
N9    O37   1.301260 A    
O16   V4    2.013250 S    
O5    C3    1.304317 A    
C15   C16   1.410585 A    
N2    O24   1.300415 A    
N7    O33   1.299027 A    
V2    O10   2.159613 S    
O12   V3    2.003320 S    
C41   C42   1.415898 A    
C19   C20   1.415607 A    
O14   C50   1.296073 A    
N10   O39   1.300410 A    
N8    O35   1.299458 A    
O8    V2    1.999103 S    
C6    H2    1.082711 S    
O15   V3    2.006257 S    
O1    V2    2.007424 S    
O7    V1    2.157316 S    
C11   N8    1.439784 S    
V4    O20   2.159709 S    
C11   C16   1.416089 A    
C33   H8    1.084249 S    
O9    C4    1.301040 A    
C1    C41   1.488516 S    
C21   C26   1.406628 A    
C45   C46   1.407621 A    
O13   C52   1.297135 A    
C34   N3    1.437909 S    
C44   H11   1.082385 S    
C35   C36   1.419517 A    
N8    O36   1.300515 A    
O19   V4    1.999013 S    
O17   V4    1.706699 S    
C23   H6    1.080974 S    
C36   C37   1.416003 A    
C9    C10   1.408891 A    
C13   N9    1.439489 S    
N3    O25   1.301257 A    
O4    C2    1.311527 A    
N2    O23   1.301211 A    
C3    C12   1.495488 S    
C38   H9    1.081521 S    
O11   C50   1.297128 A    
C31   C36   1.420438 A    
C19   C24   1.414850 A    
C44   C45   1.400249 A    
O2    C1    1.294087 A    
C28   C29   1.404899 A    
C22   C23   1.397499 A    
N3    O26   1.301170 A    
N5    O29   1.302003 A    
C49   O16   1.294766 A    
C26   H5    1.080810 S    
C46   C47   1.412319 A    
C5    H1    1.082707 S    
C11   C12   1.424152 A    
O14   V3    2.002801 S    
N6    O32   1.301342 A    
O13   V3    2.003599 S    
C17   H13   1.079505 S    
C47   N7    1.439206 S    
N4    O28   1.300957 A    
O3    C4    1.295979 A    
C32   C39   1.404935 A    
C27   N2    1.435694 S    
C33   C34   1.403642 A    
N5    O30   1.301604 A    
C34   C35   1.419504 A    
O6    V2    2.001603 S    
N1    O22   1.301089 A    
C42   N4    1.435738 S    
O9    V2    2.005559 S    
O15   C51   1.296179 A    
C25   C52   1.484496 S    
C22   N1    1.438239 S    
C27   C28   1.415780 A    
O2    V1    2.002884 S    
C24   C25   1.412669 A    
C37   C38   1.407386 A    
C46   N6    1.435717 S    
C30   C33   1.400180 A    
C31   C32   1.417798 A    
C25   C26   1.399705 A    
C28   C50   1.487447 S    
O1    C2    1.288113 A    
C9    H12   1.082732 S    
O5    V1    2.003643 S    
O8    C3    1.291944 A    
C38   C39   1.392940 A    
C14   C17   1.407745 A    
C24   N10   1.432062 S    
C35   C40   1.411407 A    
C16   C23   1.408650 A    
C5    C10   1.406558 A    
C17   C18   1.392811 A    
O7    V2    1.708637 S    
O4    V1    2.003305 S    
O3    V1    2.006278 S    
V1    O10   1.706719 S    
C45   C49   1.486084 S    
N7    O34   1.299366 A    
C5    C6    1.401510 A    
C18   C19   1.404334 A    
C8    C9    1.401388 A    
C27   C32   1.419862 A    
C4    C10   1.491596 S    
N4    O27   1.300565 A    
N10   O40   1.300551 A    
C2    C48   1.502533 S    
C37   C42   1.414480 A    
C47   C48   1.432592 A    
C30   C31   1.407539 A    
C43   C44   1.405188 A    
N1    O21   1.301280 A    
C40   H4    1.080708 S    
N6    O31   1.300591 A    
C8    H3    1.082678 S    
C39   H10   1.081475 S    
V3    O20   1.706648 S    
N9    O38   1.300354 A    
C7    C8    1.406674 A    
O18   V4    2.005602 S    
C29   H7    1.084688 S    
C12   C13   1.417687 A    
