data_mof_unit_20648.cif
_audit_creation_date              2012-12-10T19:13:22-0500
_audit_creation_method            fapswitch 2.2
_symmetry_space_group_name_H-M    P1
_symmetry_Int_Tables_number       1
_space_group_crystal_system       triclinic
_cell_length_a                    9.791416
_cell_length_b                    10.779385
_cell_length_c                    16.832056
_cell_angle_alpha                 89.807666
_cell_angle_beta                  84.377385
_cell_angle_gamma                 90.069434
_cell_volume                      1767.98741131

loop_
_atom_site_label
_atom_site_type_symbol
_atom_type_description
_atom_site_fract_x
_atom_site_fract_y
_atom_site_fract_z
_atom_type_partial_charge
Br1   Br    Br    0.829086 0.422119 0.074333 -0.296797
Br2   Br    Br    0.234507 0.099193 0.431144 -0.389515
Br3   Br    Br    0.871349 0.324125 0.372394 -0.468612
Br4   Br    Br    0.095888 0.378314 0.654107 -0.524976
Br5   Br    Br    0.155093 0.456594 0.922845 -0.284445
Br6   Br    Br    0.262877 0.597844 0.093484 -0.365552
Br7   Br    Br    0.719597 0.278828 0.885812 -0.339461
C1    C     C_R   0.501695 0.741743 0.495952 0.912125
C2    C     C_R   0.531040 0.505410 0.260454 -0.102470
C3    C     C_3   0.468344 0.931052 0.412848 -0.317107
C4    C     C_R   0.480315 0.493568 0.652695 0.973539
C5    C     C_3   0.435279 0.072736 0.421368 0.131690
C6    C     C_3   0.404756 0.926343 0.567702 -0.225667
C7    C     C_3   0.652774 0.929174 0.504988 -0.393173
C8    C     C_3   0.504862 0.877941 0.495751 -0.058324
C9    C     C_3   0.501710 0.121136 0.498436 -0.079482
C10   C     C_3   0.432353 0.065290 0.579263 -0.314273
C11   C     C_3   0.653663 0.071417 0.494651 -0.427886
C12   C     C_R   0.343305 0.475396 0.783689 -0.174403
C13   C     C_3   0.926158 0.599233 0.448963 -0.259116
C14   C     C_3   0.086982 0.602089 0.449545 -0.281642
C15   C     C_3   0.900925 0.524136 0.582146 -0.384840
C16   C     C_R   0.500213 0.257735 0.500979 0.877506
C17   C     C_3   0.926430 0.379844 0.474546 0.215812
C18   C     C_3   0.061901 0.518375 0.584793 0.113539
C19   C     C_3   0.088119 0.385940 0.468592 -0.209429
C20   C     C_R   0.519677 0.501693 0.347031 0.949970
C21   C     C_R   0.467775 0.460150 0.736672 -0.149103
C22   C     C_R   0.576986 0.398973 0.767757 -0.207779
C23   C     C_R   0.420420 0.536146 0.140146 0.282674
C24   C     C_R   0.566076 0.362335 0.847006 0.291414
C25   C     C_R   0.445181 0.388634 0.896227 -0.017863
C26   C     C_R   0.330215 0.436873 0.862846 0.315040
C27   C     C_2   0.368418 0.859194 0.367146 0.956231
C28   C     C_2   0.493036 0.142041 0.345264 0.902864
C29   C     C_2   0.312094 0.129222 0.625109 1.039142
C30   C     C_2   0.413253 0.859238 0.647279 0.957525
C31   C     C_2   0.102019 0.632345 0.631024 0.967547
C32   C     C_R   0.415262 0.536956 0.222384 -0.170563
C33   C     C_R   0.654497 0.476563 0.215410 -0.222996
C34   C     C_R   0.659623 0.470740 0.132671 0.305557
C35   C     C_R   0.540595 0.495962 0.095029 -0.008651
C36   C     C_2   0.450315 0.395932 0.982204 -0.080171
C37   C     C_2   0.540297 0.474660 0.009883 -0.098929
H1    H     H_    0.671064 0.379263 0.730634 0.186000
H2    H     H_    0.883339 0.691145 0.467990 0.174340
H3    H     H_    0.899424 0.586414 0.386884 0.206370
H4    H     H_    0.136989 0.594119 0.387520 0.191739
H5    H     H_    0.114541 0.693924 0.471022 0.252815
H6    H     H_    0.857782 0.615549 0.602645 0.184337
H7    H     H_    0.890732 0.305414 0.517714 0.150128
H8    H     H_    0.745468 0.454723 0.244226 0.223272
H9    H     H_    0.133882 0.374173 0.405902 0.218514
H10   H     H_    0.125457 0.306512 0.501537 0.243786
H11   H     H_    0.848708 0.455731 0.624261 0.202217
H12   H     H_    0.564867 0.921688 0.372485 0.183256
H13   H     H_    0.616933 0.521929 0.969444 0.201056
H14   H     H_    0.256980 0.518825 0.759459 0.227775
H15   H     H_    0.372055 0.350135 0.022263 0.213676
H16   H     H_    0.330063 0.785083 0.261875 0.359660
H17   H     H_    0.652101 0.172448 0.261628 0.382817
H18   H     H_    0.246076 0.205946 0.731589 0.393851
H19   H     H_    0.520158 0.750888 0.717053 0.347554
H20   H     H_    0.975350 0.589286 0.730474 0.334549
H21   H     H_    0.298688 0.913457 0.550897 0.243340
H22   H     H_    0.686058 0.904887 0.564283 0.248418
H23   H     H_    0.730014 0.888523 0.459501 0.203272
H24   H     H_    0.714040 0.097088 0.437997 0.274809
H25   H     H_    0.320185 0.563200 0.256483 0.176960
H26   H     H_    0.709540 0.112622 0.542767 0.210665
H27   H     H_    0.511896 0.071976 0.622348 0.162083
N1    N     N_3   0.861190 0.500250 0.501720 -0.085616
N2    N     N_3   0.138550 0.503270 0.501080 -0.107468
O1    O     O_R   0.383960 0.685090 0.500020 -0.577642
O2    O     O_R   0.408325 0.823217 0.288592 -0.787603
O3    O     O_2   0.422208 0.217416 0.313530 -0.571092
O4    O     O_R   0.626871 0.120206 0.311122 -0.787855
O5    O     O_2   0.195762 0.117577 0.605837 -0.530586
O6    O     O_R   0.334013 0.188267 0.696711 -0.790888
O7    O     O_2   0.319603 0.871153 0.700362 -0.520727
O8    O     O_R   0.527730 0.788019 0.661374 -0.818786
O9    O     O_2   0.180747 0.709319 0.600436 -0.570619
O10   O     O_R   0.044768 0.654000 0.709345 -0.718445
O11   O     O_R   0.616040 0.685320 0.499960 -0.619363
O12   O     O_R   0.370240 0.499890 0.615830 -0.582384
O13   O     O_R   0.602330 0.500120 0.615770 -0.630704
O14   O     O_R   0.383960 0.314680 0.500040 -0.588908
O15   O     O_R   0.616040 0.314910 0.499980 -0.613710
O16   O     O_R   0.397670 0.499880 0.384230 -0.623441
O17   O     O_R   0.629760 0.500110 0.384170 -0.601217
O18   O     O_2   0.252716 0.836461 0.396960 -0.599708
Zn1   Zn    Zn3+2 0.345040 0.499850 0.500040 1.020517
Zn2   Zn    Zn3+2 0.654960 0.500150 0.499960 0.970035

loop_
_geom_bond_atom_site_label_1
_geom_bond_atom_site_label_2
_ccdc_geom_bond_type
C11   H26   S    
C31   O10   S    
C34   C35   A    
C7    C11   S    
Br2   C5    S    
C14   H5    S    
Br4   C18   S    
C6    H21   S    
C2    C20   S    
H19   O8    S    
C21   C22   A    
C17   C19   S    
C3    C8    S    
C4    O13   A    
C11   H24   S    
C14   N2    S    
C2    C32   A    
C19   N2    S    
C20   O17   A    
O1    Zn1   S    
C27   O18   D    
C5    C9    S    
H17   O4    S    
C9    C10   S    
C15   C18   S    
Br5   C26   S    
C7    H23   S    
C10   C29   S    
C3    H12   S    
C6    C30   S    
C36   H15   S    
C27   O2    S    
C15   H6    S    
C14   H4    S    
C17   H7    S    
C16   O14   A    
O14   Zn1   S    
C31   O9    D    
C30   O8    S    
Br3   C17   S    
C35   C37   S    
C19   H10   S    
C15   N1    S    
O12   Zn1   S    
C12   H14   S    
C7    H22   S    
C30   O7    D    
C28   O3    D    
Br7   C24   S    
H18   O6    S    
C12   C26   A    
C33   H8    S    
C28   O4    S    
C2    C33   A    
C22   H1    S    
C5    C28   S    
C36   C37   D    
H20   O10   S    
O13   Zn2   S    
C18   C31   S    
C24   C25   A    
C37   H13   S    
C1    O1    A    
C32   H25   S    
C3    C27   S    
O16   Zn1   S    
C12   C21   A    
C3    C5    S    
N1    Zn2   S    
Br1   C34   S    
C33   C34   A    
Br6   C23   S    
C10   H27   S    
C9    C16   S    
C16   O15   A    
C6    C8    S    
C19   H9    S    
C17   N1    S    
O17   Zn2   S    
O15   Zn2   S    
C1    O11   A    
C23   C35   A    
N2    Zn1   S    
C29   O6    S    
C15   H11   S    
C1    C8    S    
H16   O2    S    
C6    C10   S    
C25   C26   A    
C22   C24   A    
C29   O5    D    
C4    C21   S    
C4    O12   A    
C25   C36   S    
C23   C32   A    
C20   O16   A    
C18   N2    S    
O11   Zn2   S    
C13   H3    S    
C13   C14   S    
C9    C11   S    
C7    C8    S    
C13   N1    S    
C13   H2    S    
