data_mof_unit_23483.cif
_audit_creation_date              2013-03-05T15:52:32-0500
_audit_creation_method            fapswitch 2.2
_symmetry_space_group_name_H-M    P1
_symmetry_Int_Tables_number       1
_space_group_crystal_system       triclinic
_cell_length_a                    7.009034
_cell_length_b                    20.429055
_cell_length_c                    24.439081
_cell_angle_alpha                 89.829471
_cell_angle_beta                  90.906459
_cell_angle_gamma                 88.120993
_cell_volume                      3497.04098162

loop_
_atom_site_label
_atom_site_type_symbol
_atom_site_description
_atom_site_fract_x
_atom_site_fract_y
_atom_site_fract_z
_atom_type_partial_charge
O1    O     O_R   0.507310 0.423620 0.460450 -0.596017
O2    O     O_R   0.170760 0.556060 0.437190 -0.554123
O3    O     O_R   0.004040 0.576380 0.539550 -0.580500
C1    C     C_R   0.336770 0.576086 0.421200 1.013268
O4    O     O_R   0.177350 0.422870 0.454070 -0.574949
O5    O     O_R   0.010680 0.442240 0.556560 -0.594992
C2    C     C_R   0.348350 0.399270 0.443144 1.053298
O6    O     O_R   0.500670 0.557760 0.443440 -0.576660
O7    O     O_3   0.340380 0.506510 0.533610 -0.285773
V1    V     V_3+5 0.064130 0.498790 0.493770 1.282974
O8    O     O_R   0.681170 0.443940 0.562810 -0.577063
C3    C     C_R   0.853065 0.424146 0.578500 0.940768
O9    O     O_R   0.674570 0.577130 0.545930 -0.596217
C4    C     C_R   0.841627 0.600662 0.557007 1.020907
V2    V     V_3+5 0.564560 0.501210 0.506230 1.258326
O10   O     O_3   0.838170 0.493490 0.466390 -0.256174
C5    C     C_R   0.981082 0.837960 0.911266 -0.103481
C6    C     C_R   0.843441 0.662452 0.588406 -0.274833
C7    C     C_R   0.058434 0.722053 0.904984 -0.154633
C8    C     C_R   0.047272 0.779419 0.935511 -0.150390
C9    C     C_R   0.926665 0.838850 0.855611 -0.239706
C10   C     C_R   0.940670 0.781080 0.823037 0.113165
C11   C     C_R   0.007336 0.722387 0.849203 0.161036
C12   C     C_R   0.894448 0.779584 0.765529 0.057838
C13   C     C_R   0.916089 0.719465 0.735422 0.062807
C14   C     C_R   0.981409 0.662732 0.764012 -0.177605
C15   C     C_R   0.025424 0.664344 0.819578 -0.207066
C16   C     C_R   0.828783 0.836293 0.737029 -0.197219
C17   C     C_R   0.787817 0.834965 0.681358 -0.164692
C18   C     C_R   0.809070 0.777216 0.651501 0.108910
C19   C     C_R   0.872610 0.718306 0.677683 0.129676
C20   C     C_R   0.766414 0.778577 0.595284 -0.237539
C21   C     C_R   0.784316 0.722092 0.563324 0.328032
C22   C     C_R   0.888146 0.660893 0.644824 -0.268428
H1    H     H_    0.076174 0.619466 0.839558 0.153023
H2    H     H_    0.930311 0.613806 0.661826 0.130934
H3    H     H_    0.738482 0.880008 0.661369 0.155432
H4    H     H_    0.110148 0.677298 0.924930 0.135676
H5    H     H_    0.091310 0.778234 0.978217 0.127505
H6    H     H_    0.879193 0.885585 0.838996 0.103396
H7    H     H_    0.001678 0.615888 0.744536 0.150254
H8    H     H_    0.807450 0.883065 0.756521 0.134952
H9    H     H_    0.720555 0.824375 0.575910 0.187577
C23   C     C_3   0.736006 0.255902 0.795657 0.065327
C24   C     C_3   0.105384 0.249132 0.791198 -0.401442
C25   C     C_3   0.105634 0.296875 0.740424 -0.398465
H10   H     H_    0.825726 0.353454 0.782259 0.134969
H11   H     H_    0.232252 0.215046 0.788837 0.193415
H12   H     H_    0.121434 0.274869 0.830696 0.257887
H13   H     H_    0.213176 0.277148 0.711641 0.224245
C26   C     C_1   0.872887 0.379490 0.624443 -0.136291
C27   C     C_3   0.919416 0.208956 0.792786 0.121617
C28   C     C_3   0.761609 0.315071 0.756333 0.119784
C29   C     C_3   0.906863 0.295777 0.710522 -0.134455
C30   C     C_3   0.883395 0.223223 0.689588 0.262476
C31   C     C_3   0.906826 0.172609 0.737583 -0.565643
C32   C     C_1   0.891853 0.342000 0.662910 0.204053
C33   C     C_1   0.934434 0.160871 0.838775 0.081784
C34   C     C_1   0.952319 0.121980 0.876335 -0.235362
H14   H     H_    0.788834 0.137606 0.738236 0.215663
H15   H     H_    0.039457 0.142060 0.731708 0.194130
H16   H     H_    0.609999 0.228613 0.781171 0.129005
H17   H     H_    0.002963 0.212162 0.661135 0.116922
C35   C     C_3   0.624107 0.701122 0.275282 -0.000144
C36   C     C_3   0.281830 0.690194 0.237998 -0.327239
C37   C     C_3   0.308109 0.742155 0.192857 -0.451105
H18   H     H_    0.128897 0.690081 0.247834 0.238959
H19   H     H_    0.315326 0.641098 0.221034 0.246235
H20   H     H_    0.335942 0.718917 0.152782 0.238671
H21   H     H_    0.170624 0.769296 0.185966 0.233639
C38   C     C_1   0.483988 0.877787 0.124342 -0.168558
C39   C     C_3   0.402754 0.705332 0.290369 0.079570
C40   C     C_3   0.658269 0.754096 0.225173 -0.391681
C41   C     C_3   0.460701 0.792089 0.209637 0.022830
C42   C     C_3   0.374019 0.827876 0.260975 0.168083
C43   C     C_3   0.341698 0.776772 0.307470 -0.400910
C44   C     C_1   0.476353 0.839334 0.162496 0.112881
C45   C     C_1   0.360305 0.658820 0.336391 0.217912
C46   C     C_1   0.342309 0.621085 0.374711 -0.098986
H22   H     H_    0.406291 0.790947 0.346825 0.267983
H23   H     H_    0.187449 0.777983 0.316621 0.215308
H24   H     H_    0.230358 0.848128 0.248585 0.109414
C47   C     C_R   0.460726 0.163564 0.086772 -0.191499
C48   C     C_R   0.368464 0.338760 0.410367 -0.306219
C49   C     C_R   0.400191 0.281941 0.088119 -0.140647
C50   C     C_R   0.420191 0.222726 0.058453 -0.178527
C51   C     C_R   0.468709 0.162919 0.144127 -0.201715
C52   C     C_R   0.446021 0.221206 0.175234 0.151917
C53   C     C_R   0.416591 0.281243 0.146278 0.078135
C54   C     C_R   0.452190 0.221842 0.234234 0.014895
C55   C     C_R   0.417892 0.281571 0.263255 0.102642
C56   C     C_R   0.416503 0.340073 0.232745 -0.073439
C57   C     C_R   0.412795 0.339969 0.176006 -0.164290
C58   C     C_R   0.506167 0.165784 0.264920 -0.266136
C59   C     C_R   0.523134 0.166995 0.321840 0.370940
C60   C     C_R   0.460185 0.223125 0.351420 -0.181644
C61   C     C_R   0.404292 0.281563 0.322074 -0.060442
C62   C     C_R   0.454412 0.222854 0.409660 0.404446
C63   C     C_R   0.424803 0.281482 0.437768 -0.279226
C64   C     C_R   0.340084 0.337823 0.352992 0.293640
H25   H     H_    0.410470 0.387126 0.155745 0.163646
H26   H     H_    0.433706 0.281611 0.482112 0.187533
H27   H     H_    0.486515 0.115427 0.163165 0.123234
H28   H     H_    0.427506 0.387224 0.251943 0.175077
H29   H     H_    0.555183 0.121286 0.245432 0.178209
O11   O     O_R   0.323590 0.942280 0.056590 -0.588227
O12   O     O_R   0.647030 0.077140 0.045940 -0.567083
O13   O     O_R   0.813570 0.057750 0.943430 -0.566165
C65   C     C_R   0.476274 0.100803 0.056792 0.983465
O14   O     O_R   0.653510 0.943950 0.062820 -0.575223
O15   O     O_R   0.820100 0.923600 0.960440 -0.593044
C66   C     C_R   0.487597 0.923673 0.078557 0.949381
O16   O     O_R   0.317060 0.076430 0.039590 -0.595306
O17   O     O_3   0.483830 0.993520 0.966410 -0.275918
V3    V     V_3+5 0.760140 0.001200 0.006230 1.230707
O18   O     O_R   0.149560 0.922820 0.954030 -0.596469
C67   C     C_R   0.982762 0.898827 0.943592 0.915499
O19   O     O_R   0.143080 0.056020 0.937150 -0.590176
C68   C     C_R   0.971313 0.076118 0.921604 0.982180
V4    V     V_3+5 0.259690 0.998730 0.993720 1.202492
O20   O     O_3   0.986120 0.006480 0.033580 -0.266108
N1    N     N_R   0.697360 0.278578 0.851435 0.260491
O21   O     O_R   0.528576 0.271865 0.871609 -0.348588
O22   O     O_R   0.824751 0.309415 0.879766 -0.335593
C69   C     C_2   0.160372 0.366325 0.756125 1.179079
O23   O     O_2   0.170787 0.408261 0.720560 -0.607014
O24   O     O_R   0.196418 0.383121 0.810727 -0.743888
H30   H     H_    0.227464 0.430937 0.815297 0.349805
N2    N     N_R   0.705549 0.214976 0.657967 0.277268
O25   O     O_R   0.554219 0.191717 0.680253 -0.386830
O26   O     O_R   0.703340 0.225950 0.605471 -0.332214
N3    N     N_R   0.584245 0.345869 0.735209 0.231719
O27   O     O_R   0.504227 0.324131 0.690862 -0.384422
O28   O     O_R   0.547362 0.406432 0.749012 -0.377470
C70   C     C_2   0.728811 0.718288 0.172560 1.007821
O29   O     O_2   0.869018 0.736084 0.148191 -0.638503
O30   O     O_R   0.632058 0.664696 0.151618 -0.805798
H31   H     H_    0.692105 0.645915 0.117352 0.343868
C71   C     C_2   0.683008 0.629632 0.259542 1.050829
O31   O     O_2   0.845522 0.617128 0.244233 -0.607406
O32   O     O_R   0.559230 0.577730 0.265384 -0.803406
H32   H     H_    0.619082 0.533932 0.254458 0.355856
N4    N     N_R   0.743140 0.726255 0.505523 0.240592
O33   O     O_R   0.841232 0.690741 0.471168 -0.346249
O34   O     O_R   0.622332 0.770760 0.486511 -0.318544
N5    N     N_R   0.480864 0.885166 0.279234 0.265223
O35   O     O_R   0.526524 0.893473 0.330536 -0.253266
O36   O     O_R   0.497411 0.934517 0.246065 -0.363188
N6    N     N_R   0.743870 0.713860 0.324794 0.265239
O37   O     O_R   0.670736 0.729585 0.371663 -0.290559
O38   O     O_R   0.925862 0.699571 0.324729 -0.403850
C72   C     C_2   0.802154 0.808113 0.239832 1.056228
O39   O     O_2   0.864385 0.842414 0.203454 -0.625397
O40   O     O_R   0.846784 0.824565 0.293889 -0.695853
H33   H     H_    0.930279 0.864032 0.296916 0.351455
N7    N     N_R   0.226370 0.389967 0.328084 0.220262
O41   O     O_R   0.268277 0.450860 0.335873 -0.429504
O42   O     O_R   0.075492 0.376538 0.299046 -0.371549
N8    N     N_R   0.623620 0.112775 0.348072 0.260038
O43   O     O_R   0.774973 0.123208 0.377914 -0.312003
O44   O     O_R   0.587639 0.053060 0.333779 -0.256845
C73   C     C_2   0.362381 0.344504 0.057965 1.067631
O45   O     O_2   0.468728 0.360582 0.021434 -0.569053
O46   O     O_R   0.203594 0.384340 0.070960 -0.764641
H34   H     H_    0.192647 0.425359 0.047520 0.344812
C74   C     C_2   0.388151 0.221879 0.998043 1.077844
O47   O     O_2   0.499777 0.191671 0.968709 -0.597518
O48   O     O_R   0.227690 0.254584 0.975012 -0.746182
H35   H     H_    0.217890 0.248819 0.933897 0.359534
N9    N     N_R   0.464094 0.163295 0.441113 0.262503
O49   O     O_R   0.558295 0.160827 0.487436 -0.283052
O50   O     O_R   0.349355 0.116435 0.429117 -0.284415

loop_
_geom_bond_atom_site_label_1
_geom_bond_atom_site_label_2
_geom_bond_distance
_ccdc_geom_bond_type
C13   C19   1.439323 A    
C47   C51   1.401943 A    
C30   C31   1.564453 S    
C58   H29   1.076321 S    
V3    O20   1.716184 S    
C40   C41   1.604768 S    
C4    C6    1.479525 S    
C25   C69   1.530270 S    
O2    C1    1.310962 A    
C59   C60   1.419145 A    
C50   C74   1.490072 S    
C1    O6    1.306183 A    
C3    C26   1.446668 S    
O19   V4    1.959860 S    
O17   V3    2.164151 S    
C70   O29   1.221984 D    
O11   C66   1.305649 A    
C24   C25   1.576077 S    
C21   N4    1.439017 S    
C14   C15   1.388539 A    
C73   O45   1.223093 D    
C59   N8    1.436756 S    
O13   V3    1.966321 S    
C9    C10   1.427113 A    
C16   C17   1.386596 A    
N2    O25   1.302792 A    
N6    O38   1.299226 A    
O5    C3    1.299585 A    
C18   C19   1.416819 A    
C37   H20   1.106983 S    
C36   H18   1.102312 S    
N9    O49   1.301510 A    
V2    O10   2.165817 S    
C37   C41   1.553321 S    
C5    C8    1.395445 A    
O18   C67   1.304218 A    
C70   O30   1.400531 S    
C16   H8    1.076039 S    
O19   C68   1.309400 A    
C39   C45   1.509690 S    
O8    V2    1.959793 S    
C23   C28   1.558746 S    
C40   C70   1.560421 S    
N3    O27   1.298600 A    
C30   N2    1.470882 S    
C41   C44   1.508372 S    
C60   C62   1.424536 A    
C35   C40   1.657295 S    
C47   C65   1.480396 S    
O1    V2    1.990815 S    
C11   C15   1.394441 A    
O7    V1    2.164072 S    
N5    O36   1.301081 A    
C65   O16   1.301078 A    
H10   C28   1.111456 S    
C52   C53   1.421706 A    
C64   N7    1.437253 S    
C2    C48   1.479071 S    
O9    C4    1.305019 A    
C38   C66   1.458636 S    
C74   O48   1.398778 S    
C49   C73   1.487571 S    
O12   C65   1.307401 A    
O13   C68   1.300921 A    
O46   H34   1.013777 S    
C54   C58   1.405181 A    
C73   O46   1.398266 S    
C42   N5    1.476395 S    
C41   C42   1.574255 S    
C48   C64   1.413373 A    
C43   H22   1.100167 S    
C12   C13   1.438568 A    
C1    C46   1.461141 S    
C57   H25   1.081384 S    
C55   C56   1.406472 A    
O4    C2    1.308916 A    
C8    H5    1.083673 S    
C49   C53   1.424158 A    
C45   C46   1.221922 T    
C24   C27   1.563880 S    
C23   H16   1.113428 S    
C13   C14   1.411153 A    
C49   C50   1.416321 A    
C53   C57   1.404138 A    
C5    C9    1.406713 A    
O18   V4    2.001337 S    
C30   H17   1.115290 S    
C7    C11   1.403955 A    
C42   C43   1.564946 S    
C17   C18   1.394087 A    
C7    H4    1.083965 S    
O16   V4    1.994044 S    
N8    O43   1.301529 A    
C24   H12   1.106511 S    
C71   O31   1.223798 D    
C36   H19   1.105936 S    
C60   C61   1.431241 A    
C25   C29   1.563791 S    
N8    O44   1.301450 A    
C47   C50   1.409529 A    
C19   C22   1.425637 A    
C39   C43   1.567200 S    
C31   H15   1.113999 S    
C28   N3    1.460902 S    
C55   C61   1.442148 A    
C6    C22   1.409146 A    
O12   V3    1.982366 S    
O40   H33   1.013875 S    
O3    C4    1.305192 A    
C27   C33   1.490681 S    
C26   C32   1.213737 T    
O48   H35   1.013538 S    
C72   O40   1.397353 S    
C62   C63   1.393765 A    
O6    V2    1.955434 S    
O9    V2    2.001280 S    
C40   C72   1.557894 S    
C74   O47   1.222956 D    
C51   H27   1.077459 S    
N1    O22   1.301321 A    
O24   H30   1.013829 S    
O2    V1    1.979860 S    
C38   C44   1.220406 T    
C61   C64   1.440989 A    
V4    O20   2.165823 S    
N5    O35   1.302027 A    
C24   H11   1.113644 S    
N4    O34   1.301563 A    
C29   C30   1.582263 S    
N7    O41   1.301400 A    
C34   C68   1.449316 S    
O11   V4    1.955790 S    
O1    C2    1.300146 A    
C48   C63   1.389339 A    
C12   C16   1.410376 A    
C52   C54   1.441973 A    
C43   H23   1.106977 S    
O5    V1    1.966159 S    
O8    C3    1.309450 A    
C42   H24   1.113114 S    
C28   C29   1.567701 S    
C5    C67   1.475455 S    
C36   C39   1.561202 S    
O30   H31   1.013960 S    
C25   H13   1.106316 S    
C35   N6    1.490156 S    
O15   C67   1.305277 A    
C15   H1    1.084410 S    
C20   C21   1.398689 A    
C7    C8    1.391825 A    
N7    O42   1.301397 A    
N4    O33   1.301219 A    
C33   C34   1.214523 T    
O4    V1    1.982226 S    
O3    V1    1.980741 S    
V1    O10   1.716370 S    
O32   H32   1.014018 S    
C18   C20   1.401427 A    
C71   O32   1.400233 S    
C23   C27   1.581048 S    
C54   C55   1.428653 A    
C69   O23   1.223286 D    
C9    H6    1.076906 S    
N9    O50   1.301483 A    
C23   N1    1.467442 S    
C56   C57   1.386483 A    
C20   H9    1.084295 S    
C10   C12   1.437946 A    
C35   C39   1.599981 S    
O7    V2    1.717835 S    
C58   C59   1.394650 A    
C6    C21   1.409390 A    
O14   C66   1.310199 A    
C56   H28   1.077188 S    
C62   N9    1.436415 S    
C31   H14   1.111148 S    
C63   H26   1.084561 S    
C37   H21   1.106189 S    
C22   H2    1.077230 S    
C51   C52   1.420547 A    
N3    O28   1.302177 A    
C36   C37   1.545988 S    
C17   H3    1.084475 S    
C69   O24   1.399988 S    
C10   C11   1.419224 A    
O15   V3    1.980868 S    
C72   O39   1.224860 D    
N1    O21   1.300046 A    
N6    O37   1.299212 A    
O14   V3    1.979787 S    
C29   C32   1.496591 S    
O17   V4    1.716823 S    
C27   C31   1.544590 S    
C14   H7    1.076322 S    
N2    O26   1.301484 A    
C35   C71   1.555705 S    
