data_mof_unit_48163.cif
_audit_creation_date              2012-12-11T14:43:37-0500
_audit_creation_method            fapswitch 2.2
_symmetry_space_group_name_H-M    P1
_symmetry_Int_Tables_number       1
_space_group_crystal_system       triclinic
_cell_length_a                    20.778956
_cell_length_b                    7.088125
_cell_length_c                    16.790977
_cell_angle_alpha                 89.946852
_cell_angle_beta                  93.286053
_cell_angle_gamma                 90.163758
_cell_volume                      2468.96254783

loop_
_atom_site_label
_atom_site_type_symbol
_atom_type_description
_atom_site_fract_x
_atom_site_fract_y
_atom_site_fract_z
_atom_type_partial_charge
O1    O     O_R   0.564840 0.505290 0.579830 -0.547552
O2    O     O_R   0.435160 0.005290 0.420170 -0.547461
O3    O     O_R   0.556720 0.179930 0.409350 -0.547873
O4    O     O_R   0.443280 0.679930 0.590650 -0.548543
C1    C     C_R   0.571788 0.345692 0.383589 0.699080
C2    C     C_R   0.427860 0.845311 0.616006 0.697771
O5    O     O_R   0.572280 0.175810 0.578530 -0.509852
O6    O     O_R   0.427720 0.675810 0.421470 -0.509858
O7    O     O_R   0.450830 0.001920 0.590540 -0.529965
O8    O     O_R   0.549170 0.501920 0.409460 -0.530170
C3    C     C_R   0.590875 0.343832 0.603299 0.757370
C4    C     C_R   0.409029 0.843593 0.396809 0.757454
O9    O     O_3   0.460130 0.338030 0.503750 -0.373562
O10   O     O_3   0.539870 0.838030 0.496250 -0.373527
V1    V     V_3+5 0.507400 0.064560 0.499310 1.551303
V2    V     V_3+5 0.492600 0.564560 0.500690 1.551324
C5    C     C_R   0.137456 0.918701 0.176555 -0.289026
C6    C     C_R   0.862398 0.419108 0.823811 -0.297287
C7    C     C_R   0.352837 0.845959 0.337761 -0.236131
C8    C     C_R   0.646799 0.346881 0.662729 -0.234057
C9    C     C_R   0.299201 0.700627 0.220016 0.408428
C10   C     C_R   0.699559 0.203857 0.781505 0.404813
C11   C     C_R   0.355403 0.732444 0.269827 0.255011
C12   C     C_R   0.643666 0.234222 0.730984 0.255401
C13   C     C_R   0.296377 0.951872 0.349878 0.405623
C14   C     C_R   0.703480 0.452971 0.650759 0.406952
C15   C     C_R   0.244610 0.952612 0.290023 -0.223109
C16   C     C_R   0.755080 0.454082 0.710808 -0.227927
C17   C     C_R   0.242950 0.808570 0.230669 -0.170210
C18   C     C_R   0.756203 0.310852 0.770558 -0.168713
C19   C     C_R   0.185796 0.780255 0.180897 0.493814
C20   C     C_R   0.813289 0.282160 0.820322 0.494704
C21   C     C_R   0.139623 0.064320 0.234086 0.181273
C22   C     C_R   0.860728 0.564404 0.765948 0.196006
C23   C     C_R   0.193130 0.086407 0.289026 0.507918
C24   C     C_R   0.806959 0.587385 0.711523 0.511771
C25   C     C_R   0.390022 0.966987 0.825139 0.393056
C26   C     C_R   0.611623 0.486889 0.177372 0.394433
C27   C     C_R   0.391391 0.859319 0.688033 -0.176057
C28   C     C_R   0.608576 0.361443 0.311728 -0.178693
C29   C     C_R   0.080735 0.906601 0.738369 0.179576
C30   C     C_R   0.919439 0.384478 0.261100 0.159666
C31   C     C_R   0.113241 0.908158 0.667503 0.471360
C32   C     C_R   0.886893 0.363172 0.331134 0.456371
C33   C     C_R   0.180206 0.931952 0.669058 0.246718
C34   C     C_R   0.820851 0.399610 0.331667 0.253530
C35   C     C_R   0.217666 0.927684 0.742511 -0.119965
C36   C     C_R   0.783199 0.419705 0.258697 -0.118034
C37   C     C_R   0.185083 0.930756 0.816141 -0.182246
C38   C     C_R   0.815708 0.432305 0.185083 -0.183254
C39   C     C_R   0.287368 0.923669 0.745463 0.012814
C40   C     C_R   0.713510 0.424137 0.255922 0.013733
C41   C     C_R   0.321963 0.983625 0.816049 -0.142228
C42   C     C_R   0.679848 0.497319 0.186915 -0.140302
C43   C     C_R   0.286817 0.042836 0.879859 0.359590
C44   C     C_R   0.715818 0.561828 0.124419 0.357497
C45   C     C_R   0.225090 0.969644 0.886295 0.412338
C46   C     C_R   0.776437 0.484034 0.116090 0.412889
C47   C     C_R   0.323671 0.860038 0.681692 -0.236766
C48   C     C_R   0.676189 0.354904 0.317990 -0.238530
C49   C     C_R   0.424630 0.901942 0.761168 0.286077
C50   C     C_R   0.576163 0.415117 0.239515 0.287156
C51   C     C_R   0.115189 0.912928 0.813965 -0.225311
C52   C     C_R   0.885237 0.409420 0.186369 -0.214476
H1    H     H_    0.300481 0.808678 0.626679 0.186347
H2    H     H_    0.698243 0.293093 0.371565 0.187403
O11   O     O_R   0.950790 0.256670 0.090520 -0.528927
O12   O     O_R   0.049210 0.756670 0.909480 -0.528456
O13   O     O_R   0.927720 0.590370 0.921470 -0.519881
O14   O     O_R   0.072280 0.090370 0.078530 -0.518592
C53   C     C_R   0.913199 0.422165 0.891202 0.855109
C54   C     C_R   0.086675 0.922147 0.108995 0.856392
O15   O     O_R   0.943270 0.586180 0.090640 -0.556301
O16   O     O_R   0.056730 0.086180 0.909360 -0.557187
O17   O     O_R   0.064850 0.759970 0.079840 -0.508637
O18   O     O_R   0.935150 0.259970 0.920160 -0.509873
C55   C     C_R   0.925766 0.417407 0.114643 0.821808
C56   C     C_R   0.074651 0.917847 0.885776 0.818795
O19   O     O_3   0.039850 0.428050 0.996240 -0.367915
O20   O     O_3   0.960150 0.928050 0.003760 -0.369730
V3    V     V_3+5 0.992610 0.701540 0.000700 1.656020
V4    V     V_3+5 0.007390 0.201540 0.999300 1.656476
O21   O     O_3   0.175702 0.618041 0.136646 -0.545141
H3    H     H_    0.190024 0.509922 0.170596 0.348572
O22   O     O_3   0.822695 0.120539 0.865178 -0.546308
H4    H     H_    0.807877 0.012158 0.831612 0.344988
O23   O     O_3   0.014184 0.913191 0.730657 -0.560668
H5    H     H_    0.996802 0.979134 0.776551 0.313572
O24   O     O_3   0.985844 0.393692 0.269321 -0.590627
H6    H     H_    0.002524 0.474860 0.227160 0.315299
O25   O     O_3   0.206250 0.984711 0.598592 -0.570395
H7    H     H_    0.239069 0.083831 0.611051 0.322538
O26   O     O_3   0.796674 0.439168 0.404577 -0.575713
H8    H     H_    0.766365 0.546401 0.397025 0.324060
S1    S     S_3+6 0.067809 0.915775 0.574664 0.206385
O27   O     O_2   0.052315 0.118926 0.556877 -0.257529
O28   O     O_2   0.105824 0.836360 0.508980 -0.249937
O29   O     O_3   0.998786 0.792406 0.579234 -0.395642
H9    H     H_    0.969561 0.844515 0.536045 0.430256
S2    S     S_3+6 0.931865 0.308161 0.421132 0.193958
O30   O     O_2   0.964271 0.484206 0.453457 -0.252031
O31   O     O_2   0.889177 0.229884 0.482575 -0.244937
O32   O     O_3   0.987970 0.145768 0.402129 -0.442093
H10   H     H_    0.029151 0.216027 0.400445 0.433209
S3    S     S_3+6 0.210894 0.902053 0.983679 0.039375
O33   O     O_2   0.163757 0.742353 0.984974 -0.316118
O34   O     O_2   0.273005 0.836156 0.024976 -0.274456
O35   O     O_3   0.186411 0.097153 0.029539 -0.515592
H11   H     H_    0.224287 0.142680 0.062647 0.371031
S4    S     S_3+6 0.788624 0.418551 0.017759 0.040682
O36   O     O_2   0.834168 0.255950 0.014746 -0.318462
O37   O     O_2   0.725359 0.357684 0.977556 -0.276415
O38   O     O_3   0.814486 0.612362 0.971651 -0.511218
H12   H     H_    0.777251 0.657619 0.937457 0.371162
O39   O     O_3   0.088066 0.183721 0.239914 -0.567486
H13   H     H_    0.048090 0.114557 0.222968 0.308842
O40   O     O_3   0.912797 0.682912 0.759316 -0.552192
H14   H     H_    0.952627 0.614769 0.777189 0.309538
O41   O     O_3   0.300025 0.573257 0.157841 -0.589224
H15   H     H_    0.329737 0.468880 0.173650 0.315185
O42   O     O_3   0.698114 0.078940 0.844600 -0.589501
H16   H     H_    0.668559 0.973537 0.829116 0.315494
S5    S     S_3+6 0.196136 0.294175 0.349928 0.105107
O43   O     O_2   0.177918 0.242622 0.432555 -0.228016
O44   O     O_2   0.263207 0.375247 0.353768 -0.340701
O45   O     O_3   0.145171 0.462132 0.314198 -0.475756
H17   H     H_    0.153018 0.571707 0.350070 0.379499
S6    S     S_3+6 0.804044 0.796236 0.651196 0.119007
O46   O     O_2   0.822612 0.746807 0.568551 -0.233956
O47   O     O_2   0.736951 0.876070 0.647207 -0.342165
O48   O     O_3   0.854839 0.964292 0.687872 -0.465448
H18   H     H_    0.847448 0.074158 0.652027 0.382515
O49   O     O_3   0.413922 0.654627 0.253281 -0.620199
H19   H     H_    0.415458 0.641264 0.194686 0.333605
O50   O     O_3   0.584939 0.155641 0.747007 -0.620596
H20   H     H_    0.582893 0.142442 0.805552 0.332895
O51   O     O_3   0.288356 0.041404 0.421728 -0.552768
H21   H     H_    0.319390 0.992911 0.463624 0.281327
O52   O     O_3   0.711963 0.542066 0.578814 -0.556452
H22   H     H_    0.680828 0.493905 0.536890 0.280246
O53   O     O_3   0.490678 0.879899 0.772448 -0.635065
H23   H     H_    0.507117 0.800844 0.729554 0.309516
O54   O     O_3   0.510070 0.396346 0.227261 -0.634307
H24   H     H_    0.493023 0.311910 0.268117 0.309228
O55   O     O_3   0.313865 0.150146 0.941822 -0.571541
H25   H     H_    0.343382 0.242821 0.918633 0.334647
O56   O     O_3   0.690094 0.677552 0.064574 -0.569643
H26   H     H_    0.661776 0.770073 0.089595 0.334581
O57   O     O_3   0.420836 0.000607 0.899215 -0.603197
H27   H     H_    0.468141 0.990516 0.896622 0.351661
O58   O     O_3   0.581311 0.532845 0.104258 -0.602491
H28   H     H_    0.533896 0.527989 0.106909 0.351022

loop_
_geom_bond_atom_site_label_1
_geom_bond_atom_site_label_2
_ccdc_geom_bond_type
C45   S3    S    
O23   H5    S    
O26   H8    S    
C28   C48   A    
C15   C17   A    
C38   C52   A    
C52   C55   S    
S5    O44   D    
C13   O51   S    
S1    O27   D    
O1    C3    A    
C50   O54   S    
O2    C4    A    
S6    O46   D    
C2    O7    A    
O55   H25   S    
S1    O29   S    
C37   C45   A    
S5    O43   D    
C35   C37   A    
O22   H4    S    
O5    C3    A    
S3    O34   D    
O45   H17   S    
C5    C21   A    
C37   C51   A    
O12   V3    S    
C53   O18   A    
C43   O55   S    
O39   H13   S    
C28   C50   A    
O35   H11   S    
C33   C35   A    
O13   C53   A    
S4    O36   D    
C40   C48   A    
O56   H26   S    
O57   H27   S    
C8    C12   A    
C32   C34   A    
O11   C55   A    
C33   O25   S    
C31   S1    S    
O58   H28   S    
C25   C41   A    
C22   O40   S    
C36   C38   A    
C48   H2    S    
O6    V2    S    
C29   C31   A    
C24   S6    S    
C30   C32   A    
O16   V4    S    
C54   O17   A    
C27   C49   A    
O15   V3    S    
C40   C42   A    
C34   C36   A    
C41   C43   A    
O12   C56   A    
C29   O23   S    
S3    O35   S    
C42   C44   A    
C3    C8    S    
C21   O39   S    
C11   O49   S    
C38   C46   A    
O50   H20   S    
O20   V4    S    
C14   O52   S    
O18   V4    S    
O25   H7    S    
O19   V3    S    
O17   V3    S    
S5    O45   S    
C35   C39   A    
C15   C23   A    
C9    C17   A    
S2    O32   S    
C39   C41   A    
O4    V2    S    
C7    C11   A    
C6    C22   A    
O21   H3    S    
C26   C42   A    
C36   C40   A    
O6    C4    A    
C27   C47   A    
S2    O31   D    
C23   S5    S    
C19   O21   S    
O1    V2    S    
O41   H15   S    
O2    V1    S    
C31   C33   A    
S4    O38   S    
O42   H16   S    
C5    C54   S    
C12   O50   S    
O4    C2    A    
C9    C11   A    
O49   H19   S    
C5    C19   A    
C10   C12   A    
C1    C28   S    
C6    C20   A    
C29   C51   A    
O48   H18   S    
S6    O48   S    
C30   C52   A    
C26   O58   S    
O3    V1    S    
C10   O42   S    
O38   H12   S    
S3    O33   D    
C49   O53   S    
C6    C53   S    
C10   C18   A    
C46   S4    S    
O10   V1    S    
C25   O57   S    
O20   V3    S    
O3    C1    A    
S6    O47   D    
O19   V4    S    
C25   C49   A    
O52   H22   S    
S1    O28   D    
C13   C15   A    
O51   H21   S    
C14   C16   A    
C30   O24   S    
C44   O56   S    
C43   C45   A    
O7    V1    S    
C16   C18   A    
C17   C19   A    
O8    V2    S    
O53   H23   S    
C47   H1    S    
C18   C20   A    
C32   S2    S    
C34   O26   S    
C8    C14   A    
C20   O22   S    
C4    C7    S    
O5    V1    S    
S2    O30   D    
C21   C23   A    
C44   C46   A    
C22   C24   A    
O14   V4    S    
S4    O37   D    
O13   V3    S    
C7    C13   A    
C1    O8    A    
C39   C47   A    
C16   C24   A    
O11   V4    S    
C9    O41   S    
O29   H9    S    
O16   C56   A    
O9    V2    S    
O32   H10   S    
O15   C55   A    
C2    C27   S    
O14   C54   A    
O24   H6    S    
O40   H14   S    
O54   H24   S    
C26   C50   A    
C51   C56   S    
