data_mof_unit_42266.cif
_audit_creation_date              2013-03-05T16:12:09-0500
_audit_creation_method            fapswitch 2.2
_symmetry_space_group_name_H-M    P1
_symmetry_Int_Tables_number       1
_space_group_crystal_system       triclinic
_cell_length_a                    10.79101
_cell_length_b                    9.55389
_cell_length_c                    27.758866
_cell_angle_alpha                 89.88645
_cell_angle_beta                  89.144616
_cell_angle_gamma                 90.644692
_cell_volume                      2861.3247727

loop_
_atom_site_label
_atom_site_type_symbol
_atom_site_description
_atom_site_fract_x
_atom_site_fract_y
_atom_site_fract_z
_atom_type_partial_charge
O1    O     O_R   0.317570 0.620260 0.500030 -0.552855
O2    O     O_R   0.317570 0.379740 0.500030 -0.556277
C1    C     C_R   0.259987 0.499308 0.501803 0.794354
O3    O     O_R   0.499900 0.620250 0.430280 -0.615656
O4    O     O_R   0.499900 0.379750 0.430280 -0.583754
C2    C     C_R   0.499940 0.500247 0.407629 0.812815
Cu1   Cu    Cu3+1 0.499860 0.642410 0.500020 0.951705
Cu2   Cu    Cu3+1 0.499860 0.357590 0.500020 0.956924
O5    O     O_R   0.682190 0.620260 0.500010 -0.589968
O6    O     O_R   0.682190 0.379740 0.500010 -0.580253
O7    O     O_R   0.499860 0.620280 0.569750 -0.531059
O8    O     O_R   0.499860 0.379720 0.569750 -0.542165
C3    C     C_R   0.739286 0.500154 0.501531 0.817963
C4    C     C_R   0.502479 0.499353 0.592117 0.802557
C5    C     C_R   0.395556 0.514054 0.178277 0.610284
O9    O     O_2   0.289320 0.511556 0.204428 -0.493806
N1    N     N_R   0.505437 0.503528 0.201761 -0.455638
C6    C     C_R   0.615248 0.490167 0.177417 0.589364
C7    C     C_R   0.504876 0.378386 0.278380 -0.134174
C8    C     C_R   0.502712 0.376087 0.328520 -0.189570
C9    C     C_R   0.500528 0.629694 0.329505 -0.305644
C10   C     C_R   0.503407 0.633651 0.279077 0.036063
C11   C     C_R   0.505228 0.505856 0.253397 0.347223
C12   C     C_R   0.506692 0.504656 0.101522 -0.057208
C13   C     C_R   0.393748 0.523791 0.127351 -0.037205
C14   C     C_R   0.283910 0.547078 0.101211 -0.009444
C15   C     C_R   0.617781 0.487619 0.127016 -0.011968
C16   C     C_R   0.500802 0.501708 0.354550 -0.024911
H1    H     H_    0.498537 0.727383 0.349239 0.130258
C17   C     C_R   0.511129 0.495703 0.644569 -0.076104
C18   C     C_R   0.403128 0.531402 0.973351 0.051532
C19   C     C_R   0.623283 0.464863 0.974100 0.042925
C20   C     C_R   0.514505 0.496995 0.948420 0.069659
C21   C     C_R   0.300104 0.572883 0.945934 -0.201582
C22   C     C_R   0.304833 0.574103 0.895929 -0.147042
C23   C     C_R   0.412160 0.534049 0.871163 -0.022603
C24   C     C_R   0.517267 0.495187 0.897220 -0.045058
C25   C     C_R   0.625154 0.454672 0.871971 -0.031397
C26   C     C_R   0.625389 0.452276 0.821388 0.596810
N2    N     N_R   0.522606 0.492338 0.796836 -0.446059
C27   C     C_R   0.417208 0.533323 0.820645 0.549508
C28   C     C_R   0.446919 0.395654 0.721032 -0.198138
C29   C     C_R   0.440700 0.397895 0.671061 -0.190022
C30   C     C_R   0.592899 0.586277 0.668173 -0.376807
C31   C     C_R   0.600748 0.584511 0.718867 0.540598
C32   C     C_R   0.524249 0.490361 0.745111 0.281483
O10   O     O_2   0.317753 0.573978 0.795450 -0.546991
C33   C     C_R   0.398841 0.525214 0.024567 0.046448
C34   C     C_R   0.509265 0.502185 0.050253 0.071644
C35   C     C_R   0.622546 0.476212 0.025122 0.047817
C36   C     C_R   0.287370 0.542562 0.050985 -0.266848
H2    H     H_    0.378793 0.325450 0.653126 0.170337
H3    H     H_    0.389848 0.321748 0.741303 0.165807
H4    H     H_    0.223356 0.606735 0.876718 0.186757
H5    H     H_    0.214768 0.609024 0.961874 0.142544
H6    H     H_    0.199838 0.554206 0.033338 0.123342
O11   O     O_2   0.721569 0.478762 0.202075 -0.517367
C37   C     C_R   0.729501 0.469924 0.101872 -0.132263
H7    H     H_    0.502321 0.275934 0.346806 0.145789
H8    H     H_    0.505917 0.280610 0.258702 0.147499
H9    H     H_    0.816175 0.459721 0.120719 0.185218
C38   C     C_R   0.729190 0.421323 0.947661 -0.200933
C39   C     C_R   0.729803 0.416299 0.897636 -0.143975
O12   O     O_2   0.727120 0.409548 0.796933 -0.542752
C40   C     C_R   0.732085 0.464202 0.051996 -0.201457
H10   H     H_    0.812685 0.386838 0.964601 0.139706
H11   H     H_    0.648715 0.658762 0.646889 0.177593
H12   H     H_    0.813300 0.382421 0.879128 0.185321
H13   H     H_    0.822482 0.453655 0.035507 0.133898
C41   C     C_3   0.068983 0.601561 0.542830 0.338873
C42   C     C_3   0.067368 0.348115 0.515258 0.338202
H14   H     H_    0.090507 0.551837 0.577980 0.066490
H15   H     H_    0.096851 0.325305 0.552715 0.069978
C43   C     C_3   0.923814 0.604706 0.541471 -0.469406
C44   C     C_3   0.923892 0.351624 0.517866 -0.464192
H16   H     H_    0.885367 0.575492 0.577622 0.124762
H17   H     H_    0.893074 0.328376 0.555507 0.108881
H18   H     H_    0.884399 0.708360 0.533634 0.199621
H19   H     H_    0.880248 0.269161 0.496083 0.225048
H20   H     H_    0.108882 0.649961 0.443888 0.186198
H21   H     H_    0.111210 0.474341 0.424567 0.181483
H22   H     H_    0.898053 0.644880 0.442642 0.230969
H23   H     H_    0.896644 0.466971 0.425268 0.196556
C45   C     C_3   0.073793 0.543532 0.453264 -0.399015
C46   C     C_3   0.121351 0.498400 0.503044 -0.025271
C47   C     C_3   0.876870 0.499208 0.503406 0.052159
C48   C     C_3   0.930862 0.540430 0.453169 -0.385849
C49   C     C_3   0.621541 0.085546 0.483518 -0.087370
C50   C     C_3   0.625297 0.919228 0.488542 -0.092067
H24   H     H_    0.697813 0.126735 0.505241 0.129419
H25   H     H_    0.688992 0.892843 0.518178 0.154515
C51   C     C_3   0.466097 0.081206 0.549500 0.438119
C52   C     C_3   0.460155 0.915471 0.549239 0.416251
C53   C     C_3   0.404531 0.081758 0.468368 -0.385557
C54   C     C_3   0.411997 0.916105 0.465467 -0.386075
N3    N     N_3   0.500250 0.143650 0.501060 -0.208461
N4    N     N_3   0.500250 0.856350 0.501060 -0.197427
H26   H     H_    0.310572 0.108924 0.481217 0.220571
H27   H     H_    0.318138 0.870362 0.471326 0.198445
H28   H     H_    0.409835 0.128605 0.431845 0.179515
H29   H     H_    0.438162 0.885850 0.428173 0.163262
H30   H     H_    0.368221 0.111953 0.556781 0.055325
H31   H     H_    0.361284 0.881557 0.554922 0.085951
O13   O     O_3   0.672059 0.680500 0.744357 -0.570568
C55   C     C_3   0.789965 0.701858 0.722673 -0.262028
H32   H     H_    0.784976 0.780577 0.693285 0.146574
H33   H     H_    0.831341 0.602610 0.709291 0.164836
H34   H     H_    0.853243 0.744972 0.750201 0.203933
O14   O     O_3   0.133962 0.732944 0.544759 -0.573966
C56   C     C_3   0.074389 0.848334 0.523757 -0.296713
H35   H     H_    0.004333 0.891550 0.549210 0.163940
H36   H     H_    0.032998 0.823665 0.488453 0.191021
H37   H     H_    0.143931 0.932892 0.517638 0.172676
O15   O     O_3   0.122166 0.238196 0.487554 -0.598620
C57   C     C_3   0.056477 0.188479 0.447329 -0.280584
H38   H     H_    0.006900 0.270557 0.427700 0.200072
H39   H     H_    0.991650 0.103039 0.458591 0.198608
H40   H     H_    0.123961 0.142383 0.421532 0.173152
C58   C     C_2   0.505179 0.773016 0.255197 0.422222
H41   H     H_    0.497101 0.867011 0.276908 0.047479
O16   O     O_2   0.516793 0.785874 0.211610 -0.519999
C59   C     C_2   0.653306 0.136810 0.432468 0.518117
H42   H     H_    0.598620 0.102645 0.402151 0.009552
O17   O     O_2   0.744338 0.210496 0.424331 -0.585071
C60   C     C_2   0.686202 0.855207 0.444376 0.379983
H43   H     H_    0.632942 0.813241 0.415123 0.098025
O18   O     O_2   0.798294 0.865762 0.438843 -0.617961
O19   O     O_3   0.525373 0.139321 0.590788 -0.565308
C61   C     C_3   0.655411 0.131094 0.593596 -0.214509
H44   H     H_    0.694951 0.033305 0.579587 0.144452
H45   H     H_    0.680036 0.135123 0.632216 0.172876
H46   H     H_    0.699361 0.224481 0.576759 0.162252
O20   O     O_3   0.531980 0.864458 0.587697 -0.570086
C62   C     C_3   0.463011 0.868125 0.631769 -0.253618
H47   H     H_    0.401812 0.774390 0.635140 0.180343
H48   H     H_    0.404372 0.962459 0.635906 0.156399
H49   H     H_    0.528481 0.869059 0.662163 0.195568
C63   C     C_2   0.163393 0.585381 0.123553 0.491659
H50   H     H_    0.078560 0.536247 0.111071 0.028255
O21   O     O_2   0.156761 0.679650 0.153084 -0.465652

loop_
_geom_bond_atom_site_label_1
_geom_bond_atom_site_label_2
_geom_bond_distance
_ccdc_geom_bond_type
H23   C48   1.110674 S    
C49   N3    1.502253 S    
C1    C46   1.495836 S    
C7    C8    1.391819 A    
Cu2   N3    2.044158 S    
C45   C48   1.542365 S    
H20   C45   1.110122 S    
O19   C61   1.409640 S    
C52   H31   1.120343 S    
C62   H49   1.108473 S    
O15   C57   1.411756 S    
Cu1   Cu2   2.721138 S    
C50   C60   1.515615 S    
C31   C32   1.408537 A    
Cu1   O7    1.946722 S    
C26   O12   1.349635 S    
C55   H33   1.114633 S    
C38   C39   1.389459 A    
C43   H16   1.113961 S    
C23   C24   1.407259 A    
C31   O13   1.391676 S    
C36   H6    1.077261 S    
C52   O20   1.417411 S    
C28   H3    1.082941 S    
O4    C2    1.310626 A    
O7    C4    1.311291 A    
C54   H27   1.108194 S    
C29   H2    1.083542 S    
C5    C13   1.416936 A    
C53   H26   1.103672 S    
C5    O9    1.347680 S    
C51   N3    1.508938 S    
Cu1   O5    1.981234 S    
C21   C22   1.388288 A    
C28   C32   1.401369 A    
O5    C3    1.309421 A    
C56   H35   1.110579 S    
C44   C47   1.557772 S    
C42   C46   1.577715 S    
C33   C36   1.410956 A    
C2    C16   1.473333 S    
C22   C23   1.395593 A    
C57   H39   1.110423 S    
C3    C47   1.486491 S    
C41   C43   1.568161 S    
C12   C15   1.411947 A    
C50   H25   1.110287 S    
C51   H30   1.115131 S    
C61   H46   1.105272 S    
C37   H9    1.083710 S    
C21   H5    1.076376 S    
C9    C10   1.400128 A    
C22   H4    1.083568 S    
C17   C30   1.399648 A    
C23   C27   1.402601 A    
C4    C17   1.460770 S    
O3    Cu1   1.947857 S    
C51   O19   1.430872 S    
O13   C55   1.411935 S    
C58   O16   1.220360 D    
C10   C58   1.485993 S    
C55   H34   1.109203 S    
C38   H10   1.077118 S    
C12   C13   1.418585 A    
C49   C59   1.531172 S    
C26   N2    1.368296 A    
C42   H15   1.113728 S    
C47   C48   1.551658 S    
C62   H48   1.112173 S    
C8    C16   1.402319 A    
C13   C14   1.418401 A    
C9    H1    1.083383 S    
O6    C3    1.299957 A    
C20   C24   1.421268 A    
C42   O15   1.430903 S    
C50   N4    1.506455 S    
O1    C1    1.306349 A    
C7    C11   1.400192 A    
C24   C25   1.408302 A    
C41   O14   1.432370 S    
O20   C62   1.423150 S    
C37   C40   1.385563 A    
C53   H28   1.107852 S    
Cu2   O8    1.947555 S    
C57   H40   1.109031 S    
C18   C20   1.420010 A    
N1    C6    1.362697 A    
C27   O10   1.349994 S    
C18   C21   1.416404 A    
N1    C11   1.433534 S    
C45   C46   1.543540 S    
C8    H7    1.082201 S    
C53   N3    1.502144 S    
C44   H17   1.112962 S    
C56   H37   1.107538 S    
C19   C35   1.420576 A    
C63   O21   1.221024 D    
C6    O11   1.350074 S    
O3    C2    1.308684 A    
N2    C27   1.368313 A    
C9    C16   1.405439 A    
C49   H24   1.097419 S    
C18   C33   1.422861 A    
C60   H43   1.077251 S    
C17   C29   1.398643 A    
C28   C29   1.389904 A    
N2    C32   1.435859 S    
C59   O17   1.220160 D    
C52   N4    1.511996 S    
H21   C45   1.110442 S    
C30   C31   1.411109 A    
C25   C39   1.396246 A    
C12   C34   1.423268 A    
C5    N1    1.366211 A    
C39   H12   1.083495 S    
C33   C34   1.416794 A    
Cu1   N4    2.044178 S    
O1    Cu1   1.976071 S    
O2    Cu2   1.980806 S    
C6    C15   1.399199 A    
O8    C4    1.302019 A    
C14   C63   1.482352 S    
C15   C37   1.396093 A    
O4    Cu2   1.947022 S    
C58   H41   1.086080 S    
C54   N4    1.499041 S    
C62   H47   1.109683 S    
C7    H8    1.083138 S    
C43   C47   1.548460 S    
C55   H32   1.110776 S    
C19   C20   1.418610 A    
O2    C1    1.307195 A    
C61   H44   1.100731 S    
C19   C38   1.415857 A    
O14   C56   1.411765 S    
C42   C44   1.549608 S    
C57   H38   1.102021 S    
C25   C26   1.404329 A    
C40   H13   1.077169 S    
C51   C52   1.584022 S    
C53   C54   1.587728 S    
C35   C40   1.412775 A    
C56   H36   1.107719 S    
C63   H50   1.085757 S    
C54   H29   1.108724 S    
C49   C50   1.595837 S    
Cu2   O6    1.976499 S    
C34   C35   1.422887 A    
C43   H18   1.104673 S    
C60   O18   1.220035 D    
C10   C11   1.415220 A    
C30   H11   1.081579 S    
C41   H14   1.113148 S    
C59   H42   1.083777 S    
C14   C36   1.394914 A    
C41   C46   1.583884 S    
C44   H19   1.100075 S    
H22   C48   1.102914 S    
C61   H45   1.108965 S    
