data_mof_unit_13362.cif
_audit_creation_date              2012-12-10T17:10:28-0500
_audit_creation_method            fapswitch 2.2
_symmetry_space_group_name_H-M    P1
_symmetry_Int_Tables_number       1
_space_group_crystal_system       triclinic
_cell_length_a                    10.828283
_cell_length_b                    12.948466
_cell_length_c                    11.869803
_cell_angle_alpha                 99.206302
_cell_angle_beta                  94.362179
_cell_angle_gamma                 92.543967
_cell_volume                      1635.35777832

loop_
_atom_site_label
_atom_site_type_symbol
_atom_type_description
_atom_site_fract_x
_atom_site_fract_y
_atom_site_fract_z
_atom_type_partial_charge
C1    C     C_R   0.491511 0.299874 0.479207 0.786661
C2    C     C_R   0.507836 0.699713 0.520598 0.801422
C3    C     C_R   0.523173 0.812361 0.529817 -0.139334
C4    C     C_R   0.477724 0.186391 0.469324 -0.127118
C5    C     C_R   0.344994 0.027124 0.440614 -0.112996
C6    C     C_R   0.657952 0.970086 0.555830 -0.125303
C7    C     C_R   0.360764 0.132897 0.433658 0.081630
C8    C     C_R   0.642204 0.863270 0.558960 0.075625
C9    C     C_R   0.578501 0.131955 0.508641 0.331631
C10   C     C_R   0.422045 0.867586 0.493804 0.335443
C11   C     C_R   0.559684 0.025569 0.516886 0.011744
C12   C     C_R   0.441936 0.973243 0.483813 0.008842
C13   C     C_R   0.423055 0.376447 0.020261 0.313084
C14   C     C_R   0.545244 0.634470 0.975963 0.333042
C15   C     C_R   0.414684 0.394724 0.140624 0.250832
C16   C     C_R   0.560795 0.614808 0.856785 0.215783
C17   C     C_R   0.528968 0.558170 0.156366 0.288039
C18   C     C_R   0.497285 0.436311 0.847128 0.340676
C19   C     C_R   0.514908 0.550721 0.033623 -0.113412
C20   C     C_R   0.477395 0.454183 0.966526 -0.130976
C21   C     C_R   0.261540 0.495338 0.499611 0.763840
C22   C     C_R   0.734640 0.483112 0.498095 0.793005
C23   C     C_R   0.137531 0.389716 0.677011 0.352169
C24   C     C_R   0.861998 0.432644 0.278508 0.416653
C25   C     C_R   0.081972 0.374955 0.775666 -0.088782
C26   C     C_R   0.910937 0.473878 0.187656 -0.356235
C27   C     C_R   0.955557 0.381876 0.781185 0.362888
C28   C     C_R   0.021832 0.536371 0.206787 0.431567
C29   C     C_R   0.883858 0.402647 0.685249 -0.249353
C30   C     C_R   0.090107 0.546145 0.312948 -0.148011
C31   C     C_R   0.938661 0.431963 0.589574 -0.007981
C32   C     C_R   0.048402 0.494595 0.401056 -0.090661
C33   C     C_R   0.069827 0.432379 0.587593 -0.040407
C34   C     C_R   0.923827 0.458058 0.390194 0.044895
C35   C     C_R   0.865575 0.453363 0.492285 -0.116351
C36   C     C_R   0.125467 0.476571 0.497937 -0.145243
Cu1   Cu    Cu3+1 0.509250 0.507730 0.615930 0.955643
Cu2   Cu    Cu3+1 0.490750 0.492270 0.384070 0.961017
H1    H     H_    0.136112 0.348226 0.844907 0.214229
H2    H     H_    0.862098 0.458501 0.103089 0.159855
H3    H     H_    0.785686 0.389158 0.685096 0.176610
H4    H     H_    0.174362 0.595865 0.325066 0.206331
H5    H     H_    0.254716 0.987531 0.413694 0.214125
H6    H     H_    0.749314 0.008546 0.579698 0.213335
N1    N     N_R   0.523180 0.519350 0.790130 -0.202061
N2    N     N_R   0.476820 0.480650 0.209870 -0.193847
O1    O     O_R   0.506570 0.354460 0.582000 -0.580656
O2    O     O_R   0.493430 0.645540 0.418000 -0.576314
O3    O     O_R   0.490940 0.341410 0.386200 -0.556340
O4    O     O_R   0.509060 0.658590 0.613800 -0.575237
O5    O     O_R   0.327470 0.506520 0.597900 -0.518912
O6    O     O_R   0.672530 0.493480 0.402100 -0.550849
O7    O     O_R   0.311840 0.493460 0.402100 -0.602780
O8    O     O_R   0.688160 0.506540 0.597900 -0.618314
O9    O     O_3   0.068910 0.584435 0.122271 -0.703380
H7    H     H_    0.010432 0.569074 0.052425 0.336899
O10   O     O_3   0.903522 0.359002 0.877488 -0.734146
H8    H     H_    0.813580 0.370527 0.870070 0.311554
O11   O     O_3   0.366782 0.287516 0.952336 -0.731050
H9    H     H_    0.379002 0.227126 0.992968 0.328689
O12   O     O_3   0.557166 0.735531 0.036475 -0.737849
H10   H     H_    0.544843 0.786275 0.983034 0.338499
O13   O     O_3   0.250954 0.347608 0.666743 -0.698894
H11   H     H_    0.256912 0.321501 0.584962 0.320322
O14   O     O_3   0.761002 0.360997 0.258589 -0.696888
H12   H     H_    0.729424 0.352380 0.176767 0.319450
O15   O     O_3   0.303950 0.820311 0.464817 -0.738065
H13   H     H_    0.295826 0.754467 0.496635 0.315829
O16   O     O_3   0.695497 0.180255 0.540752 -0.744821
H14   H     H_    0.704141 0.245522 0.507960 0.323751
C37   C     C_3   0.756545 0.806638 0.587416 -0.851004
H15   H     H_    0.829803 0.823711 0.531294 0.241276
H16   H     H_    0.791805 0.834353 0.677990 0.243556
H17   H     H_    0.740192 0.720453 0.574077 0.225255
C38   C     C_3   0.247739 0.184190 0.391864 -0.874899
H18   H     H_    0.169443 0.169518 0.443617 0.244929
H19   H     H_    0.262528 0.269593 0.398998 0.213851
H20   H     H_    0.220200 0.150367 0.300999 0.251842
C39   C     C_3   0.531972 0.327319 0.798498 -0.621307
H21   H     H_    0.565635 0.283535 0.866858 0.189159
H22   H     H_    0.452198 0.280957 0.747844 0.289488
H23   H     H_    0.613782 0.331136 0.749254 0.201907
C40   C     C_3   0.614746 0.645795 0.223533 -0.618830
H24   H     H_    0.660904 0.626310 0.301673 0.230270
H25   H     H_    0.693997 0.662498 0.173771 0.206799
H26   H     H_    0.563559 0.717814 0.244839 0.258633
C41   C     C_3   0.647098 0.691981 0.814539 -0.780972
H27   H     H_    0.723240 0.721560 0.881667 0.209690
H28   H     H_    0.694671 0.654704 0.741480 0.269160
H29   H     H_    0.597081 0.760401 0.793673 0.233938
C42   C     C_3   0.330369 0.319533 0.187090 -0.762050
H30   H     H_    0.287149 0.357559 0.260937 0.262931
H31   H     H_    0.249208 0.291368 0.125126 0.222653
H32   H     H_    0.381004 0.250659 0.205386 0.230684

loop_
_geom_bond_atom_site_label_1
_geom_bond_atom_site_label_2
_ccdc_geom_bond_type
C30   C32   A    
C41   H27   S    
C27   C29   A    
C19   C20   A    
O9    H7    S    
C22   O8    A    
C21   C36   S    
C10   O15   S    
C22   C35   S    
C32   C36   A    
C24   C26   A    
Cu1   O5    S    
C42   H31   S    
C33   C36   A    
C18   C20   A    
C34   C35   A    
C2    O4    A    
C18   C39   S    
C23   C33   A    
C16   C41   S    
C31   C33   A    
Cu1   O1    S    
Cu2   O2    S    
C42   H30   S    
C23   O13   S    
C5    H5    S    
O11   H9    S    
C6    H6    S    
O12   H10   S    
C4    C7    A    
C28   O9    S    
C5    C7    A    
O15   H13   S    
C17   N2    A    
C5    C12   A    
C3    C8    A    
C27   O10   S    
C6    C11   A    
C39   H22   S    
C1    O1    A    
C7    C38   S    
C2    O2    A    
C14   O12   S    
C24   C34   A    
C39   H21   S    
C17   C40   S    
C32   C34   A    
C38   H18   S    
Cu1   Cu2   S    
C37   H17   S    
C38   H19   S    
C40   H24   S    
C9    C11   A    
C10   C12   A    
C24   O14   S    
Cu1   O8    S    
C40   H25   S    
C13   C15   A    
C14   C16   A    
Cu1   N1    S    
C18   N1    A    
C21   O5    A    
Cu2   O3    S    
C22   O6    A    
C8    C37   S    
C13   C20   A    
C29   H3    S    
C14   C19   A    
C9    O16   S    
C16   N1    A    
C39   H23   S    
C6    C8    A    
C11   C12   A    
C13   O11   S    
C25   C27   A    
C26   C28   A    
C1    C4    S    
C28   C30   A    
C2    C3    S    
C37   H15   S    
C29   C31   A    
C3    C10   A    
C25   H1    S    
C42   H32   S    
C21   O7    A    
Cu1   O4    S    
C26   H2    S    
O10   H8    S    
Cu2   O7    S    
C17   C19   A    
C31   C35   A    
C23   C25   A    
O16   H14   S    
C38   H20   S    
Cu2   N2    S    
C15   C42   S    
O13   H11   S    
C40   H26   S    
Cu2   O6    S    
O14   H12   S    
C41   H29   S    
C37   H16   S    
C41   H28   S    
C30   H4    S    
C15   N2    A    
C4    C9    A    
C1    O3    A    
