data_mof_unit_28204.cif
_audit_creation_date              2012-12-10T18:47:00-0500
_audit_creation_method            fapswitch 2.2
_symmetry_space_group_name_H-M    P1
_symmetry_Int_Tables_number       1
_space_group_crystal_system       triclinic
_cell_length_a                    10.704324
_cell_length_b                    9.888473
_cell_length_c                    14.873836
_cell_angle_alpha                 89.748462
_cell_angle_beta                  91.887444
_cell_angle_gamma                 89.465214
_cell_volume                      1573.44680178

loop_
_atom_site_label
_atom_site_type_symbol
_atom_type_description
_atom_site_fract_x
_atom_site_fract_y
_atom_site_fract_z
_atom_type_partial_charge
C1    C     C_R   0.260634 0.500593 0.509077 0.983342
C2    C     C_R   0.739496 0.499231 0.490826 0.977096
C3    C     C_R   0.303713 0.624264 0.045942 -0.244001
C4    C     C_R   0.727810 0.454716 0.953723 -0.266011
C5    C     C_R   0.064207 0.377456 0.520601 0.247777
C6    C     C_R   0.936663 0.621596 0.481264 0.221419
C7    C     C_R   0.939749 0.374135 0.493864 0.257172
C8    C     C_R   0.060693 0.624607 0.509009 0.258413
C9    C     C_R   0.873345 0.497423 0.482525 -0.316953
C10   C     C_R   0.127169 0.501628 0.518599 -0.294897
C11   C     C_R   0.574865 0.070611 0.559955 0.278243
C12   C     C_R   0.424368 0.929389 0.440589 0.281067
C13   C     C_R   0.424220 0.073009 0.440656 0.290170
C14   C     C_R   0.575645 0.926986 0.559443 0.277904
C15   C     C_R   0.502339 0.500391 0.327031 0.921680
C16   C     C_R   0.499363 0.499906 0.672850 0.947026
C17   C     C_R   0.610845 0.477744 0.814476 -0.243242
C18   C     C_R   0.409461 0.566749 0.184968 -0.266059
C19   C     C_R   0.498457 0.501833 0.768287 -0.087501
C20   C     C_R   0.508069 0.503775 0.231457 -0.096405
C21   C     C_R   0.389651 0.539957 0.811557 0.177178
C22   C     C_R   0.613633 0.455008 0.188133 0.180284
C23   C     C_R   0.396838 0.565528 0.904674 0.011449
C24   C     C_R   0.623113 0.479439 0.095048 0.014919
C25   C     C_R   0.509392 0.527773 0.952806 0.024181
C26   C     C_R   0.514326 0.527845 0.046763 0.028046
C27   C     C_R   0.616070 0.485513 0.907030 0.116063
C28   C     C_R   0.408682 0.572573 0.092513 0.114999
C29   C     C_R   0.296701 0.623691 0.952356 0.010906
C30   C     C_R   0.734095 0.454515 0.047442 0.017365
H1    H     H_    0.693548 0.450403 0.777976 0.176020
H2    H     H_    0.330075 0.604873 0.221055 0.172334
H3    H     H_    0.226892 0.666638 0.082851 0.161298
H4    H     H_    0.811354 0.432639 0.916808 0.158086
N1    N     N_R   0.500000 0.857200 0.500000 -0.168560
N2    N     N_R   0.500000 0.142800 0.500000 -0.167734
O1    O     O_R   0.316770 0.614620 0.499990 -0.567267
O2    O     O_R   0.683230 0.385380 0.500010 -0.561228
O3    O     O_R   0.683230 0.614620 0.500010 -0.565801
O4    O     O_R   0.316770 0.385380 0.499990 -0.568395
O5    O     O_R   0.499980 0.614680 0.367850 -0.593156
O6    O     O_R   0.500020 0.385320 0.632150 -0.580523
O7    O     O_R   0.500020 0.614680 0.632150 -0.585394
O8    O     O_R   0.499980 0.385320 0.367850 -0.564938
Zn1   Zn    Zn3+2 0.500000 0.653120 0.500000 1.081476
Zn2   Zn    Zn3+2 0.500000 0.346880 0.500000 1.096242
Br1   Br    Br    0.232807 0.527033 0.743557 -0.496738
Br2   Br    Br    0.729464 0.338733 0.255672 -0.435950
C31   C     C_R   0.190156 0.698502 0.908887 0.157214
C32   C     C_R   0.211657 0.811552 0.854033 -0.108305
C33   C     C_R   0.111022 0.882613 0.813545 -0.065874
C34   C     C_R   0.988494 0.842487 0.828357 -0.049641
C35   C     C_R   0.966270 0.731580 0.884004 -0.130702
C36   C     C_R   0.066569 0.660037 0.924526 -0.126628
H5    H     H_    0.306180 0.843758 0.842210 0.151729
H6    H     H_    0.128026 0.968796 0.770673 0.186989
H7    H     H_    0.910775 0.897631 0.796945 0.188459
H8    H     H_    0.871313 0.701063 0.895683 0.150886
H9    H     H_    0.048219 0.573901 0.967138 0.142054
C37   C     C_R   0.860254 0.443017 0.091281 0.132016
C38   C     C_R   0.905638 0.546571 0.147753 -0.116870
C39   C     C_R   0.023145 0.533647 0.191094 -0.140650
C40   C     C_R   0.096789 0.418616 0.177279 -0.087695
C41   C     C_R   0.054086 0.317344 0.119067 -0.068921
C42   C     C_R   0.936479 0.329450 0.075886 -0.120849
H10   H     H_    0.849145 0.635876 0.159280 0.156647
H11   H     H_    0.056871 0.612444 0.235717 0.171131
H12   H     H_    0.186965 0.407751 0.211628 0.158724
H13   H     H_    0.111721 0.228844 0.108003 0.158568
H14   H     H_    0.903794 0.249319 0.031896 0.147216
Br3   Br    Br    0.139101 0.214025 0.572688 -0.316290
Br4   Br    Br    0.863460 0.785810 0.429551 -0.317594
Br5   Br    Br    0.872129 0.199378 0.460476 -0.240114
Br6   Br    Br    0.127752 0.796626 0.548808 -0.297296
Br7   Br    Br    0.679100 0.162781 0.647341 -0.381788
Br8   Br    Br    0.316845 0.837059 0.355547 -0.386654
Br9   Br    Br    0.314339 0.168803 0.357039 -0.363449
Br10  Br    Br    0.685539 0.831190 0.643048 -0.393712

loop_
_geom_bond_atom_site_label_1
_geom_bond_atom_site_label_2
_ccdc_geom_bond_type
C22   Br2   S    
C6    C9    A    
C7    Br5   S    
C29   C31   S    
C35   C36   A    
C6    Br4   S    
C39   H11   S    
C23   C29   A    
C11   N2    A    
C19   C21   A    
C24   C26   A    
C15   O8    A    
C11   C14   A    
C3    H3    S    
C42   H14   S    
C33   H6    S    
O6    Zn2   S    
C3    C29   A    
C1    O4    A    
C2    O3    A    
C30   C37   S    
N2    Zn2   S    
C1    O1    A    
O3    Zn1   S    
C14   Br10  S    
C38   H10   S    
O8    Zn2   S    
C13   Br9   S    
C36   H9    S    
C15   C20   S    
C4    H4    S    
C33   C34   A    
C17   C27   A    
C18   C28   A    
C15   O5    A    
C13   N2    A    
C14   N1    A    
C5    C7    A    
C6    C8    A    
C25   C26   A    
C37   C38   A    
O4    Zn2   S    
C39   C40   A    
C2    O2    A    
C8    Br6   S    
C32   C33   A    
C41   H13   S    
C12   N1    A    
O7    Zn1   S    
C16   O7    A    
C20   C22   A    
C37   C42   A    
C12   Br8   S    
C17   H1    S    
C22   C24   A    
C18   H2    S    
O1    Zn1   S    
N1    Zn1   S    
C16   O6    A    
C4    C27   A    
C34   C35   A    
C7    C9    A    
C40   H12   S    
C3    C28   A    
C1    C10   S    
C35   H8    S    
C25   C27   A    
C26   C28   A    
C32   H5    S    
C41   C42   A    
C21   C23   A    
C5    C10   A    
C5    Br3   S    
C11   Br7   S    
C16   C19   S    
C17   C19   A    
C18   C20   A    
C23   C25   A    
C38   C39   A    
C24   C30   A    
O2    Zn2   S    
C34   H7    S    
C40   C41   A    
C12   C13   A    
C8    C10   A    
C31   C32   A    
O5    Zn1   S    
C2    C9    S    
C4    C30   A    
C31   C36   A    
C21   Br1   S    
