data_mof_unit_25563.cif
_audit_creation_date              2013-03-05T16:12:13-0500
_audit_creation_method            fapswitch 2.2
_symmetry_space_group_name_H-M    P1
_symmetry_Int_Tables_number       1
_space_group_crystal_system       triclinic
_cell_length_a                    10.841202
_cell_length_b                    9.491184
_cell_length_c                    27.696255
_cell_angle_alpha                 89.740677
_cell_angle_beta                  89.734014
_cell_angle_gamma                 88.85277
_cell_volume                      2849.19953883

loop_
_atom_site_label
_atom_site_type_symbol
_atom_site_description
_atom_site_fract_x
_atom_site_fract_y
_atom_site_fract_z
_atom_type_partial_charge
O1    O     O_R   0.317570 0.620260 0.500030 -0.585896
O2    O     O_R   0.317570 0.379740 0.500030 -0.606701
C1    C     C_R   0.259832 0.501292 0.499800 0.747269
O3    O     O_R   0.499900 0.620250 0.430280 -0.557420
O4    O     O_R   0.499900 0.379750 0.430280 -0.578408
C2    C     C_R   0.500193 0.500527 0.407380 0.827308
Cu1   Cu    Cu3+1 0.499860 0.642410 0.500020 0.955463
Cu2   Cu    Cu3+1 0.499860 0.357590 0.500020 0.943277
O5    O     O_R   0.682190 0.620260 0.500010 -0.581743
O6    O     O_R   0.682190 0.379740 0.500010 -0.597482
O7    O     O_R   0.499860 0.620280 0.569750 -0.587475
O8    O     O_R   0.499860 0.379720 0.569750 -0.569537
C3    C     C_R   0.739716 0.498532 0.500699 0.817981
C4    C     C_R   0.503034 0.499611 0.592411 0.883942
C5    C     C_R   0.492229 0.352380 0.179949 0.573772
O9    O     O_2   0.450123 0.245191 0.207048 -0.471505
N1    N     N_R   0.553739 0.458038 0.202247 -0.472349
C6    C     C_R   0.611392 0.560658 0.176584 0.550534
C7    C     C_R   0.626551 0.405338 0.284617 -0.049871
C8    C     C_R   0.612073 0.419552 0.334455 -0.169040
C9    C     C_R   0.431871 0.572728 0.322209 -0.038607
C10   C     C_R   0.446954 0.555550 0.272365 -0.179343
C11   C     C_R   0.542955 0.472309 0.253578 0.339073
C12   C     C_R   0.531145 0.463910 0.102318 -0.063213
C13   C     C_R   0.474111 0.355632 0.129263 -0.055521
C14   C     C_R   0.401484 0.256600 0.104373 -0.006777
C15   C     C_R   0.602951 0.564362 0.126197 -0.020429
C16   C     C_R   0.513857 0.500021 0.354158 -0.037201
C17   C     C_R   0.504764 0.499364 0.645516 -0.038139
C18   C     C_R   0.448877 0.370888 0.975393 0.067148
C19   C     C_R   0.534612 0.609217 0.976102 -0.050244
C20   C     C_R   0.488024 0.493574 0.950361 0.065447
C21   C     C_R   0.407121 0.255956 0.948156 -0.160224
C22   C     C_R   0.402517 0.262114 0.898177 -0.130061
C23   C     C_R   0.440438 0.382221 0.873343 -0.021197
C24   C     C_R   0.481089 0.499941 0.899319 -0.061968
C25   C     C_R   0.515853 0.622718 0.874127 -0.074228
C26   C     C_R   0.523979 0.616261 0.823033 0.580836
N2    N     N_R   0.483323 0.501007 0.798725 -0.468714
C27   C     C_R   0.439739 0.386305 0.822792 0.546745
C28   C     C_R   0.420908 0.597906 0.719833 -0.076651
C29   C     C_R   0.428616 0.597942 0.669639 -0.260202
C30   C     C_R   0.576881 0.401209 0.672802 -0.012151
C31   C     C_R   0.566462 0.401435 0.723258 -0.176089
C32   C     C_R   0.489302 0.499342 0.746853 0.336064
O10   O     O_2   0.396970 0.275856 0.797783 -0.512461
C33   C     C_R   0.453229 0.366851 0.026671 0.054462
C34   C     C_R   0.516040 0.473225 0.051467 0.086625
C35   C     C_R   0.564404 0.589337 0.025719 0.031213
C36   C     C_R   0.395830 0.260671 0.053973 -0.256362
H1    H     H_    0.361109 0.674112 0.737805 0.163394
H2    H     H_    0.381321 0.157284 0.964321 0.155172
O11   O     O_2   0.674721 0.660366 0.199970 -0.507798
C37   C     C_R   0.663630 0.667412 0.099387 -0.137998
C38   C     C_R   0.545551 0.741304 0.951771 -0.062199
C39   C     C_R   0.539212 0.747231 0.900602 -0.032369
O12   O     O_2   0.576709 0.721123 0.797774 -0.501407
C40   C     C_R   0.646357 0.678082 0.049883 -0.214074
H3    H     H_    0.699980 0.755205 0.030663 0.181581
C41   C     C_3   0.071354 0.555546 0.549025 -0.423685
C42   C     C_3   0.075413 0.349056 0.494029 -0.389206
C43   C     C_3   0.928332 0.546472 0.550828 -0.134314
C44   C     C_3   0.933511 0.345550 0.491111 -0.138187
C45   C     C_3   0.066280 0.598115 0.456854 -0.005595
C46   C     C_3   0.121385 0.503329 0.499415 -0.010820
C47   C     C_3   0.877850 0.496973 0.500647 -0.113487
C48   C     C_3   0.922829 0.598320 0.460584 -0.331687
C49   C     C_3   0.604505 0.081129 0.471632 -0.052070
C50   C     C_3   0.609408 0.913930 0.474305 -0.068901
H4    H     H_    0.692268 0.117046 0.487726 0.115335
H5    H     H_    0.694319 0.885075 0.495017 0.140121
C51   C     C_3   0.514708 0.082427 0.550574 -0.231893
C52   C     C_3   0.508292 0.915552 0.550812 -0.226474
C53   C     C_3   0.382315 0.086131 0.482965 -0.145201
C54   C     C_3   0.386270 0.920539 0.479799 -0.217354
N3    N     N_3   0.500250 0.143650 0.501060 -0.156794
N4    N     N_3   0.500250 0.856350 0.501060 -0.179433
H6    H     H_    0.356719 0.133761 0.447733 0.205305
H7    H     H_    0.376456 0.888521 0.441754 0.197450
C55   C     C_2   0.328496 0.666017 0.337556 0.376877
H8    H     H_    0.254093 0.690616 0.312599 0.134099
O13   O     O_2   0.326779 0.721962 0.376871 -0.603470
H9    H     H_    0.702332 0.342270 0.270199 0.156678
H10   H     H_    0.724171 0.741229 0.116615 0.196331
C56   C     C_2   0.538405 0.874351 0.980330 0.284126
H11   H     H_    0.481404 0.878913 0.012644 0.093783
O14   O     O_2   0.599247 0.976773 0.969612 -0.564016
C57   C     C_2   0.668385 0.301467 0.651194 0.340810
H12   H     H_    0.697047 0.207844 0.671178 0.085502
O15   O     O_2   0.717430 0.325315 0.612367 -0.568133
C58   C     C_2   0.542414 0.886260 0.875793 0.501320
H13   H     H_    0.618561 0.956474 0.881555 0.117372
O16   O     O_2   0.458255 0.923904 0.849246 -0.520357
H14   H     H_    0.621316 0.327880 0.744664 0.146185
H15   H     H_    0.103619 0.663190 0.556937 0.211280
H16   H     H_    0.119562 0.297268 0.462173 0.190542
H17   H     H_    0.110984 0.488223 0.578369 0.152690
H18   H     H_    0.105611 0.284732 0.525759 0.179723
H19   H     H_    0.905116 0.464035 0.577927 0.207178
H20   H     H_    0.900039 0.273727 0.520083 0.178586
H21   H     H_    0.384139 0.608221 0.247477 0.136704
C59   C     C_2   0.871402 0.683714 0.568590 0.390454
H22   H     H_    0.886074 0.781304 0.549122 0.118951
O17   O     O_2   0.808323 0.686040 0.605223 -0.535007
C60   C     C_2   0.896173 0.281765 0.443609 0.350416
H23   H     H_    0.849828 0.344211 0.416132 0.060889
O18   O     O_2   0.920668 0.158035 0.435289 -0.526979
C61   C     C_2   0.107185 0.750980 0.458474 0.401467
H24   H     H_    0.159796 0.795520 0.429127 0.154825
O19   O     O_2   0.077182 0.828991 0.491630 -0.600995
C62   C     C_2   0.106936 0.538865 0.408119 0.308079
H25   H     H_    0.184054 0.464558 0.405566 0.078143
O20   O     O_2   0.058053 0.579422 0.370746 -0.520636
H26   H     H_    0.886319 0.705583 0.468820 0.228197
H27   H     H_    0.879055 0.572627 0.425640 0.200252
C63   C     C_2   0.608734 0.134728 0.419938 0.420910
H28   H     H_    0.691921 0.180968 0.406474 0.078543
O21   O     O_2   0.523881 0.117783 0.391820 -0.559747
C64   C     C_2   0.628357 0.848688 0.424864 0.476429
H29   H     H_    0.554776 0.851816 0.398493 0.146576
O22   O     O_2   0.728159 0.798511 0.412861 -0.566398
H30   H     H_    0.604099 0.114530 0.566172 0.185179
H31   H     H_    0.590966 0.870976 0.569521 0.186652
H32   H     H_    0.305378 0.117533 0.507661 0.144328
H33   H     H_    0.305031 0.880572 0.499481 0.192671
H34   H     H_    0.441396 0.125370 0.574924 0.163622
H35   H     H_    0.427015 0.883020 0.572568 0.161103
C65   C     C_2   0.323111 0.150991 0.128440 0.480796
H36   H     H_    0.323333 0.043425 0.115276 0.040094
O23   O     O_2   0.250621 0.185524 0.160324 -0.474218
H37   H     H_    0.373020 0.673731 0.649481 0.150765
H38   H     H_    0.370195 0.171005 0.878988 0.220933
H39   H     H_    0.337957 0.184292 0.036991 0.125574
H40   H     H_    0.679112 0.368987 0.357752 0.126959

loop_
_geom_bond_atom_site_label_1
_geom_bond_atom_site_label_2
_geom_bond_distance
_ccdc_geom_bond_type
C53   H32   1.113086 S    
C38   C39   1.419993 A    
C17   C29   1.404593 A    
C28   C29   1.392290 A    
C50   N4    1.504095 S    
C7    C8    1.395336 A    
C12   C15   1.411604 A    
C8    H40   1.078170 S    
C51   N3    1.494651 S    
C65   H36   1.085593 S    
C37   H10   1.083358 S    
C15   C37   1.398345 A    
Cu1   Cu2   2.703278 S    
C56   H11   1.085765 S    
C63   H28   1.075295 S    
C21   H2    1.077624 S    
Cu1   O7    1.941703 S    
C60   O18   1.221513 D    
N1    C11   1.432748 S    
C10   H21   1.084622 S    
C53   N3    1.490057 S    
C30   C57   1.483382 S    
C20   C24   1.416973 A    
C24   C25   1.412296 A    
C48   H26   1.109162 S    
C62   H25   1.085201 S    
C14   C36   1.397865 A    
C26   N2    1.368511 A    
O7    C4    1.303427 A    
C5    C13   1.418485 A    
C5    O9    1.347309 S    
Cu2   N3    2.030538 S    
C61   H24   1.080240 S    
C41   C43   1.555200 S    
C22   C23   1.396660 A    
C50   H5    1.115724 S    
O5    C3    1.301992 A    
C48   H27   1.110138 S    
C6    O11   1.349876 S    
C25   C39   1.421245 A    
C39   C58   1.485912 S    
C2    C16   1.480800 S    
C42   H18   1.114451 S    
C63   O21   1.221582 D    
C49   C50   1.588146 S    
C52   H31   1.112634 S    
O6    C3    1.299603 A    
C29   H37   1.083765 S    
C44   C60   1.511023 S    
N2    C32   1.437965 S    
C56   O14   1.220425 D    
C47   C48   1.548650 S    
C44   C47   1.570543 S    
C22   H38   1.082133 S    
C9    C10   1.399279 A    
C17   C30   1.421337 A    
C1    C46   1.500761 S    
C19   C35   1.423957 A    
O3    Cu1   1.943897 S    
C7    H9    1.082663 S    
C45   C61   1.526504 S    
C33   C36   1.410123 A    
C3    C47   1.497312 S    
C64   O22   1.218794 D    
C42   H16   1.113411 S    
C53   C54   1.574222 S    
C43   C47   1.573267 S    
C12   C34   1.420769 A    
C45   C48   1.558095 S    
C18   C33   1.421534 A    
C21   C22   1.386275 A    
C12   C13   1.417602 A    
C55   O13   1.213507 D    
C41   H17   1.113967 S    
C58   H13   1.084103 S    
C51   C52   1.586738 S    
C45   C62   1.524426 S    
C8    C16   1.407358 A    
C44   H20   1.114667 S    
C40   H3    1.080633 S    
C52   H35   1.113138 S    
C50   C64   1.516785 S    
C35   C40   1.409719 A    
C51   H34   1.112285 S    
O1    C1    1.302011 A    
C23   C24   1.410711 A    
C38   C56   1.493584 S    
C7    C11   1.394136 A    
C30   C31   1.401504 A    
C25   C26   1.418963 A    
C58   O16   1.221261 D    
C26   O12   1.348899 S    
C33   C34   1.411671 A    
Cu2   O8    1.943593 S    
C42   C44   1.541914 S    
N1    C6    1.363259 A    
C62   O20   1.222179 D    
C14   C65   1.481129 S    
C59   O17   1.220963 D    
C54   N4    1.489347 S    
C49   C63   1.518037 S    
O3    C2    1.303782 A    
C34   C35   1.417931 A    
C9    C16   1.423518 A    
C57   O15   1.219700 D    
C41   C46   1.554420 S    
C27   O10   1.350064 S    
C4    C17   1.470999 S    
N2    C27   1.365228 A    
C31   C32   1.399864 A    
C37   C40   1.387659 A    
Cu1   O5    1.983633 S    
C28   C32   1.398579 A    
C18   C21   1.412204 A    
C51   H30   1.111546 S    
O1    Cu1   1.991574 S    
C19   C20   1.414460 A    
O2    Cu2   1.983203 S    
C6    C15   1.399175 A    
O8    C4    1.303144 A    
C55   H8    1.085861 S    
C36   H39   1.079071 S    
C65   O23   1.220936 D    
O4    Cu2   1.942007 S    
C64   H29   1.083946 S    
C5    N1    1.366723 A    
C49   N3    1.504278 S    
C60   H23   1.081847 S    
Cu1   N4    2.030968 S    
C19   C38   1.427387 A    
C45   C46   1.590950 S    
O2    C1    1.301486 A    
C13   C14   1.420974 A    
C18   C20   1.423533 A    
O4    C2    1.307624 A    
C9    C55   1.476446 S    
C61   O19   1.221077 D    
C23   C27   1.400483 A    
C59   H22   1.083767 S    
C31   H14   1.084161 S    
C43   H19   1.113392 S    
C41   H15   1.109620 S    
C42   C46   1.564133 S    
C57   H12   1.085634 S    
Cu2   O6    1.992004 S    
C53   H6    1.107710 S    
C49   H4    1.112865 S    
C52   N4    1.494049 S    
C10   C11   1.394232 A    
C54   H33   1.106248 S    
C54   H7    1.104178 S    
C28   H1    1.082905 S    
C43   C59   1.513413 S    
