data_mof_unit_66594.cif
_audit_creation_date              2012-12-10T19:43:27-0500
_audit_creation_method            fapswitch 2.2
_symmetry_space_group_name_H-M    P1
_symmetry_Int_Tables_number       1
_space_group_crystal_system       triclinic
_cell_length_a                    10.849221
_cell_length_b                    10.833955
_cell_length_c                    9.702099
_cell_angle_alpha                 89.223934
_cell_angle_beta                  89.849887
_cell_angle_gamma                 98.56042
_cell_volume                      1127.56409171

loop_
_atom_site_label
_atom_site_type_symbol
_atom_type_description
_atom_site_fract_x
_atom_site_fract_y
_atom_site_fract_z
_atom_type_partial_charge
C1    C     C_R   0.491773 0.261812 0.500841 0.783743
C2    C     C_R   0.292862 0.840033 0.152958 -0.118448
C3    C     C_R   0.941828 0.540114 0.389040 -0.226914
C4    C     C_R   0.869024 0.476567 0.494352 -0.107188
C5    C     C_R   0.925929 0.407352 0.593721 0.016266
C6    C     C_R   0.055192 0.410636 0.589837 -0.258891
C7    C     C_R   0.127837 0.487333 0.494364 -0.065280
C8    C     C_R   0.071010 0.553526 0.392885 0.000492
C9    C     C_R   0.888554 0.459798 0.828481 -0.232470
C10   C     C_R   0.823897 0.446426 0.954966 0.533405
C11   C     C_R   0.730656 0.342609 0.972575 -0.175304
C12   C     C_R   0.262522 0.496114 0.499434 0.756113
C13   C     C_R   0.708830 0.251266 0.871220 -0.176779
C14   C     C_R   0.776606 0.264992 0.747930 -0.155307
C15   C     C_R   0.864080 0.372147 0.725722 0.069386
C16   C     C_R   0.319078 0.101061 0.687300 -0.158488
C17   C     C_R   0.242958 0.025158 0.780041 -0.156345
C18   C     C_R   0.243459 0.897015 0.782722 -0.166399
C19   C     C_R   0.319506 0.843711 0.691979 -0.160414
C20   C     C_R   0.398984 0.918766 0.598002 0.102112
C21   C     C_R   0.400322 0.050139 0.596955 0.043362
C22   C     C_R   0.478886 0.125518 0.501142 -0.237607
C23   C     C_R   0.486731 0.734552 0.499301 0.833490
C24   C     C_R   0.541060 0.068867 0.397282 0.413057
C25   C     C_R   0.524309 0.940472 0.389074 -0.280619
C26   C     C_R   0.469309 0.865976 0.497163 -0.178614
C27   C     C_R   0.660989 0.705254 0.131017 0.418971
C28   C     C_R   0.713251 0.807490 0.039487 0.356579
C29   C     C_R   0.698479 0.794598 0.898621 -0.380777
C30   C     C_R   0.649661 0.683234 0.845331 -0.197871
C31   C     C_R   0.575099 0.592767 0.922383 0.156047
C32   C     C_R   0.576757 0.597998 0.071799 0.106187
C33   C     C_R   0.427397 0.411563 0.075124 -0.082733
C34   C     C_R   0.736105 0.490836 0.499481 0.821831
C35   C     C_R   0.427075 0.412011 0.928224 -0.062042
C36   C     C_R   0.234934 0.869889 0.274345 -0.136061
C37   C     C_R   0.160839 0.776612 0.350970 -0.206560
C38   C     C_R   0.144176 0.652510 0.306479 0.101401
C39   C     C_R   0.202652 0.623238 0.184343 -0.072817
C40   C     C_R   0.276776 0.716752 0.108006 -0.163536
Cu1   Cu    Cu3+1 0.499990 0.499990 0.640660 0.921493
Cu2   Cu    Cu3+1 0.500010 0.500010 0.359340 0.998641
H1    H     H_    0.350444 0.912357 0.094005 0.148861
H2    H     H_    0.674461 0.332163 0.065294 0.188762
H3    H     H_    0.638457 0.170450 0.887849 0.171573
H4    H     H_    0.759332 0.193514 0.671186 0.102108
H5    H     H_    0.309098 0.198642 0.684085 0.135162
H6    H     H_    0.181120 0.065750 0.847924 0.124959
H7    H     H_    0.181776 0.838205 0.852602 0.132978
H8    H     H_    0.310065 0.743157 0.692377 0.162381
H9    H     H_    0.559035 0.899202 0.299338 0.196805
H10   H     H_    0.367612 0.338479 0.130500 0.133103
H11   H     H_    0.247703 0.965381 0.309310 0.145765
H12   H     H_    0.734988 0.868873 0.827136 0.166025
H13   H     H_    0.669378 0.673010 0.739956 0.227780
H14   H     H_    0.366785 0.339361 0.875603 0.121748
H15   H     H_    0.117898 0.800783 0.445794 0.140245
H16   H     H_    0.191387 0.527802 0.149021 0.124685
H17   H     H_    0.321793 0.693582 0.014113 0.131016
H18   H     H_    0.898303 0.591694 0.312928 0.226189
H19   H     H_    0.100157 0.362111 0.669426 0.141876
H20   H     H_    0.956647 0.540564 0.803919 0.124613
N1    N     N_R   0.501190 0.501210 0.147910 -0.176979
N2    N     N_R   0.501230 0.501290 0.852040 -0.182503
O1    O     O_R   0.499990 0.319640 0.618810 -0.586842
O2    O     O_R   0.500000 0.319660 0.381240 -0.542892
O3    O     O_R   0.319640 0.500000 0.618780 -0.602797
O4    O     O_R   0.319650 0.500020 0.381210 -0.585058
O5    O     O_R   0.500000 0.680340 0.618760 -0.617898
O6    O     O_R   0.500010 0.680360 0.381190 -0.518126
O7    O     O_R   0.680350 0.499980 0.618790 -0.594844
O8    O     O_R   0.680360 0.500000 0.381220 -0.497103
O9    O     O_3   0.619998 0.137876 0.302714 -0.556570
C41   C     C_3   0.737753 0.169492 0.365602 0.092909
H21   H     H_    0.775389 0.085163 0.403112 0.118000
H22   H     H_    0.730980 0.232451 0.452993 0.118114
C42   C     C_3   0.830439 0.239196 0.264103 -0.763326
H23   H     H_    0.808547 0.334660 0.246814 0.271201
H24   H     H_    0.926169 0.247064 0.306685 0.200328
H25   H     H_    0.826647 0.189699 0.164761 0.271804
O10   O     O_3   0.698123 0.700430 0.269768 -0.538656
C43   C     C_3   0.785385 0.801161 0.321029 0.110160
H26   H     H_    0.749523 0.890088 0.312403 0.201859
H27   H     H_    0.876080 0.807408 0.268139 0.169475
C44   C     C_3   0.809074 0.789863 0.475351 -0.921698
H28   H     H_    0.725226 0.743696 0.528710 0.264425
H29   H     H_    0.887644 0.738847 0.497225 0.229447
H30   H     H_    0.834647 0.884098 0.520052 0.198135
O11   O     O_3   0.772976 0.921683 0.087903 -0.607614
C45   C     C_3   0.883193 0.971342 0.013625 0.060075
H31   H     H_    0.865123 0.056236 0.956373 0.172572
H32   H     H_    0.916200 0.906813 0.938336 0.128316
C46   C     C_3   0.990871 0.007062 0.112747 -0.894803
H33   H     H_    0.036656 0.924240 0.134416 0.239254
H34   H     H_    0.060820 0.080952 0.065721 0.212890
H35   H     H_    0.958186 0.040649 0.211728 0.264807
O12   O     O_3   0.845410 0.531354 0.062289 -0.600758
C47   C     C_3   0.938808 0.633448 0.030294 -0.373539
H36   H     H_    0.910322 0.689895 0.943217 0.165247
H37   H     H_    0.028564 0.601342 0.006516 0.164233
H38   H     H_    0.955132 0.695702 0.118684 0.187012

loop_
_geom_bond_atom_site_label_1
_geom_bond_atom_site_label_2
_ccdc_geom_bond_type
C16   C21   A    
Cu1   Cu2   S    
C23   O5    A    
C19   C20   A    
C17   H6    S    
O12   C47   S    
C7    C8    A    
Cu1   O3    S    
C42   H23   S    
C33   H10   S    
C12   O4    A    
C46   H33   S    
C41   H22   S    
C6    H19   S    
C36   C37   A    
C37   C38   A    
C5    C6    A    
C24   O9    S    
C42   H25   S    
C29   H12   S    
Cu2   O6    S    
C18   C19   A    
O9    C41   S    
C23   C26   S    
C36   H11   S    
C16   C17   A    
C41   C42   S    
C1    O1    A    
C28   O11   S    
C9    C10   A    
Cu1   O7    S    
C3    H18   S    
C44   H29   S    
C27   C32   A    
C1    C22   S    
C46   H34   S    
C40   H17   S    
C21   C22   A    
Cu2   O4    S    
C23   O6    A    
C8    C38   S    
C16   H5    S    
O10   C43   S    
C42   H24   S    
C7    C12   S    
C12   O3    A    
C4    C34   S    
C41   H21   S    
C9    H20   S    
C27   O10   S    
C38   C39   A    
C24   C25   A    
C14   H4    S    
C3    C8    A    
C39   C40   A    
Cu1   O1    S    
C25   C26   A    
C44   H28   S    
C39   H16   S    
C1    O2    A    
C10   O12   S    
C25   H9    S    
C29   C30   A    
C45   H32   S    
C31   C32   A    
C2    H1    S    
C33   N1    A    
Cu2   O8    S    
C17   C18   A    
C11   H2    S    
C35   N2    A    
C47   H36   S    
C46   H35   S    
C47   H37   S    
C22   C24   A    
C3    C4    A    
C43   C44   S    
C34   O8    A    
C45   C46   S    
Cu1   O5    S    
C44   H30   S    
C2    C36   A    
C28   C29   A    
C35   H14   S    
C31   N2    A    
C32   N1    A    
C4    C5    A    
C6    C7    A    
C47   H38   S    
C30   H13   S    
C43   H27   S    
C9    C15   A    
C13   H3    S    
C11   C13   A    
C19   H8    S    
C45   H31   S    
C30   C31   A    
C20   C26   A    
C34   O7    A    
C33   C35   A    
C5    C15   S    
C10   C11   A    
C2    C40   A    
C20   C21   A    
C43   H26   S    
C27   C28   A    
Cu2   O2    S    
C14   C15   A    
Cu1   N2    S    
O11   C45   S    
C13   C14   A    
Cu2   N1    S    
C37   H15   S    
C18   H7    S    
