data_mof_unit_43785.cif
_audit_creation_date              2012-10-26T20:33:44-0400
_audit_creation_method            fapswitch 2.2
_symmetry_space_group_name_H-M    P1
_symmetry_Int_Tables_number       1
_space_group_crystal_system       triclinic
_cell_length_a                    10.772009
_cell_length_b                    9.093116
_cell_length_c                    7.786158
_cell_angle_alpha                 90.00129
_cell_angle_beta                  90.094837
_cell_angle_gamma                 90.009079
_cell_volume                      762.661899613

loop_
_atom_site_label
_atom_site_type_symbol
_atom_type_description
_atom_site_fract_x
_atom_site_fract_y
_atom_site_fract_z
_atom_type_partial_charge
C1    C     C_R   0.500007 0.220040 0.500000 0.576159
C2    C     C_1   0.500046 0.934638 0.500010 -0.029536
C3    C     C_3   0.071637 0.639383 0.570765 -0.356568
C4    C     C_3   0.928302 0.639965 0.568492 -0.347863
C5    C     C_3   0.121843 0.492171 0.497099 0.033333
C6    C     C_3   0.878050 0.491310 0.498524 0.018249
C7    C     C_R   0.259394 0.496622 0.499447 0.603220
C8    C     C_R   0.740568 0.496446 0.499788 0.563410
C9    C     C_R   0.500026 0.779970 0.500003 0.540139
C10   C     C_1   0.500042 0.065390 0.500007 -0.015427
C11   C     C_3   0.072430 0.364963 0.613975 0.181231
C12   C     C_3   0.071717 0.477444 0.308899 0.121089
C13   C     C_3   0.927707 0.366563 0.618872 0.123084
C14   C     C_3   0.928119 0.472689 0.310583 0.146375
Cu1   Cu    Cu3+1 0.500000 0.500010 0.669080 1.038163
Cu2   Cu    Cu3+1 0.500000 0.500010 0.330920 1.081276
H1    H     H_    0.104876 0.387488 0.747330 0.130853
H2    H     H_    0.110689 0.370408 0.099608 0.337935
H3    H     H_    0.794293 0.221897 0.630033 0.336381
H4    H     H_    0.916758 0.258533 0.276744 0.391574
H5    H     H_    0.100697 0.578395 0.237325 0.095366
H6    H     H_    0.900133 0.393228 0.753756 0.122677
H7    H     H_    0.895907 0.569422 0.234775 0.132399
H8    H     H_    0.104878 0.655416 0.704943 0.144241
H9    H     H_    0.106977 0.733807 0.494036 0.143895
H10   H     H_    0.893301 0.660108 0.700886 0.152257
H11   H     H_    0.894704 0.732437 0.487022 0.141079
H12   H     H_    0.084052 0.192976 0.461750 0.396173
N1    N     N_1   0.500000 0.499970 0.076820 -0.071613
N2    N     N_1   0.500000 0.499970 0.923180 -0.076597
O1    O     O_R   0.500000 0.288400 0.642760 -0.496114
O2    O     O_3   0.122868 0.354586 0.224718 -0.680110
O3    O     O_3   0.877620 0.228261 0.576293 -0.697036
O4    O     O_3   0.878896 0.347919 0.226857 -0.661147
O5    O     O_R   0.500000 0.288400 0.357240 -0.476519
O6    O     O_R   0.317700 0.499990 0.642790 -0.517755
O7    O     O_R   0.317700 0.499990 0.357210 -0.471911
O8    O     O_R   0.682300 0.499990 0.642790 -0.530521
O9    O     O_R   0.682300 0.499990 0.357210 -0.467573
O10   O     O_R   0.500000 0.711620 0.642810 -0.501548
O11   O     O_R   0.500000 0.711620 0.357190 -0.510101
O12   O     O_3   0.122875 0.227014 0.569831 -0.642623

loop_
_geom_bond_atom_site_label_1
_geom_bond_atom_site_label_2
_ccdc_geom_bond_type
C14   H7    S    
C14   O4    S    
C4    H10   S    
Cu1   O8    S    
Cu1   O1    S    
N1    N2    T    
C8    O9    A    
C6    C14   S    
C7    O6    A    
C9    O11   A    
C3    H9    S    
Cu2   O7    S    
H4    O4    S    
C7    O7    A    
C12   O2    S    
C6    C13   S    
C13   O3    S    
C11   C13   S    
C3    H8    S    
C8    O8    A    
Cu1   N2    S    
C12   H5    S    
H12   O12   S    
C12   C14   S    
C13   H6    S    
C5    C11   S    
Cu2   O5    S    
Cu1   O10   S    
H2    O2    S    
C5    C12   S    
Cu2   O9    S    
C3    C4    S    
C2    C10   T    
Cu1   O6    S    
C1    O1    A    
C4    H11   S    
C1    O5    A    
C11   O12   S    
C4    C6    S    
H3    O3    S    
C5    C7    S    
C11   H1    S    
C6    C8    S    
Cu2   N1    S    
C2    C9    S    
Cu2   O11   S    
C9    O10   A    
C1    C10   S    
Cu1   Cu2   S    
C3    C5    S    
