data_mof_unit_58095.cif
_audit_creation_date              2012-12-11T20:55:14-0500
_audit_creation_method            fapswitch 2.2
_symmetry_space_group_name_H-M    P1
_symmetry_Int_Tables_number       1
_space_group_crystal_system       triclinic
_cell_length_a                    8.266633
_cell_length_b                    19.123248
_cell_length_c                    22.779286
_cell_angle_alpha                 99.851345
_cell_angle_beta                  90.045276
_cell_angle_gamma                 91.915163
_cell_volume                      3545.90347805

loop_
_atom_site_label
_atom_site_type_symbol
_atom_type_description
_atom_site_fract_x
_atom_site_fract_y
_atom_site_fract_z
_atom_type_partial_charge
Ba1   Ba    Ba6+2 0.157290 0.533910 0.474710 1.651011
Ba2   Ba    Ba6+2 0.652900 0.466090 0.525240 1.643448
C1    C     C_3   0.358229 0.740593 0.265040 -0.334457
C2    C     C_3   0.421767 0.719113 0.321810 0.327523
C3    C     C_3   0.483800 0.684335 0.619188 0.288597
C4    C     C_3   0.480014 0.765370 0.634879 -0.123925
C5    C     C_3   0.885708 0.283953 0.650025 0.361085
C6    C     C_3   0.878253 0.212022 0.670111 -0.358935
C7    C     C_3   0.389632 0.295334 0.679917 0.307822
C8    C     C_3   0.454166 0.281290 0.739131 -0.356457
C9    C     C_R   0.954453 0.197593 0.470260 -0.149934
C10   C     C_R   0.989210 0.271857 0.479452 0.054562
C11   C     C_R   0.138528 0.187823 0.550435 -0.156029
C12   C     C_3   0.919693 0.721845 0.346849 0.398669
C13   C     C_R   0.205780 0.254433 0.544836 0.000109
C14   C     C_R   0.674177 0.811078 0.448387 -0.163874
C15   C     C_R   0.606325 0.744532 0.454054 -0.009998
C16   C     C_R   0.857290 0.801744 0.528895 -0.145271
C17   C     C_R   0.821137 0.727692 0.520339 0.052099
C18   C     C_R   0.020088 0.153661 0.509269 0.001462
C19   C     C_R   0.120561 0.298623 0.514914 -0.245155
C20   C     C_R   0.792490 0.845346 0.489560 0.004828
C21   C     C_R   0.688769 0.701011 0.485517 -0.245298
C22   C     C_R   0.228976 0.034277 0.539595 -0.078628
C23   C     C_3   0.938840 0.792607 0.325086 -0.367373
C24   C     C_R   0.322313 0.982056 0.556692 -0.076338
C25   C     C_R   0.276211 0.911771 0.538805 -0.063755
C26   C     C_R   0.130825 0.895009 0.508434 -0.080316
C27   C     C_R   0.013743 0.946332 0.506847 0.013817
C28   C     C_R   0.067825 0.019814 0.518232 0.039542
C29   C     C_R   0.850095 0.924195 0.491281 -0.014797
C30   C     C_R   0.744880 0.979128 0.480675 0.040009
C31   C     C_R   0.799100 0.052569 0.491974 0.013500
C32   C     C_R   0.962726 0.074727 0.507460 -0.017015
C33   C     C_R   0.583295 0.964759 0.459748 -0.078570
C34   C     C_3   0.820776 0.374995 0.342147 0.299956
C35   C     C_R   0.489718 0.017039 0.442838 -0.082600
C36   C     C_R   0.536136 0.087309 0.460685 -0.066192
C37   C     C_R   0.682038 0.103902 0.490677 -0.076899
C38   C     C_R   0.643985 0.524058 0.335385 -0.301454
C39   C     C_R   0.366303 0.562873 0.948271 -0.024534
C40   C     C_R   0.317334 0.559294 0.888483 0.585318
C41   C     C_R   0.247090 0.435064 0.880894 0.582877
C42   C     C_R   0.298142 0.436493 0.940261 -0.022846
C43   C     C_R   0.357909 0.500891 0.974067 -0.052412
C44   C     C_R   0.423988 0.626965 0.982789 -0.076200
C45   C     C_3   0.814975 0.355930 0.274528 -0.360519
C46   C     C_R   0.472636 0.629550 0.041821 -0.077976
C47   C     C_R   0.466392 0.567997 0.068015 -0.019719
C48   C     C_R   0.409409 0.503364 0.033948 -0.053515
C49   C     C_R   0.292141 0.374957 0.966466 -0.076717
C50   C     C_R   0.345316 0.377172 0.025011 -0.073475
C51   C     C_R   0.404186 0.441186 0.059440 -0.023980
C52   C     C_R   0.458212 0.444391 0.118712 0.586841
C53   C     C_R   0.514922 0.569851 0.127638 0.585766
C54   C     C_2   0.063768 0.476641 0.773218 -0.070073
C55   C     C_3   0.019862 0.482696 0.709564 -0.058632
C56   C     C_3   0.997929 0.632038 0.660060 0.293743
C57   C     C_1   0.302616 0.511333 0.694055 0.017048
C58   C     C_2   0.343658 0.510812 0.750138 -0.093053
C59   C     C_2   0.217685 0.492884 0.793154 0.217545
C60   C     C_R   0.707987 0.544211 0.235833 -0.098822
C61   C     C_R   0.750096 0.550104 0.296092 -0.040929
C62   C     C_R   0.500890 0.487609 0.314559 0.037717
C63   C     C_R   0.456008 0.482864 0.254563 -0.083712
C64   C     C_R   0.558118 0.512009 0.214591 0.212116
C65   C     C_2   0.169135 0.478110 0.670987 -0.281471
C66   C     C_3   0.036943 0.661816 0.725089 -0.364935
C67   C     C_3   0.320380 0.317271 0.393777 0.317419
C68   C     C_3   0.317853 0.236817 0.376481 -0.378562
H1    H     H_    0.436834 0.660608 0.313952 0.027587
H2    H     H_    0.730512 0.309622 0.260735 0.139557
H3    H     H_    0.772663 0.401216 0.254880 0.069591
H4    H     H_    0.937643 0.342541 0.257153 0.129785
H5    H     H_    0.110453 0.613296 0.637299 0.025341
H6    H     H_    0.907734 0.587353 0.657435 0.038576
H7    H     H_    0.120020 0.709169 0.727953 0.147319
H8    H     H_    0.096752 0.622084 0.746899 0.084736
H9    H     H_    0.923857 0.677457 0.749432 0.117808
H10   H     H_    0.196554 0.334461 0.404973 -0.000233
H11   H     H_    0.401109 0.332648 0.433142 0.082149
H12   H     H_    0.247002 0.708883 0.249286 0.160149
H13   H     H_    0.234140 0.219556 0.338205 0.126177
H14   H     H_    0.276390 0.211796 0.414509 0.057107
H15   H     H_    0.441419 0.218781 0.363968 0.128470
H16   H     H_    0.540711 0.747114 0.331654 -0.036519
H17   H     H_    0.451192 0.731465 0.229785 0.133335
H18   H     H_    0.610005 0.668421 0.609461 0.010771
H19   H     H_    0.408470 0.667970 0.578445 0.059150
H20   H     H_    0.518777 0.788727 0.595504 0.056153
H21   H     H_    0.354101 0.781537 0.645751 0.122625
H22   H     H_    0.331506 0.797950 0.273139 0.098184
H23   H     H_    0.884506 0.788225 0.279946 0.120554
H24   H     H_    0.790805 0.283732 0.615413 0.098951
H25   H     H_    0.006317 0.292532 0.631286 -0.056149
H26   H     H_    0.885857 0.168851 0.631034 0.070690
H27   H     H_    0.980229 0.208312 0.701077 0.119610
H28   H     H_    0.762148 0.204760 0.693117 0.142122
H29   H     H_    0.263545 0.273099 0.674282 -0.021427
H30   H     H_    0.390322 0.353812 0.681344 0.043671
H31   H     H_    0.373417 0.304434 0.775602 0.137452
H32   H     H_    0.577194 0.305934 0.747748 0.157695
H33   H     H_    0.973944 0.727637 0.392200 0.065405
H34   H     H_    0.459216 0.223217 0.738572 0.113413
H35   H     H_    0.870472 0.175743 0.434955 0.075407
H36   H     H_    0.177964 0.164994 0.587926 0.063752
H37   H     H_    0.633630 0.834410 0.411404 0.059013
H38   H     H_    0.941507 0.823669 0.564098 0.076845
H39   H     H_    0.162737 0.353057 0.516356 0.061305
H40   H     H_    0.644272 0.647156 0.485511 0.067757
H41   H     H_    0.294257 0.083191 0.539924 0.075184
H42   H     H_    0.441186 0.995642 0.576208 0.082937
H43   H     H_    0.358888 0.870933 0.544743 0.096101
H44   H     H_    0.788652 0.707976 0.348671 -0.098736
H45   H     H_    0.108269 0.841543 0.486314 0.127071
H46   H     H_    0.517937 0.915918 0.459750 0.074578
H47   H     H_    0.370509 0.003522 0.423604 0.078379
H48   H     H_    0.453496 0.128314 0.455131 0.097060
H49   H     H_    0.704976 0.157216 0.512909 0.127264
H50   H     H_    0.339398 0.328495 0.043346 0.124252
H51   H     H_    0.247296 0.324639 0.941602 0.122040
H52   H     H_    0.515827 0.680045 0.066868 0.119874
H53   H     H_    0.791857 0.563991 0.205553 0.108133
H54   H     H_    0.431557 0.675500 0.964270 0.123762
H55   H     H_    0.878041 0.834803 0.355761 0.066389
H56   H     H_    0.467195 0.523954 0.765285 0.102905
H57   H     H_    0.969278 0.465966 0.803884 0.095597
H58   H     H_    0.342531 0.456189 0.238995 0.117476
H59   H     H_    0.678375 0.527799 0.381684 0.079707
H60   H     H_    0.167735 0.447785 0.626062 0.064501
H61   H     H_    0.068750 0.808356 0.323331 0.141463
H62   H     H_    0.697594 0.387271 0.358662 0.011648
H63   H     H_    0.903524 0.422136 0.354772 0.062594
N1    N     N_R   0.259941 0.495750 0.855389 -0.428390
N2    N     N_R   0.510295 0.508540 0.152620 -0.424412
O1    O     O_2   0.108070 0.674980 0.540650 -0.458250
O2    O     O_3   0.375475 0.347351 0.345382 -0.627914
O3    O     O_3   0.999413 0.669999 0.307371 -0.583635
O4    O     O_2   0.702240 0.324970 0.459330 -0.460517
O5    O     O_3   0.948380 0.413820 0.464520 -0.492214
O6    O     O_3   0.443920 0.371740 0.566130 -0.462117
O7    O     O_3   0.876276 0.316759 0.364983 -0.631508
O8    O     O_3   0.358830 0.538360 0.571050 -0.477345
O9    O     O_3   0.852160 0.408490 0.597560 -0.487909
O10   O     O_2   0.687368 0.445173 0.697632 -0.481124
O11   O     O_3   0.861864 0.337096 0.699337 -0.595591
O12   O     O_3   0.861930 0.586170 0.535430 -0.485066
O13   O     O_3   0.451480 0.461630 0.428900 -0.494515
O14   O     O_2   0.599240 0.538720 0.642170 -0.458348
O15   O     O_3   0.422447 0.653608 0.666793 -0.644537
O16   O     O_2   0.528951 0.247445 0.518121 -0.507197
O17   O     O_3   0.488095 0.262334 0.633814 -0.598230
O18   O     O_2   0.324580 0.612892 0.865913 -0.595264
O19   O     O_2   0.192483 0.379717 0.851726 -0.604283
O20   O     O_2   0.460602 0.389883 0.139913 -0.597356
O21   O     O_2   0.560029 0.626355 0.157547 -0.621815
O22   O     O_3   0.366390 0.628250 0.433820 -0.458292
O23   O     O_2   0.287025 0.751892 0.484619 -0.506738
O24   O     O_3   0.932560 0.686209 0.634699 -0.645852
O25   O     O_3   0.312932 0.739395 0.368510 -0.583483
O26   O     O_2   0.211060 0.461230 0.357810 -0.458627
O27   O     O_3   0.958150 0.591500 0.402390 -0.483417
O28   O     O_2   0.084084 0.539129 0.296476 -0.477182
P1    P     P_3+3 0.933470 0.664380 0.557030 0.977710
P2    P     P_3+3 0.383600 0.440030 0.365120 0.993799
P3    P     P_3+3 0.947965 0.586740 0.325020 0.972090
P4    P     P_3+3 0.876840 0.335610 0.442930 0.981819
P5    P     P_3+3 0.855600 0.419419 0.675702 0.972989
P6    P     P_3+3 0.395826 0.718061 0.433556 0.936534
P7    P     P_3+3 0.417835 0.561068 0.645697 0.956874
P8    P     P_3+3 0.414354 0.282046 0.566917 0.923029
N3    N     N_3   0.586711 0.793635 0.685152 -0.489129
H64   H     H_    0.551433 0.771382 0.722203 0.222224
H65   H     H_    0.704918 0.778603 0.674379 0.200052

loop_
_geom_bond_atom_site_label_1
_geom_bond_atom_site_label_2
_ccdc_geom_bond_type
C38   H59   S    
C7    O17   S    
C23   H23   S    
O13   P2    S    
Ba2   O9    S    
C39   C40   A    
C6    H26   S    
C6    H27   S    
C34   H63   S    
C10   P4    S    
O2    P2    S    
C56   H6    S    
C5    C6    S    
C55   P5    S    
C4    N3    S    
C51   C52   A    
N3    H64   S    
C24   C25   A    
C31   C37   A    
C38   C61   A    
O9    P5    S    
Ba2   O4    S    
C26   C27   A    
C33   C35   A    
C35   C36   A    
C22   C24   A    
Ba1   Ba2   S    
C56   O24   S    
C34   H62   S    
C46   H52   S    
C3    C4    S    
C53   N2    Am   
C2    H16   S    
Ba2   O13   S    
C4    H21   S    
O6    P8    S    
O16   P8    D    
C54   C55   S    
C34   C45   S    
C16   C17   A    
C54   H57   S    
C5    H24   S    
C23   H55   S    
C6    H28   S    
C14   H37   S    
O22   P6    S    
O7    P4    S    
O27   P3    S    
C3    H18   S    
C61   P3    S    
C12   O3    S    
Ba1   P1    S    
C14   C15   A    
C41   O19   D    
C9    H35   S    
O25   P6    S    
C57   P7    S    
C68   H14   S    
C7    C8    S    
C5    O11   S    
C18   C32   S    
Ba2   O14   S    
Ba1   O26   S    
C57   C58   D    
C7    H29   S    
C67   O2    S    
Ba2   O8    S    
C44   H54   S    
C67   C68   S    
C22   H41   S    
C55   C65   S    
C60   H53   S    
C62   P2    S    
N3    H65   S    
C56   H5    S    
C16   H38   S    
C66   H8    S    
C53   O21   D    
C44   C46   A    
C9    C18   A    
C48   C51   A    
C20   C29   S    
C60   C64   A    
C1    H17   S    
C49   C50   A    
C63   H58   S    
C8    H32   S    
C40   O18   D    
C34   O7    S    
C45   H3    S    
C52   O20   D    
O17   P8    S    
C28   C32   A    
Ba2   O12   S    
C12   H44   S    
C10   C19   A    
C3    O15   S    
O14   P7    D    
C1    H22   S    
C41   N1    Am   
C17   C21   A    
C41   C42   A    
C30   C33   A    
C60   C61   A    
Ba1   O8    S    
C26   H45   S    
C57   C65   D    
C29   C30   A    
Ba1   P2    S    
C39   C44   A    
C47   C53   A    
O28   P3    D    
C1    H12   S    
C31   C32   A    
C13   P8    S    
C33   H46   S    
C54   C59   D    
C15   C21   A    
O4    P4    D    
C68   H13   S    
Ba1   O5    S    
C50   H50   S    
C42   C49   A    
C56   C66   S    
C46   C47   A    
Ba1   O27   S    
C47   C48   A    
C7    H30   S    
C11   C13   A    
O26   P2    D    
C49   H51   S    
Ba1   O12   S    
C65   H60   S    
O15   P7    S    
C1    C2    S    
Ba1   O1    S    
C24   H42   S    
C50   C51   A    
O1    P1    D    
C66   H7    S    
C21   H40   S    
O11   P5    S    
C14   C20   A    
C59   N1    S    
C11   C18   A    
C16   C20   A    
C8    H31   S    
C42   C43   A    
O8    P7    S    
C11   H36   S    
C67   H10   S    
C2    O25   S    
C19   H39   S    
C9    C10   A    
O23   P6    D    
C25   H43   S    
C5    H25   S    
C38   C62   A    
O3    P3    S    
C40   N1    Am   
Ba2   O5    S    
C62   C63   A    
C58   H56   S    
C27   C29   A    
C4    H20   S    
C30   C31   A    
C8    H34   S    
C12   H33   S    
C36   C37   A    
C43   C48   A    
O5    P4    S    
C37   H49   S    
C52   N2    Am   
Ba1   O22   S    
O12   P1    S    
C15   P6    S    
C17   P1    S    
C12   C23   S    
C45   H4    S    
C22   C28   A    
C45   H2    S    
C67   H11   S    
C27   C28   A    
C64   N2    S    
C36   H48   S    
C13   C19   A    
C35   H47   S    
C66   H9    S    
C63   C64   A    
C25   C26   A    
Ba2   O6    S    
C39   C43   A    
O24   P1    S    
C58   C59   S    
Ba1   O13   S    
C68   H15   S    
Ba2   P4    S    
C2    H1    S    
C3    H19   S    
O10   P5    D    
C23   H61   S    
