data_mof_unit_35663.cif
_audit_creation_date              2012-12-11T16:04:09-0500
_audit_creation_method            fapswitch 2.2
_symmetry_space_group_name_H-M    P1
_symmetry_Int_Tables_number       1
_space_group_crystal_system       triclinic
_cell_length_a                    8.337508
_cell_length_b                    16.720363
_cell_length_c                    17.323596
_cell_angle_alpha                 96.217391
_cell_angle_beta                  95.629133
_cell_angle_gamma                 94.39039
_cell_volume                      2379.94014664

loop_
_atom_site_label
_atom_site_type_symbol
_atom_type_description
_atom_site_fract_x
_atom_site_fract_y
_atom_site_fract_z
_atom_type_partial_charge
Ba1   Ba    Ba6+2 0.150890 0.539190 0.463180 1.766450
Ba2   Ba    Ba6+2 0.659280 0.460800 0.536750 1.802563
C1    C     C_3   0.326511 0.747723 0.176438 0.358113
C2    C     C_3   0.363143 0.721799 0.257675 0.302296
C3    C     C_3   0.563168 0.712836 0.657976 0.263292
C4    C     C_3   0.688621 0.779696 0.698811 0.393287
C5    C     C_3   0.903263 0.243336 0.709840 0.355220
C6    C     C_3   0.890876 0.160475 0.738378 -0.300489
C7    C     C_3   0.362579 0.221129 0.742800 0.305520
C8    C     C_3   0.420641 0.195562 0.822237 0.308099
C9    C     C_R   0.687440 0.734948 0.475972 -0.308153
C10   C     C_R   0.840285 0.759539 0.514159 0.000664
C11   C     C_R   0.895846 0.842585 0.525671 -0.176625
C12   C     C_3   0.892632 0.768648 0.310907 0.270355
C13   C     C_R   0.792502 0.901196 0.504026 0.296368
C14   C     C_R   0.634738 0.874464 0.468523 -0.069538
C15   C     C_R   0.583889 0.791536 0.453496 -0.028157
C16   C     C_R   0.899950 0.155073 0.491370 0.336456
C17   C     C_R   0.951742 0.241363 0.500958 -0.029949
C18   C     C_R   0.005210 0.099740 0.524049 0.199082
C19   C     C_R   0.102053 0.267743 0.543060 -0.351878
C20   C     C_R   0.208653 0.212923 0.568304 -0.049772
C21   C     C_R   0.159613 0.130224 0.559252 -0.204336
C22   C     C_R   0.579060 0.550062 0.281407 -0.203231
C23   C     C_3   0.933372 0.856435 0.299133 -0.208525
C24   C     C_R   0.439780 0.497506 0.256268 0.145438
C25   C     C_R   0.381433 0.487517 0.176638 -0.067941
C26   C     C_R   0.471125 0.522898 0.122379 -0.008523
C27   C     C_R   0.623003 0.565345 0.147621 -0.033158
C28   C     C_R   0.679455 0.577155 0.227311 0.060755
C29   C     C_R   0.409187 0.522610 0.836197 0.012687
C30   C     C_R   0.356061 0.514109 0.756258 0.053599
C31   C     C_R   0.106300 0.441747 0.780267 0.016760
C32   C     C_R   0.158578 0.449806 0.860501 -0.049162
C33   C     C_R   0.310995 0.490126 0.888632 0.062898
C34   C     C_3   0.811081 0.278790 0.266114 0.847881
C35   C     C_1   0.365181 0.500966 0.971290 0.109063
C36   C     C_1   0.412798 0.510768 0.040195 0.086101
C37   C     C_R   0.206682 0.472578 0.728670 -0.217513
C38   C     C_3   0.954117 0.267300 0.215570 0.192802
C39   C     C_3   0.118858 0.722987 0.700554 0.642113
C40   C     C_3   0.149788 0.813531 0.694929 -0.291554
C41   C     C_3   0.290230 0.304151 0.385588 0.349332
C42   C     C_3   0.244259 0.213374 0.375992 -0.326573
H1    H     H_    0.279988 0.667533 0.261280 0.016789
H2    H     H_    0.926485 0.291013 0.158655 0.076413
H3    H     H_    0.060853 0.304643 0.244891 0.047347
H4    H     H_    0.235873 0.843172 0.744095 0.205161
H5    H     H_    0.403202 0.316214 0.425637 0.104234
H6    H     H_    0.315278 0.693690 0.132246 -0.027850
H7    H     H_    0.277471 0.183456 0.320754 0.226490
H8    H     H_    0.490142 0.705994 0.265305 -0.052496
H9    H     H_    0.626121 0.672387 0.618124 -0.041851
H10   H     H_    0.468043 0.739285 0.621820 0.016643
H11   H     H_    0.763023 0.802458 0.655446 -0.089995
H12   H     H_    0.209953 0.775855 0.172482 0.077315
H13   H     H_    0.896305 0.896618 0.348230 0.114569
H14   H     H_    0.822951 0.240555 0.654324 0.077239
H15   H     H_    0.030636 0.258070 0.699182 -0.117830
H16   H     H_    0.764059 0.142901 0.748200 0.153856
H17   H     H_    0.929481 0.114974 0.693995 0.089552
H18   H     H_    0.302967 0.278290 0.751073 -0.000802
H19   H     H_    0.315880 0.167171 0.847416 0.023677
H20   H     H_    0.959483 0.757920 0.366941 0.063556
H21   H     H_    0.509135 0.149676 0.814871 0.036974
H22   H     H_    0.014672 0.862093 0.554801 0.102490
H23   H     H_    0.143875 0.331211 0.549170 0.074913
H24   H     H_    0.524186 0.556170 0.857583 0.084697
H25   H     H_    0.698237 0.587372 0.105524 0.105315
H26   H     H_    0.080275 0.426227 0.900617 0.094255
H27   H     H_    0.270750 0.449547 0.156717 0.102134
H28   H     H_    0.618166 0.562971 0.343166 0.040420
H29   H     H_    0.164717 0.467959 0.667094 0.047686
H30   H     H_    0.065626 0.868461 0.297153 0.151111
H31   H     H_    0.868831 0.870313 0.243743 0.190388
N1    N     N_2   0.834896 0.986361 0.524280 -0.133428
N2    N     N_2   0.973138 0.012560 0.510955 -0.191710
O1    O     O_2   0.124170 0.696240 0.537320 -0.488047
O2    O     O_3   0.313500 0.331633 0.313064 -0.551287
O3    O     O_3   0.940278 0.718325 0.248568 -0.593236
O4    O     O_2   0.686120 0.303710 0.462660 -0.396348
O5    O     O_3   0.936010 0.403900 0.461090 -0.501204
O6    O     O_3   0.459650 0.352790 0.600040 -0.474607
O7    O     O_3   0.859023 0.260706 0.343777 -0.637766
O8    O     O_3   0.380200 0.540830 0.590710 -0.497495
O9    O     O_3   0.877840 0.393190 0.638290 -0.506342
O10   O     O_2   0.772990 0.448360 0.772835 -0.409634
O11   O     O_3   0.854607 0.300533 0.766354 -0.559415
O12   O     O_3   0.874280 0.596090 0.538840 -0.453513
O13   O     O_3   0.430090 0.459160 0.409230 -0.486672
O14   O     O_2   0.641040 0.538740 0.685130 -0.449624
O15   O     O_3   0.492651 0.672377 0.714914 -0.616687
O16   O     O_2   0.538442 0.211031 0.551593 -0.416565
O17   O     O_3   0.494197 0.230769 0.698643 -0.573554
O18   O     O_3   0.350640 0.647210 0.399890 -0.510697
O19   O     O_2   0.250287 0.789301 0.454722 -0.471617
O20   O     O_3   0.967069 0.692002 0.662648 -0.680028
O21   O     O_3   0.336956 0.784482 0.314667 -0.579273
O22   O     O_2   0.169260 0.461210 0.314850 -0.459029
O23   O     O_3   0.932460 0.606800 0.361650 -0.504786
O24   O     O_2   0.016443 0.570797 0.220374 -0.440295
P1    P     P_3+3 0.954010 0.683680 0.560080 0.961799
P2    P     P_3+3 0.343360 0.437010 0.326580 1.121460
P3    P     P_3+3 0.890796 0.617673 0.262719 1.028520
P4    P     P_3+3 0.856290 0.316310 0.439860 1.132578
P5    P     P_3+3 0.902967 0.397022 0.740243 1.061284
P6    P     P_3+3 0.380505 0.753291 0.407174 0.984333
P7    P     P_3+3 0.465880 0.567475 0.687823 0.994103
P8    P     P_3+3 0.421101 0.250006 0.604645 0.996157
S1    S     S_3+6 0.009523 0.166094 0.191163 0.026165
O25   O     O_2   0.993095 0.115770 0.257135 -0.210884
O26   O     O_2   0.181947 0.170292 0.172592 -0.222736
O27   O     O_3   0.891838 0.120722 0.111699 -0.384635
H32   H     H_    0.916668 0.153136 0.069074 0.357082
H33   H     H_    0.214460 0.689178 0.676234 0.006240
S2    S     S_3+6 0.119025 0.706508 0.801185 -0.037245
O28   O     O_2   0.289587 0.705332 0.837774 -0.226957
O29   O     O_2   0.040612 0.772696 0.845302 -0.240316
O30   O     O_3   0.016176 0.617459 0.807639 -0.540639
H34   H     H_    0.900661 0.626645 0.796493 0.348372
H35   H     H_    0.203085 0.822934 0.640205 0.090146
H36   H     H_    0.036277 0.843783 0.696962 0.100761
H37   H     H_    0.193705 0.335292 0.412839 -0.070125
H38   H     H_    0.113098 0.200688 0.376950 0.115173
H39   H     H_    0.305583 0.185334 0.424480 0.087518
S3    S     S_3+6 0.483830 0.817173 0.153867 -0.019267
O31   O     O_2   0.427696 0.851798 0.080384 -0.187459
O32   O     O_2   0.524272 0.884365 0.219533 -0.248425
O33   O     O_3   0.648511 0.767638 0.139841 -0.552609
H40   H     H_    0.719854 0.804628 0.114598 0.386228
H41   H     H_    0.767800 0.754838 0.743837 0.091715
S4    S     S_3+6 0.605205 0.865110 0.744564 -0.044657
O34   O     O_2   0.512008 0.840676 0.809407 -0.202804
O35   O     O_2   0.741831 0.926786 0.778098 -0.253738
O36   O     O_3   0.485244 0.905311 0.678022 -0.573624
H42   H     H_    0.456421 0.956374 0.705657 0.357839
H43   H     H_    0.970364 0.161413 0.793867 0.119740
H44   H     H_    0.273006 0.171922 0.713526 -0.102977
S5    S     S_3+6 0.510131 0.278994 0.890200 -0.016553
O37   O     O_2   0.386776 0.305951 0.942800 -0.258785
O38   O     O_2   0.566276 0.348452 0.848505 -0.284740
O39   O     O_3   0.668447 0.249918 0.944818 -0.424476
H45   H     H_    0.747934 0.236578 0.907540 0.340266
S6    S     S_3+6 0.718702 0.110207 0.432955 -0.002861
O40   O     O_2   0.765088 0.044532 0.375170 -0.235751
O41   O     O_2   0.606961 0.072810 0.484679 -0.303963
O42   O     O_3   0.609534 0.170613 0.383340 -0.446775
H46   H     H_    0.518293 0.133653 0.356075 0.370233
H47   H     H_    0.551410 0.917876 0.452554 0.159451
H48   H     H_    0.244553 0.088549 0.578143 0.127886
H49   H     H_    0.646011 0.671368 0.467028 0.071317
H50   H     H_    0.760157 0.758630 0.313776 -0.004296
S7    S     S_3+6 0.643688 0.208913 0.218898 0.089532
O43   O     O_2   0.490292 0.231840 0.249159 -0.249213
O44   O     O_2   0.627264 0.214004 0.132345 -0.197236
O45   O     O_3   0.668335 0.112733 0.233700 -0.385791
H51   H     H_    0.570654 0.080910 0.205760 0.394735
S8    S     S_3+6 0.755675 0.378542 0.258956 -0.117307
O46   O     O_2   0.893481 0.428755 0.234487 -0.373368
O47   O     O_2   0.617678 0.375597 0.196033 -0.286122
O48   O     O_3   0.703267 0.420755 0.343465 -0.582776
H52   H     H_    0.788062 0.465318 0.361239 0.346818

loop_
_geom_bond_atom_site_label_1
_geom_bond_atom_site_label_2
_ccdc_geom_bond_type
C38   H3    S    
O22   P2    D    
S3    O31   D    
C2    O21   S    
O12   P1    S    
O1    P1    D    
C39   C40   S    
O42   H46   S    
C4    H11   S    
Ba1   O22   S    
O48   H52   S    
C1    S3    S    
O36   H42   S    
C38   H2    S    
C40   H36   S    
C24   C25   A    
C31   C37   A    
C18   N2    S    
O3    P3    S    
C3    H9    S    
O45   H51   S    
C17   C19   A    
C22   C24   A    
C23   H30   S    
C15   P6    S    
C3    C4    S    
S5    O39   S    
C30   C37   A    
C41   O2    S    
C13   C14   A    
O23   P3    S    
S2    O28   D    
Ba2   O8    S    
C32   C33   A    
C7    H44   S    
O5    P4    S    
Ba2   O13   S    
C5    O11   S    
S1    O25   D    
S8    O48   S    
O15   P7    S    
C8    H19   S    
C14   C15   A    
Ba1   O12   S    
O6    P8    S    
Ba2   O9    S    
C14   H47   S    
C12   O3    S    
S7    O44   D    
O8    P7    S    
C7    C8    S    
C32   H26   S    
C5    H14   S    
C16   C18   A    
O20   P1    S    
C34   S8    S    
C6    H17   S    
C2    H1    S    
C13   N1    S    
C19   C20   A    
C19   H23   S    
S8    O47   D    
Ba1   O1    S    
O2    P2    S    
Ba2   O6    S    
O9    P5    S    
C23   H13   S    
C39   H33   S    
S6    O42   S    
Ba1   O23   S    
C5    H15   S    
C1    H6    S    
C34   S7    S    
C31   C32   A    
C27   H25   S    
C11   H22   S    
Ba1   O8    S    
C29   H24   S    
S5    O37   D    
O4    P4    D    
C42   H39   S    
C7    H18   S    
C3    H10   S    
C34   C38   S    
N1    N2    D    
C4    S4    S    
C16   C17   A    
C38   S1    S    
S3    O33   S    
Ba1   O5    S    
C42   H38   S    
O21   P6    S    
C6    H43   S    
C23   H31   S    
Ba2   O12   S    
C41   C42   S    
C10   P1    S    
C35   C36   T    
C24   P2    S    
O11   P5    S    
C1    H12   S    
C29   C30   A    
C18   C21   A    
C26   C36   S    
S1    O26   D    
Ba1   O18   S    
C20   P8    S    
C12   H20   S    
O7    P4    S    
C40   H4    S    
S7    O45   S    
S1    O27   S    
O18   P6    S    
C17   P4    S    
C42   H7    S    
S6    O41   D    
C21   H48   S    
C2    H8    S    
O24   P3    D    
C11   C13   A    
S8    O46   D    
C39   O20   S    
Ba2   O5    S    
C8    S5    S    
C39   S2    S    
C12   H50   S    
C1    C2    S    
C26   C27   A    
Ba1   O13   S    
C41   H37   S    
C25   H27   S    
C22   H28   S    
O27   H32   S    
C8    H21   S    
C9    H49   S    
Ba1   P2    S    
C9    C15   A    
S3    O32   D    
Ba2   P4    S    
C33   C35   S    
O39   H45   S    
O14   P7    D    
O19   P6    D    
C41   H5    S    
C31   P5    S    
C4    H41   S    
C7    O17   S    
C9    C10   A    
O17   P8    S    
S2    O30   S    
S6    O40   D    
C16   S6    S    
O33   H40   S    
C6    H16   S    
S5    O38   D    
O10   P5    D    
C34   O7    S    
S4    O36   S    
Ba1   Ba2   S    
S2    O29   D    
S4    O34   D    
C29   C33   A    
C37   H29   S    
C12   C23   S    
Ba2   O14   S    
C22   C28   A    
O13   P2    S    
C3    O15   S    
C5    C6    S    
C27   C28   A    
C10   C11   A    
S4    O35   D    
O30   H34   S    
C30   P7    S    
C28   P3    S    
C25   C26   A    
C20   C21   A    
Ba2   O4    S    
S7    O43   D    
Ba1   P1    S    
C40   H35   S    
O16   P8    D    
