data_mof_unit_32284.cif
_audit_creation_date              2012-12-10T18:33:41-0500
_audit_creation_method            fapswitch 2.2
_symmetry_space_group_name_H-M    P1
_symmetry_Int_Tables_number       1
_space_group_crystal_system       triclinic
_cell_length_a                    10.517544
_cell_length_b                    14.96694
_cell_length_c                    15.388503
_cell_angle_alpha                 81.093755
_cell_angle_beta                  91.459127
_cell_angle_gamma                 102.635966
_cell_volume                      2335.12893058

loop_
_atom_site_label
_atom_site_type_symbol
_atom_type_description
_atom_site_fract_x
_atom_site_fract_y
_atom_site_fract_z
_atom_type_partial_charge
C1    C     C_R   0.478683 0.441650 0.662600 0.864453
C2    C     C_R   0.529969 0.482535 0.049996 0.106293
C3    C     C_R   0.481875 0.389154 0.086432 -0.158409
C4    C     C_R   0.645845 0.587649 0.928714 -0.201249
C5    C     C_R   0.457824 0.318861 0.033368 -0.047365
C6    C     C_R   0.700844 0.650827 0.984703 -0.053464
C7    C     C_R   0.737356 0.846117 0.611502 -0.140540
C8    C     C_R   0.310631 0.162802 0.353312 -0.122892
C9    C     C_R   0.681737 0.753262 0.603552 0.028090
C10   C     C_R   0.331908 0.247619 0.385874 -0.000330
C11   C     C_R   0.513203 0.798258 0.512971 0.079763
C12   C     C_R   0.521977 0.558455 0.338092 0.926414
C13   C     C_R   0.496243 0.205464 0.482341 0.080489
C14   C     C_R   0.575707 0.893279 0.507077 -0.000500
C15   C     C_R   0.489922 0.122874 0.445228 -0.000568
C16   C     C_R   0.741885 0.499930 0.500787 0.862929
C17   C     C_R   0.258294 0.500737 0.498513 0.907188
C18   C     C_R   0.686516 0.916697 0.560088 0.050610
C19   C     C_R   0.393309 0.101618 0.381066 0.070061
C20   C     C_R   0.529506 0.966195 0.453346 0.006769
C21   C     C_R   0.570235 0.057797 0.472326 0.010261
C22   C     C_R   0.694800 0.080805 0.510302 -0.051419
C23   C     C_R   0.477909 0.468476 0.817544 -0.087859
C24   C     C_R   0.454412 0.954276 0.376556 -0.083025
C25   C     C_R   0.749224 0.010269 0.556035 -0.162588
C26   C     C_R   0.385084 0.021230 0.342793 -0.129130
C27   C     C_3   0.945060 0.472596 0.425721 -0.219087
C28   C     C_3   0.056068 0.530909 0.572872 -0.194788
C29   C     C_3   0.015231 0.414910 0.495996 -0.146871
C30   C     C_3   0.985509 0.588381 0.502860 -0.168846
C31   C     C_3   0.123387 0.501783 0.497963 -0.049971
C32   C     C_3   0.877424 0.501177 0.500758 -0.048146
C33   C     C_3   0.054726 0.558578 0.429011 0.006559
C34   C     C_R   0.491096 0.548791 0.180206 -0.114179
C35   C     C_3   0.946327 0.444841 0.569872 0.009277
C36   C     C_R   0.468746 0.406052 0.757411 -0.146656
C37   C     C_R   0.556784 0.594452 0.246289 -0.116703
C38   C     C_R   0.458502 0.279464 0.879445 0.008246
C39   C     C_R   0.721416 0.684579 0.140527 0.015015
C40   C     C_R   0.461146 0.311972 0.788858 -0.193897
C41   C     C_R   0.672084 0.661274 0.226504 -0.273919
C42   C     C_1   0.561764 0.219746 0.563913 0.218993
C43   C     C_1   0.378032 0.771050 0.490218 0.228904
C44   C     C_1   0.245043 0.308866 0.359372 0.317907
C45   C     C_R   0.505080 0.439359 0.905537 0.019188
C46   C     C_1   0.735701 0.679819 0.652082 0.381817
C47   C     C_2   0.847399 0.868871 0.672926 0.897078
C48   C     C_2   0.198694 0.136890 0.293783 0.897127
C49   C     C_2   0.781962 0.173339 0.486749 0.907636
C50   C     C_2   0.465519 0.883075 0.321228 0.929380
C51   C     C_1   0.113612 0.621521 0.350830 0.254425
C52   C     C_1   0.887018 0.384874 0.649498 0.250683
C53   C     C_2   0.403096 0.223662 0.077752 0.953673
C54   C     C_2   0.789189 0.737103 0.943419 0.931546
C55   C     C_2   0.346332 0.513097 0.186258 0.926284
C56   C     C_R   0.559216 0.553976 0.101716 0.024686
C57   C     C_2   0.418128 0.550701 0.796314 0.960668
C58   C     C_1   0.457097 0.182303 0.905411 0.232975
C59   C     C_1   0.843862 0.751430 0.127486 0.231278
C60   C     C_R   0.472596 0.343615 0.940287 0.030995
C61   C     C_R   0.661440 0.632488 0.074703 0.022200
C62   C     C_R   0.558167 0.504343 0.960542 0.039371
H1    H     H_    0.034430 0.345535 0.493451 0.205638
H2    H     H_    0.327645 0.011455 0.284285 0.203273
H3    H     H_    0.922387 0.941077 0.769694 0.357588
H4    H     H_    0.041554 0.040696 0.267607 0.366152
H5    H     H_    0.834825 0.287485 0.396062 0.341260
H6    H     H_    0.575190 0.802043 0.281802 0.356507
H7    H     H_    0.257718 0.109706 0.085059 0.363799
H8    H     H_    0.946225 0.795167 0.865655 0.364948
H9    H     H_    0.179799 0.455298 0.129162 0.368612
H10   H     H_    0.441658 0.688523 0.758207 0.353487
H11   H     H_    0.970423 0.659127 0.505255 0.181842
H12   H     H_    0.896753 0.451128 0.364995 0.160168
H13   H     H_    0.105023 0.554198 0.632789 0.195402
H14   H     H_    0.725409 0.693796 0.278808 0.173087
H15   H     H_    0.454710 0.263278 0.742919 0.180036
H16   H     H_    0.466288 0.370414 0.156919 0.163093
H17   H     H_    0.677872 0.601220 0.860761 0.210223
H18   H     H_    0.844509 0.028951 0.584760 0.200990
N1    N     N_R   0.574200 0.731700 0.552740 -0.140297
N2    N     N_1   0.942207 0.804829 0.117772 -0.124036
N3    N     N_R   0.425800 0.268300 0.447260 -0.143668
N4    N     N_1   0.614043 0.230233 0.629750 -0.181160
N5    N     N_1   0.268930 0.750874 0.472788 -0.183574
N6    N     N_1   0.171584 0.355053 0.337304 -0.154017
N7    N     N_1   0.779925 0.621623 0.691392 -0.180781
N8    N     N_1   0.159365 0.671579 0.289170 -0.089602
N9    N     N_1   0.841278 0.338178 0.712934 -0.142520
N10   N     N_1   0.456452 0.104419 0.925617 -0.124916
O1    O     O_R   0.462600 0.383110 0.605620 -0.612997
O2    O     O_R   0.841139 0.929422 0.732598 -0.758969
O3    O     O_2   0.180054 0.191653 0.229602 -0.592312
O4    O     O_R   0.113643 0.050195 0.312437 -0.787199
O5    O     O_2   0.870086 0.200444 0.536008 -0.650430
O6    O     O_R   0.765958 0.228036 0.406693 -0.780459
O7    O     O_2   0.377460 0.856834 0.271436 -0.594140
O8    O     O_R   0.578777 0.848345 0.323763 -0.789743
O9    O     O_2   0.457450 0.190756 0.142197 -0.620625
O10   O     O_R   0.285823 0.173411 0.048804 -0.750331
O11   O     O_2   0.769055 0.812453 0.952955 -0.576727
O12   O     O_R   0.537400 0.616890 0.394380 -0.604127
O13   O     O_R   0.891884 0.731922 0.889856 -0.767867
O14   O     O_2   0.285775 0.524888 0.248660 -0.640379
O15   O     O_R   0.277121 0.474433 0.117306 -0.769402
O16   O     O_2   0.299519 0.539468 0.798960 -0.599135
O17   O     O_R   0.495158 0.639439 0.771955 -0.821279
O18   O     O_R   0.510210 0.531900 0.639510 -0.604533
O19   O     O_R   0.489790 0.468100 0.360490 -0.610507
O20   O     O_R   0.662240 0.425610 0.483080 -0.605796
O21   O     O_R   0.337760 0.574390 0.516920 -0.613590
O22   O     O_R   0.709860 0.574400 0.516970 -0.638005
O23   O     O_R   0.290140 0.425600 0.483030 -0.624933
O24   O     O_2   0.942848 0.834899 0.671232 -0.614060
Zn1   Zn    Zn3+2 0.468210 0.400660 0.477370 0.982217
Zn2   Zn    Zn3+2 0.531790 0.599340 0.522630 0.986960

loop_
_geom_bond_atom_site_label_1
_geom_bond_atom_site_label_2
_ccdc_geom_bond_type
C47   O24   D    
C38   C40   A    
C29   H1    S    
C45   C60   A    
C34   C56   A    
C23   C45   A    
C27   C29   S    
C34   C37   A    
C47   O2    S    
C14   C18   A    
C54   O11   D    
C59   N2    T    
C17   O23   A    
C39   C41   A    
C27   C33   S    
C15   C19   A    
C48   O4    S    
C55   O15   S    
C6    C61   A    
C5    C53   S    
C24   C26   A    
C9    C46   S    
C11   C14   A    
C25   H18   S    
C4    C62   A    
C45   C62   A    
C23   C57   S    
C12   C37   S    
C19   C26   A    
C26   H2    S    
C13   C42   S    
C38   C58   S    
C20   C24   A    
C28   C35   S    
C22   C25   A    
C31   C33   S    
C11   C43   S    
O21   Zn2   S    
C27   H12   S    
C30   C33   S    
H4    O4    S    
C57   O16   D    
C34   C55   S    
C1    O1    A    
C21   C22   A    
C52   N9    T    
C18   C25   A    
C6    C54   S    
C44   N6    T    
C17   O21   A    
C12   O19   A    
C53   O10   S    
C24   C50   S    
C39   C61   A    
C50   O8    S    
C8    C19   A    
C48   O3    D    
C16   O20   A    
C43   N5    T    
C32   C35   S    
N3    Zn1   S    
C54   O13   S    
C36   C40   A    
C42   N4    T    
C4    H17   S    
C4    C6    A    
C30   H11   S    
H8    O13   S    
C10   C44   S    
C55   O14   D    
C11   N1    A    
C10   N3    A    
C7    C47   S    
C8    C48   S    
C12   O12   A    
C14   C20   A    
H10   O17   S    
C7    C18   A    
C39   C59   S    
C49   O5    D    
C58   N10   T    
H3    O2    S    
C22   C49   S    
C38   C60   A    
C57   O17   S    
H9    O15   S    
H5    O6    S    
C17   C31   S    
C53   O9    D    
C33   C51   S    
O22   Zn2   S    
C16   O22   A    
C46   N7    T    
C7    C9    A    
C13   N3    A    
C50   O7    D    
C5    C60   A    
C27   C32   S    
C40   H15   S    
C28   C31   S    
C3    C5    A    
C51   N8    T    
C16   C32   S    
C29   C35   S    
O18   Zn2   S    
C13   C15   A    
C2    C3    A    
C29   C31   S    
C2    C56   A    
C41   H14   S    
C30   C32   S    
C28   H13   S    
N1    Zn2   S    
C28   C30   S    
O1    Zn1   S    
C49   O6    S    
C37   C41   A    
H6    O8    S    
O12   Zn2   S    
O19   Zn1   S    
C1    O18   A    
H7    O10   S    
C15   C21   A    
C20   C21   A    
C8    C10   A    
C23   C36   A    
C35   C52   S    
C56   C61   A    
C3    H16   S    
O20   Zn1   S    
C2    C62   A    
C1    C36   S    
C9    N1    A    
O23   Zn1   S    
