data_mof_unit_58768.cif
_audit_creation_date              2012-12-10T19:42:14-0500
_audit_creation_method            fapswitch 2.2
_symmetry_space_group_name_H-M    P1
_symmetry_Int_Tables_number       1
_space_group_crystal_system       triclinic
_cell_length_a                    10.849191
_cell_length_b                    10.929514
_cell_length_c                    9.668719
_cell_angle_alpha                 90.003917
_cell_angle_beta                  90.114011
_cell_angle_gamma                 90.243625
_cell_volume                      1146.46910853

loop_
_atom_site_label
_atom_site_type_symbol
_atom_type_description
_atom_site_fract_x
_atom_site_fract_y
_atom_site_fract_z
_atom_type_partial_charge
C1    C     C_R   0.501796 0.265282 0.500076 0.860367
C2    C     C_R   0.235900 0.732761 0.050333 -0.117794
C3    C     C_R   0.933615 0.545338 0.391792 -0.239656
C4    C     C_R   0.870981 0.490533 0.501388 -0.134537
C5    C     C_R   0.936014 0.432927 0.609856 -0.080824
C6    C     C_R   0.064806 0.432079 0.606537 0.317695
C7    C     C_R   0.127841 0.494301 0.499285 -0.160413
C8    C     C_R   0.061088 0.549838 0.390158 -0.049275
C9    C     C_R   0.870826 0.425963 0.857927 -0.087384
C10   C     C_R   0.805403 0.371563 0.966326 -0.152558
C11   C     C_R   0.739885 0.262949 0.943811 -0.095072
C12   C     C_R   0.262129 0.498035 0.499804 0.847434
C13   C     C_R   0.740040 0.208342 0.812997 -0.118000
C14   C     C_R   0.805242 0.262510 0.704202 -0.094067
C15   C     C_R   0.870792 0.371928 0.726029 0.199932
C16   C     C_2   0.506801 0.933024 0.386730 -0.171122
C17   C     C_2   0.492094 0.866679 0.502092 -0.316834
C18   C     C_2   0.500814 0.066923 0.386307 -0.160331
C19   C     C_2   0.508639 0.133367 0.502455 -0.303470
C20   C     C_2   0.438518 0.420878 0.922072 -0.036834
C21   C     C_2   0.432175 0.426051 0.077716 -0.060616
C22   C     C_R   0.498515 0.734729 0.500070 0.841785
C23   C     C_R   0.737482 0.496455 0.500404 0.809523
C24   C     C_R   0.243492 0.782656 0.183259 -0.112299
C25   C     C_R   0.185936 0.723840 0.294360 -0.102067
C26   C     C_R   0.120451 0.614304 0.272793 0.139718
C27   C     C_R   0.111882 0.565494 0.138622 -0.146680
C28   C     C_R   0.169866 0.624447 0.027959 -0.129035
Cu1   Cu    Cu3+1 0.500020 0.500020 0.638630 0.966844
Cu2   Cu    Cu3+1 0.499980 0.499980 0.361370 0.942622
H1    H     H_    0.280977 0.778136 0.964622 0.128456
H2    H     H_    0.688797 0.221253 0.027653 0.124053
H3    H     H_    0.689143 0.124328 0.795762 0.115143
H4    H     H_    0.521765 0.888285 0.287861 0.162299
H5    H     H_    0.491710 0.111498 0.286380 0.159921
H6    H     H_    0.523148 0.092382 0.602967 0.139939
H7    H     H_    0.387891 0.348191 0.870782 0.200545
H8    H     H_    0.541559 0.571287 0.894258 0.189455
H9    H     H_    0.369306 0.363450 0.128969 0.161165
H10   H     H_    0.294029 0.866897 0.200171 0.127970
H11   H     H_    0.563464 0.552928 0.105955 0.187666
H12   H     H_    0.193024 0.762911 0.397046 0.107878
H13   H     H_    0.061679 0.481146 0.120243 0.141147
H14   H     H_    0.920280 0.510769 0.876067 0.117790
N1    N     N_2   0.498640 0.498660 0.846910 -0.282332
N2    N     N_2   0.498610 0.498630 0.153040 -0.284074
O1    O     O_R   0.500020 0.321960 0.617040 -0.567847
O2    O     O_R   0.499980 0.321920 0.382900 -0.585463
O3    O     O_R   0.319660 0.500030 0.617070 -0.533168
O4    O     O_R   0.319620 0.499990 0.382930 -0.572192
O5    O     O_R   0.500020 0.678080 0.617100 -0.590230
O6    O     O_R   0.499980 0.678040 0.382960 -0.574007
O7    O     O_R   0.680380 0.500010 0.617070 -0.575007
O8    O     O_R   0.680340 0.499970 0.382930 -0.590867
H15   H     H_    0.803740 0.220159 0.602917 0.106571
H16   H     H_    0.472527 0.907709 0.601443 0.147851
H17   H     H_    0.163983 0.585957 0.924973 0.170599
H18   H     H_    0.882755 0.589283 0.308900 0.160307
Cl1   Cl    Cl    0.144265 0.342507 0.731150 -0.682468
H19   H     H_    0.805002 0.413911 0.067567 0.131848

loop_
_geom_bond_atom_site_label_1
_geom_bond_atom_site_label_2
_ccdc_geom_bond_type
C25   H12   S    
C10   H19   S    
H11   N2    S    
C1    O2    A    
C13   H3    S    
Cu1   Cu2   S    
C8    C26   S    
C9    C10   A    
C12   O4    A    
C17   C22   S    
C21   H9    S    
C14   H15   S    
Cu2   O4    S    
C7    C8    A    
Cu1   O3    S    
C13   C14   A    
C24   C25   A    
C20   H7    S    
Cu2   O8    S    
C17   H16   S    
C26   C27   A    
C6    C7    A    
Cu1   O7    S    
Cu1   O1    S    
C4    C5    A    
C23   O7    A    
C22   O6    A    
C24   H10   S    
Cu1   O5    S    
C11   H2    S    
C12   O3    A    
C19   H6    S    
C3    C8    A    
C2    C24   A    
C5    C6    A    
C7    C12   S    
C5    C15   S    
C1    C19   S    
C10   C11   A    
C3    C4    A    
C3    H18   S    
C27   H13   S    
C11   C13   A    
C18   C19   D    
C20   C21   S    
C23   O8    A    
C16   C18   S    
C21   N2    D    
C18   H5    S    
Cu2   O2    S    
C27   C28   A    
C4    C23   S    
Cu2   O6    S    
C14   C15   A    
C2    H1    S    
H8    N1    S    
C2    C28   A    
C16   H4    S    
C25   C26   A    
C28   H17   S    
C6    Cl1   S    
Cu2   N2    S    
C22   O5    A    
C1    O1    A    
C20   N1    D    
C9    C15   A    
Cu1   N1    S    
C16   C17   D    
C9    H14   S    
