data_mof_unit_24485.cif
_audit_creation_date              2012-12-10T20:48:19-0500
_audit_creation_method            fapswitch 2.2
_symmetry_space_group_name_H-M    P1
_symmetry_Int_Tables_number       1
_space_group_crystal_system       triclinic
_cell_length_a                    10.630271
_cell_length_b                    8.926213
_cell_length_c                    8.099582
_cell_angle_alpha                 90.0
_cell_angle_beta                  90.297391
_cell_angle_gamma                 89.999951
_cell_volume                      768.543295959

loop_
_atom_site_label
_atom_site_type_symbol
_atom_type_description
_atom_site_fract_x
_atom_site_fract_y
_atom_site_fract_z
_atom_type_partial_charge
C1    C     C_R   0.500000 0.217961 0.500000 0.905904
C2    C     C_1   0.500001 0.934814 0.500000 -0.207245
C3    C     C_3   0.071650 0.630061 0.506048 -0.558622
C4    C     C_3   0.928351 0.630062 0.493963 -0.558627
C5    C     C_3   0.122233 0.466915 0.498332 0.084873
C6    C     C_3   0.877767 0.466916 0.501667 0.084874
C7    C     C_3   0.128964 0.221969 0.679153 -0.876449
C8    C     C_3   0.139575 0.251565 0.269864 -0.906115
C9    C     C_3   0.860424 0.251552 0.730117 -0.906129
C10   C     C_3   0.871035 0.221982 0.320825 -0.876444
C11   C     C_R   0.258464 0.481974 0.499408 0.870622
C12   C     C_R   0.741536 0.481975 0.500591 0.870622
C13   C     C_R   0.500000 0.782008 0.500000 0.954687
C14   C     C_1   0.500001 0.065213 0.500000 -0.199643
C15   C     C_3   0.074804 0.381751 0.656927 0.032343
C16   C     C_3   0.071241 0.394051 0.333429 0.050422
C17   C     C_3   0.928759 0.394041 0.666563 0.050422
C18   C     C_3   0.925196 0.381762 0.343064 0.032346
H1    H     H_    0.111440 0.444357 0.766297 0.146640
H2    H     H_    0.229295 0.216353 0.643042 0.238319
H3    H     H_    0.124224 0.189206 0.811272 0.232980
H4    H     H_    0.134278 0.155627 0.354815 0.248418
H5    H     H_    0.097956 0.216854 0.149799 0.235113
H6    H     H_    0.240275 0.272426 0.245048 0.262615
H7    H     H_    0.865717 0.155620 0.645159 0.248420
H8    H     H_    0.902042 0.216831 0.850177 0.235116
H9    H     H_    0.759725 0.272414 0.754937 0.262614
H10   H     H_    0.923815 0.137039 0.391907 0.248419
H11   H     H_    0.770703 0.216364 0.356933 0.238323
H12   H     H_    0.090571 0.477347 0.233920 0.144472
H13   H     H_    0.875777 0.189227 0.188703 0.232979
H14   H     H_    0.909430 0.477331 0.766079 0.144473
H15   H     H_    0.888561 0.444376 0.233699 0.146640
H16   H     H_    0.101053 0.684743 0.623763 0.197582
H17   H     H_    0.110551 0.699197 0.403716 0.196359
H18   H     H_    0.889450 0.699192 0.596301 0.196362
H19   H     H_    0.898947 0.684752 0.376252 0.197579
H20   H     H_    0.076182 0.137031 0.608066 0.248422
N1    N     N_1   0.500000 0.500030 0.073640 -0.040507
N2    N     N_1   0.500000 0.500030 0.926360 -0.040507
O1    O     O_R   0.500000 0.285340 0.636850 -0.624828
O2    O     O_R   0.500000 0.285340 0.363150 -0.624830
O3    O     O_R   0.314790 0.499970 0.636880 -0.629947
O4    O     O_R   0.314790 0.499970 0.363120 -0.633097
O5    O     O_R   0.685210 0.499970 0.636880 -0.633096
O6    O     O_R   0.685210 0.499970 0.363120 -0.629948
O7    O     O_R   0.500000 0.714650 0.636900 -0.609729
O8    O     O_R   0.500000 0.714650 0.363100 -0.609729
Zn1   Zn    Zn3+2 0.500000 0.499990 0.682780 0.963266
Zn2   Zn    Zn3+2 0.500000 0.499990 0.317220 0.963264

loop_
_geom_bond_atom_site_label_1
_geom_bond_atom_site_label_2
_ccdc_geom_bond_type
C13   O8    A    
C8    H4    S    
C4    H18   S    
C11   O3    A    
C3    H17   S    
O6    Zn2   S    
O5    Zn1   S    
C8    H5    S    
O8    Zn2   S    
C9    H7    S    
C11   O4    A    
O7    Zn1   S    
C16   C18   S    
C15   H1    S    
C2    C13   S    
C10   H11   S    
N2    Zn1   S    
C10   C18   S    
C6    C18   S    
C9    C17   S    
C8    H6    S    
C7    H20   S    
O2    Zn2   S    
C9    H8    S    
C5    C11   S    
C6    C12   S    
C2    C14   T    
C18   H15   S    
C5    C15   S    
C4    C6    S    
C17   H14   S    
C10   H10   S    
C3    C4    S    
C1    O2    A    
N1    Zn2   S    
C4    H19   S    
C9    H9    S    
C15   C17   S    
C7    H2    S    
C8    C16   S    
O1    Zn1   S    
N1    N2    T    
C13   O7    A    
C6    C17   S    
O3    Zn1   S    
C5    C16   S    
O4    Zn2   S    
C1    C14   S    
C3    H16   S    
C7    C15   S    
C7    H3    S    
C16   H12   S    
C10   H13   S    
C1    O1    A    
C12   O5    A    
C3    C5    S    
C12   O6    A    
