data_mof_unit_14097.cif
_audit_creation_date              2012-12-11T14:56:40-0500
_audit_creation_method            fapswitch 2.2
_symmetry_space_group_name_H-M    P1
_symmetry_Int_Tables_number       1
_space_group_crystal_system       triclinic
_cell_length_a                    10.522761
_cell_length_b                    10.666447
_cell_length_c                    17.064151
_cell_angle_alpha                 80.378564
_cell_angle_beta                  89.605008
_cell_angle_gamma                 119.172974
_cell_volume                      1640.10515001

loop_
_atom_site_label
_atom_site_type_symbol
_atom_type_description
_atom_site_fract_x
_atom_site_fract_y
_atom_site_fract_z
_atom_type_partial_charge
C1    C     C_R   0.278849 0.888783 0.132672 0.558750
C2    C     C_R   0.798601 0.422339 0.262800 -0.126944
C3    C     C_R   0.788503 0.409733 0.184017 -0.129251
C4    C     C_R   0.650856 0.342392 0.156547 0.027350
C5    C     C_1   0.685029 0.831603 0.201667 -0.027926
C6    C     C_1   0.703642 0.807483 0.270345 -0.031287
C7    C     C_1   0.227708 0.854142 0.215420 -0.042222
C8    C     C_1   0.179053 0.834569 0.283078 -0.044319
C9    C     C_1   0.661929 0.357958 0.780513 -0.038112
C10   C     C_1   0.684278 0.401981 0.709944 -0.039560
C11   C     C_R   0.626120 0.713806 0.804677 -0.162236
C12   C     C_R   0.636253 0.280517 0.086088 0.538672
C13   C     C_R   0.611663 0.698675 0.726402 -0.203393
C14   C     C_R   0.668992 0.823092 0.665188 0.036273
C15   C     C_R   0.746525 0.963481 0.682639 0.355650
C16   C     C_R   0.757535 0.978729 0.761690 -0.105304
C17   C     C_R   0.691231 0.853537 0.822743 -0.036852
C18   C     C_R   0.082724 0.883074 0.790537 -0.134983
C19   C     C_R   0.066120 0.879667 0.711028 -0.125778
C20   C     C_R   0.114561 0.802177 0.672004 0.031185
C21   C     C_R   0.167079 0.716755 0.714776 -0.131734
C22   C     C_R   0.185365 0.721393 0.794733 -0.123563
C23   C     C_R   0.643389 0.855717 0.124253 0.545407
C24   C     C_R   0.150620 0.811445 0.831283 0.025721
C25   C     C_R   0.711413 0.772677 0.353452 0.556130
C26   C     C_R   0.689237 0.396004 0.394640 0.558371
C27   C     C_R   0.108393 0.812533 0.359947 0.542228
C28   C     C_R   0.677155 0.800514 0.585259 0.585867
C29   C     C_R   0.717125 0.446179 0.625988 0.555294
C30   C     C_R   0.089870 0.798604 0.589441 0.539283
C31   C     C_R   0.216442 0.858074 0.902414 0.557656
C32   C     C_R   0.640363 0.290730 0.861909 0.550485
C33   C     C_R   0.647990 0.866849 0.899629 0.549518
C34   C     C_R   0.524346 0.303308 0.205893 -0.129513
C35   C     C_R   0.534833 0.317844 0.285073 -0.134093
C36   C     C_R   0.671338 0.370803 0.314342 0.028827
Cr1   Cr    Cr6+3 0.402240 0.783890 0.019450 1.025586
Cr2   Cr    Cr6+3 0.382360 0.097900 0.991800 1.022563
Cr3   Cr    Cr6+3 0.715380 0.118170 0.988700 1.027567
Cr4   Cr    Cr6+3 0.936650 0.882420 0.465510 1.064562
Cr5   Cr    Cr6+3 0.605770 0.565620 0.493360 1.036106
Cr6   Cr    Cr6+3 0.921340 0.550490 0.496380 1.067831
H1    H     H_    0.416643 0.251732 0.185247 0.142992
H2    H     H_    0.016744 0.939492 0.679878 0.161307
H3    H     H_    0.198570 0.651559 0.685856 0.137275
H4    H     H_    0.236899 0.663757 0.825842 0.144825
H5    H     H_    0.437032 0.284073 0.323747 0.138288
H6    H     H_    0.906562 0.472354 0.283320 0.146507
H7    H     H_    0.887214 0.443128 0.146212 0.142220
H8    H     H_    0.575718 0.616318 0.851307 0.146335
H9    H     H_    0.557774 0.589120 0.713794 0.146000
H10   H     H_    0.807685 0.087817 0.774909 0.165019
H11   H     H_    0.052281 0.950134 0.818388 0.136364
O1    O     O_R   0.521780 0.757110 0.108900 -0.513589
O2    O     O_R   0.513330 0.228330 0.898660 -0.495109
O3    O     O_R   0.739230 0.266130 0.888050 -0.509359
O4    O     O_R   0.712580 0.991850 0.918770 -0.505674
O5    O     O_3   0.499990 0.999980 0.999980 -0.265510
O6    O     O_R   0.083770 0.911170 0.376030 -0.511154
O7    O     O_R   0.808770 0.880340 0.383890 -0.479567
O8    O     O_R   0.584340 0.689460 0.394160 -0.496562
O9    O     O_R   0.614320 0.443940 0.423590 -0.512506
O10   O     O_R   0.805020 0.410040 0.421340 -0.494428
O11   O     O_R   0.049240 0.685450 0.403290 -0.501436
O12   O     O_R   0.275160 0.783810 0.101120 -0.492785
O13   O     O_R   0.077520 0.903010 0.551800 -0.509341
O14   O     O_R   0.802980 0.872780 0.546830 -0.454782
O15   O     O_R   0.578090 0.681300 0.569920 -0.533881
O16   O     O_R   0.608530 0.436370 0.586530 -0.490883
O17   O     O_R   0.798770 0.401880 0.597100 -0.440445
O18   O     O_R   0.043450 0.677890 0.566230 -0.517764
O19   O     O_3   0.821250 0.666180 0.485090 -0.320315
O20   O     O_R   0.237900 0.972600 0.090980 -0.510389
O21   O     O_R   0.511190 0.220540 0.061620 -0.524916
O22   O     O_R   0.736920 0.257720 0.063840 -0.514559
O23   O     O_R   0.710450 0.984050 0.081720 -0.493466
O24   O     O_R   0.524090 0.765520 0.933110 -0.515351
O25   O     O_R   0.277300 0.791600 0.938160 -0.502782
O26   O     O_R   0.240210 0.981010 0.915190 -0.510561
F1    F     F_    0.808339 0.084577 0.623567 -0.609832

loop_
_geom_bond_atom_site_label_1
_geom_bond_atom_site_label_2
_ccdc_geom_bond_type
Cr4   O7    S    
C12   O21   A    
C19   C20   A    
Cr5   O8    S    
C23   O23   A    
C35   H5    S    
C30   O18   A    
C3    H7    S    
C7    C8    T    
C20   C30   S    
C23   O1    A    
C18   C24   A    
C28   O15   A    
C18   C19   A    
C5    C6    T    
C6    C25   S    
Cr2   O26   S    
C15   C16   A    
Cr3   O4    S    
Cr6   O17   S    
C34   C35   A    
C9    C32   S    
C13   H9    S    
Cr2   O2    S    
C15   F1    S    
C16   C17   A    
Cr4   O14   S    
Cr1   O12   S    
C1    O12   A    
C25   O7    A    
Cr3   O22   S    
C4    C12   S    
C9    C10   T    
C32   O2    A    
C29   O16   A    
Cr1   O5    S    
C18   H11   S    
Cr4   O6    S    
Cr2   O5    S    
C21   C22   A    
C17   C33   S    
Cr5   O9    S    
Cr5   O15   S    
C21   H3    S    
C4    C34   A    
C28   O14   A    
C2    H6    S    
Cr3   O5    S    
Cr1   O24   S    
C35   C36   A    
C26   O10   A    
Cr3   O3    S    
C5    C23   S    
Cr6   O19   S    
C25   O8    A    
Cr3   O23   S    
C30   O13   A    
Cr5   O19   S    
Cr1   O1    S    
C26   C36   S    
C22   H4    S    
C22   C24   A    
C3    C4    A    
Cr6   O11   S    
C19   H2    S    
C31   O25   A    
Cr5   O16   S    
C29   O17   A    
Cr2   O21   S    
C2    C36   A    
C11   C17   A    
C33   O4    A    
Cr4   O19   S    
C1    C7    S    
C34   H1    S    
C16   H10   S    
C31   O26   A    
Cr1   O25   S    
C1    O20   A    
C2    C3    A    
C26   O9    A    
C24   C31   S    
C11   H8    S    
C27   O6    A    
C11   C13   A    
C10   C29   S    
C33   O24   A    
Cr6   O18   S    
C27   O11   A    
C20   C21   A    
C12   O22   A    
C8    C27   S    
C14   C15   A    
Cr4   O13   S    
C14   C28   S    
C13   C14   A    
Cr6   O10   S    
C32   O3    A    
Cr2   O20   S    
