data_mof_unit_61674.cif
_audit_creation_date              2012-12-10T20:43:41-0500
_audit_creation_method            fapswitch 2.2
_symmetry_space_group_name_H-M    P1
_symmetry_Int_Tables_number       1
_space_group_crystal_system       triclinic
_cell_length_a                    10.836801
_cell_length_b                    19.216735
_cell_length_c                    19.209103
_cell_angle_alpha                 94.834479
_cell_angle_beta                  92.332686
_cell_angle_gamma                 97.212189
_cell_volume                      3949.16245534

loop_
_atom_site_label
_atom_site_type_symbol
_atom_type_description
_atom_site_fract_x
_atom_site_fract_y
_atom_site_fract_z
_atom_type_partial_charge
C1    C     C_R   0.514202 0.690189 0.508328 0.811417
C2    C     C_R   0.524716 0.767445 0.512364 -0.019452
C3    C     C_R   0.633538 0.806317 0.491886 -0.245703
C4    C     C_R   0.484957 0.309479 0.492180 0.820341
C5    C     C_R   0.645677 0.880108 0.493932 -0.061722
C6    C     C_R   0.499004 0.516578 0.766347 -0.106160
C7    C     C_R   0.539421 0.461385 0.801056 -0.228410
C8    C     C_R   0.560435 0.467155 0.873694 -0.033448
C9    C     C_R   0.533277 0.528559 0.913113 0.250113
C10   C     C_R   0.493511 0.583770 0.878950 -0.207527
C11   C     C_R   0.477895 0.579253 0.805910 -0.160728
C12   C     C_R   0.575312 0.202443 0.517433 -0.192787
C13   C     C_R   0.570574 0.542611 0.128193 -0.154818
C14   C     C_R   0.578410 0.543566 0.200772 -0.200556
C15   C     C_R   0.494762 0.487796 0.086960 0.282549
C16   C     C_R   0.512158 0.492698 0.310676 0.831803
C17   C     C_R   0.510473 0.490291 0.233890 -0.036728
C18   C     C_R   0.436360 0.435192 0.193332 -0.232555
C19   C     C_R   0.428130 0.432827 0.120066 -0.073651
C20   C     C_R   0.489735 0.508244 0.689120 0.786541
C21   C     C_R   0.835188 0.516474 0.516017 0.936894
C22   C     C_R   0.163310 0.483495 0.485625 0.830515
C23   C     C_R   0.568074 0.130638 0.522796 -0.131606
C24   C     C_2   0.026929 0.473202 0.481120 -0.207721
C25   C     C_2   0.968525 0.520688 0.517818 -0.384739
C26   C     C_R   0.472955 0.231982 0.491783 -0.096428
C27   C     C_2   0.958795 0.411012 0.437122 0.950385
C28   C     C_2   0.445746 0.642416 0.773350 1.002581
C29   C     C_2   0.615839 0.409748 0.905930 0.976816
C30   C     C_2   0.349186 0.372309 0.079611 0.947638
C31   C     C_2   0.234673 0.066346 0.456512 0.949459
C32   C     C_2   0.248355 0.218295 0.447994 1.011861
C33   C     C_2   0.764282 0.918997 0.472571 0.940032
C34   C     C_R   0.457352 0.085604 0.502602 0.254156
C35   C     C_R   0.352115 0.114169 0.477224 -0.118330
C36   C     C_R   0.360159 0.187724 0.471125 -0.135240
C37   C     C_R   0.436289 0.875619 0.537294 -0.150836
C38   C     C_R   0.427192 0.802672 0.536288 -0.179986
C39   C     C_R   0.544089 0.915033 0.514970 0.253930
H1    H     H_    0.662057 0.235291 0.533800 0.188293
H2    H     H_    0.805475 0.368568 0.377597 0.341626
H3    H     H_    0.623609 0.585215 0.104597 0.170921
H4    H     H_    0.596930 0.649850 0.714806 0.283145
H5    H     H_    0.638631 0.306809 0.899766 0.362798
H6    H     H_    0.301915 0.315752 0.986798 0.363255
H7    H     H_    0.115579 0.981932 0.477031 0.361947
H8    H     H_    0.156885 0.257740 0.369943 0.380673
H9    H     H_    0.649796 0.110509 0.543290 0.199300
H10   H     H_    0.873360 0.011803 0.468884 0.364408
H11   H     H_    0.636103 0.586658 0.230999 0.179229
H12   H     H_    0.476265 0.631158 0.909786 0.174461
H13   H     H_    0.384922 0.393486 0.219044 0.216723
H14   H     H_    0.558796 0.414104 0.770851 0.209292
H15   H     H_    0.019939 0.566548 0.547613 0.169118
H16   H     H_    0.342839 0.773723 0.552930 0.181113
H17   H     H_    0.358572 0.901278 0.555398 0.195592
H18   H     H_    0.709998 0.778842 0.474935 0.205148
N1    N     N_2   0.449460 0.011424 0.506004 -0.138452
N2    N     N_2   0.552136 0.989151 0.512795 -0.129879
N3    N     N_2   0.544507 0.536124 0.987053 -0.169192
N4    N     N_2   0.483737 0.486015 0.012797 -0.105156
O1    O     O_3   0.500000 0.500000 0.500000 -0.503827
O2    O     O_R   0.783160 0.551820 0.473170 -0.611632
O3    O     O_R   0.222430 0.530340 0.530340 -0.638450
O4    O     O_R   0.771990 0.472690 0.551320 -0.625561
O5    O     O_R   0.222420 0.445150 0.445160 -0.609543
O6    O     O_2   0.006869 0.356930 0.427845 -0.588836
O7    O     O_R   0.841096 0.414202 0.405721 -0.806975
O8    O     O_2   0.355706 0.669828 0.792482 -0.554506
O9    O     O_R   0.519194 0.673058 0.723010 -0.747126
O10   O     O_2   0.681829 0.422403 0.959823 -0.592216
O11   O     O_R   0.595523 0.341155 0.873251 -0.785695
O12   O     O_R   0.435070 0.449940 0.339290 -0.637312
O13   O     O_2   0.274659 0.333613 0.109639 -0.594112
O14   O     O_R   0.360361 0.358444 0.007638 -0.771767
O15   O     O_2   0.171966 0.075197 0.404381 -0.582534
O16   O     O_R   0.196228 0.010787 0.496514 -0.783129
O17   O     O_2   0.165023 0.224846 0.488121 -0.593769
O18   O     O_R   0.237695 0.238098 0.379873 -0.724484
O19   O     O_2   0.841275 0.886661 0.443808 -0.618958
O20   O     O_R   0.789718 0.992208 0.485827 -0.782230
O21   O     O_R   0.419380 0.543640 0.654290 -0.617285
O22   O     O_R   0.586230 0.658380 0.469080 -0.655025
O23   O     O_R   0.559310 0.348040 0.537340 -0.632020
O24   O     O_R   0.435110 0.654980 0.544320 -0.617425
O25   O     O_R   0.419350 0.338590 0.449260 -0.611813
O26   O     O_R   0.586210 0.538520 0.349230 -0.630373
O27   O     O_R   0.559330 0.467910 0.657200 -0.642975
Zn1   Zn    Zn3+2 0.396020 0.434560 0.434560 1.046097
Zn2   Zn    Zn3+2 0.611960 0.561120 0.448760 1.009790
Zn3   Zn    Zn3+2 0.595990 0.448060 0.560420 1.010326
Zn4   Zn    Zn3+2 0.396040 0.556260 0.556260 1.011106

loop_
_geom_bond_atom_site_label_1
_geom_bond_atom_site_label_2
_ccdc_geom_bond_type
C20   O21   A    
C28   O8    D    
C24   C27   S    
H8    O18   S    
C18   H13   S    
C7    C8    A    
C15   C19   A    
C12   C23   A    
C8    C29   S    
C32   C36   S    
C34   C35   A    
C30   O13   D    
C4    O25   A    
O1    Zn1   S    
O1    Zn2   S    
O21   Zn4   S    
C1    C2    S    
H10   O20   S    
C22   O5    A    
C27   O7    S    
C37   H17   S    
C38   H16   S    
C35   C36   A    
C5    C33   S    
C16   C17   S    
O1    Zn4   S    
C16   O26   A    
O23   Zn3   S    
H2    O7    S    
C9    C10   A    
C29   O11   S    
C13   C14   A    
C14   C17   A    
C10   H12   S    
C13   H3    S    
O24   Zn4   S    
C31   O16   S    
O5    Zn1   S    
C1    O24   A    
C16   O12   A    
C25   H15   S    
C6    C11   A    
C8    C9    A    
N1    N2    D    
C32   O17   D    
C12   C26   A    
N3    N4    D    
C12   H1    S    
C37   C38   A    
C2    C38   A    
C4    O23   A    
O27   Zn3   S    
C23   C34   A    
C39   N2    S    
O1    Zn3   S    
C17   C18   A    
C15   N4    S    
C24   C25   D    
C3    H18   S    
C26   C36   A    
H4    O9    S    
C5    C39   A    
C22   C24   S    
C7    H14   S    
O4    Zn3   S    
O22   Zn2   S    
C21   C25   S    
C23   H9    S    
C21   O4    A    
C28   O9    S    
C3    C5    A    
O25   Zn1   S    
H7    O16   S    
C4    C26   S    
C33   O19   D    
C6    C7    A    
C1    O22   A    
C6    C20   S    
H6    O14   S    
C9    N3    S    
C13   C15   A    
C2    C3    A    
O12   Zn1   S    
C37   C39   A    
C32   O18   S    
C30   O14   S    
C31   O15   D    
C14   H11   S    
C11   C28   S    
C20   O27   A    
O2    Zn2   S    
H5    O11   S    
C31   C35   S    
C21   O2    A    
C27   O6    D    
C10   C11   A    
C22   O3    A    
O26   Zn2   S    
C34   N1    S    
C18   C19   A    
O3    Zn4   S    
C19   C30   S    
C33   O20   S    
C29   O10   D    
