data_mof_unit_66618.cif
_audit_creation_date              2013-03-05T15:41:44-0500
_audit_creation_method            fapswitch 2.2
_symmetry_space_group_name_H-M    P1
_symmetry_Int_Tables_number       1
_space_group_crystal_system       triclinic
_cell_length_a                    8.299109
_cell_length_b                    14.985446
_cell_length_c                    15.255841
_cell_angle_alpha                 97.538957
_cell_angle_beta                  99.777181
_cell_angle_gamma                 98.101217
_cell_volume                      1827.53977214

loop_
_atom_site_label
_atom_site_type_symbol
_atom_site_description
_atom_site_fract_x
_atom_site_fract_y
_atom_site_fract_z
_atom_type_partial_charge
P1    P     P_3+3 0.004200 0.709230 0.580350 0.407759
O1    O     O_2   0.174080 0.723060 0.553930 -0.397572
O2    O     O_3   0.901570 0.609580 0.550840 -0.425689
O3    O     O_3   0.370350 0.665080 0.388270 -0.397996
O4    O     O_2   0.279788 0.821224 0.440566 -0.385733
O5    O     O_3   0.046849 0.717942 0.698403 -0.583782
O6    O     O_3   0.356368 0.799787 0.281021 -0.569379
H1    H     H_    0.275215 0.662459 0.228526 0.159120
C1    C     C_3   0.340066 0.735889 0.125468 -1.026747
H2    H     H_    0.419793 0.798693 0.116654 0.268664
P2    P     P_3+3 0.305000 0.425570 0.290900 0.486104
P3    P     P_3+3 0.885157 0.610928 0.223810 0.447537
O7    O     O_2   0.134790 0.452800 0.278150 -0.371344
O8    O     O_3   0.937650 0.618620 0.340860 -0.376286
O9    O     O_2   0.980469 0.539971 0.182926 -0.405692
O10   O     O_3   0.258525 0.306283 0.263690 -0.551795
O11   O     O_3   0.960929 0.708790 0.180689 -0.579100
C2    C     C_3   0.932582 0.791070 0.227245 1.169161
H3    H     H_    0.979347 0.795562 0.300884 0.022180
C3    C     C_3   0.032463 0.869867 0.192162 -1.079066
H4    H     H_    0.159261 0.859514 0.188643 0.289080
C4    C     C_3   0.723586 0.341871 0.265019 0.287532
H5    H     H_    0.631396 0.374356 0.296806 0.098331
H6    H     H_    0.840061 0.391433 0.275297 0.088273
C5    C     C_3   0.657292 0.313874 0.163877 0.115743
H7    H     H_    0.672736 0.375295 0.131058 0.078545
H8    H     H_    0.733798 0.267121 0.133666 0.083507
Ba1   Ba    Ba6+2 0.154730 0.543770 0.458180 1.548062
C6    C     C_3   0.165036 0.795282 0.738198 0.327382
H9    H     H_    0.111097 0.858409 0.732028 0.048704
H10   H     H_    0.278078 0.796696 0.708638 0.136398
C7    C     C_3   0.218627 0.790039 0.837330 -0.936491
C8    C     C_3   0.224536 0.268852 0.339398 0.273953
H11   H     H_    0.119435 0.296047 0.363015 0.096926
H12   H     H_    0.334855 0.285716 0.394668 0.095235
C9    C     C_3   0.182126 0.164630 0.315092 0.074998
H13   H     H_    0.210076 0.134908 0.377635 0.084179
H14   H     H_    0.264744 0.137781 0.271310 0.088772
P4    P     P_3+3 0.806080 0.290760 0.419570 0.474123
O12   O     O_2   0.636200 0.276890 0.446040 -0.375910
O13   O     O_3   0.908720 0.390410 0.449080 -0.436936
O14   O     O_3   0.439930 0.334910 0.611650 -0.323436
O15   O     O_3   0.754290 0.264038 0.302016 -0.567146
P5    P     P_3+3 0.917573 0.382317 0.777774 0.523609
O16   O     O_3   0.402060 0.547860 0.609750 -0.371696
O17   O     O_3   0.872630 0.381370 0.659060 -0.357341
O18   O     O_2   0.805853 0.445133 0.816807 -0.332962
O19   O     O_3   0.831804 0.274982 0.800002 -0.512832
Ba2   Ba    Ba6+2 0.655430 0.456220 0.541750 1.586606
P6    P     P_3+3 0.409969 0.781923 0.392553 0.422776
C10   C     C_3   0.369684 0.720847 0.223252 0.472477
H15   H     H_    0.368592 0.676647 0.083613 0.233991
O20   O     O_3   0.408220 0.452130 0.390170 -0.407368
C11   C     C_3   0.611178 0.734651 0.681756 0.222394
C12   C     C_3   0.629501 0.839354 0.697619 0.159710
H16   H     H_    0.516734 0.859025 0.659998 0.072875
P7    P     P_3+3 0.502843 0.578855 0.723373 0.534780
O21   O     O_2   0.675490 0.547140 0.721820 -0.324642
O22   O     O_3   0.539147 0.698210 0.748993 -0.552564
H17   H     H_    0.045005 0.935784 0.237463 0.235024
C13   C     C_3   0.954165 0.232002 0.845706 0.513030
H18   H     H_    0.062786 0.237843 0.811699 0.166777
C14   C     C_3   0.884510 0.127869 0.838239 0.962331
H19   H     H_    0.985026 0.089920 0.824128 -0.177354
P8    P     P_3+3 0.395054 0.216649 0.600677 0.477282
C15   C     C_3   0.388248 0.208024 0.768702 0.541266
O23   O     O_2   0.499896 0.177409 0.535702 -0.408750
O24   O     O_3   0.483780 0.188278 0.703241 -0.448503
H20   H     H_    0.473712 0.245647 0.830497 0.081633
H21   H     H_    0.185643 0.094555 0.741687 0.245246
C16   C     C_3   0.304039 0.118674 0.790048 -1.197783
H22   H     H_    0.383267 0.065189 0.784375 0.313792
C17   C     C_R   0.172873 0.171239 0.554802 0.127057
C18   C     C_R   0.105086 0.077726 0.544400 -0.019561
C19   C     C_R   0.962685 0.890759 0.534153 -0.025106
C20   C     C_R   0.130207 0.923850 0.572102 -0.132785
C21   C     C_R   0.200450 0.014209 0.575470 -0.185951
C22   C     C_R   0.890616 0.797257 0.529434 0.208774
H23   H     H_    0.212636 0.880990 0.598654 0.140883
C23   C     C_R   0.725243 0.768870 0.485194 -0.500845
C24   C     C_R   0.912626 0.203582 0.473862 0.300424
C25   C     C_R   0.841806 0.109273 0.464020 0.004979
C26   C     C_R   0.937191 0.046920 0.502197 -0.000050
C27   C     C_R   0.678589 0.075091 0.418281 -0.083047
C28   C     C_R   0.605622 0.985163 0.417654 -0.240189
C29   C     C_R   0.696827 0.922824 0.456094 -0.036765
C30   C     C_R   0.865415 0.953286 0.497429 0.010530
C31   C     C_R   0.627130 0.829860 0.449816 0.196407
C32   C     C_R   0.074184 0.232820 0.522684 -0.506327
H24   H     H_    0.477700 0.964610 0.383908 0.182351
H25   H     H_    0.128177 0.304118 0.530405 0.198193
C33   C     C_R   0.240936 0.466578 0.770652 0.167881
C34   C     C_R   0.138659 0.435692 0.828187 0.068141
C35   C     C_R   0.198715 0.456159 0.921381 -0.374395
C36   C     C_R   0.363709 0.501761 0.957873 -0.091344
C37   C     C_R   0.455344 0.542192 0.896634 0.426239
C38   C     C_R   0.394241 0.522081 0.803641 0.062472
C39   C     C_R   0.604992 0.541362 0.091865 -0.261453
C40   C     C_R   0.667351 0.561856 0.183716 0.257279
C41   C     C_R   0.411197 0.485584 0.212751 0.341102
C42   C     C_R   0.340115 0.476900 0.120677 -0.248135
C43   C     C_R   0.435412 0.507775 0.057672 0.106285
C44   C     C_R   0.570662 0.534324 0.244469 -0.556823
H26   H     H_    0.694940 0.549036 0.049445 0.219861
H27   H     H_    0.113653 0.436918 0.963963 0.233438
H28   H     H_    0.623980 0.544558 0.315602 0.179995
O25   O     O_3   0.485882 0.278438 0.148083 -0.581512
C45   C     C_3   0.457079 0.182713 0.124041 -0.178071
H29   H     H_    0.470704 0.163892 0.053312 0.099328
H30   H     H_    0.327028 0.156512 0.127362 0.144623
H31   H     H_    0.538666 0.149288 0.170585 0.151037
H32   H     H_    0.116688 0.799263 0.874247 0.232026
H33   H     H_    0.327389 0.843767 0.867837 0.247202
H34   H     H_    0.252276 0.721874 0.843567 0.250619
H35   H     H_    0.208408 0.739707 0.100499 0.288342
O26   O     O_3   0.011085 0.136112 0.279122 -0.601462
C46   C     C_3   0.980663 0.126759 0.184370 -0.081866
H36   H     H_    0.014271 0.193135 0.161528 0.164707
H37   H     H_    0.846036 0.103133 0.159260 0.128732
H38   H     H_    0.046682 0.074411 0.154404 0.108769
H39   H     H_    0.495667 0.703471 0.239969 0.104476
H40   H     H_    0.735664 0.715648 0.683489 0.096038
H41   H     H_    0.533615 0.708969 0.613806 0.061009
O27   O     O_3   0.645063 0.875971 0.789611 -0.561660
C47   C     C_3   0.808543 0.879479 0.835880 -0.071406
H42   H     H_    0.840178 0.809883 0.834974 0.124485
H43   H     H_    0.817596 0.909571 0.907308 0.153252
H44   H     H_    0.899569 0.923388 0.807624 0.119474
H45   H     H_    0.733642 0.869829 0.667930 0.004209
O28   O     O_3   0.997577 0.273777 0.937358 -0.613475
C48   C     C_3   0.151475 0.253907 0.978564 -0.344658
H46   H     H_    0.177918 0.285660 0.050320 0.233402
H47   H     H_    0.254250 0.282472 0.946911 0.137780
H48   H     H_    0.148641 0.179574 0.977621 0.159492
O29   O     O_3   0.741020 0.097704 0.769486 -0.600287
C49   C     C_3   0.785547 0.080999 0.684417 -0.134221
H49   H     H_    0.864274 0.026952 0.681865 0.083956
H50   H     H_    0.849759 0.144427 0.666616 0.114572
H51   H     H_    0.670998 0.056230 0.632893 0.196127
O30   O     O_3   0.854798 0.104007 0.921804 -0.656070
C50   C     C_3   0.704431 0.126384 0.941637 -0.077641
H52   H     H_    0.684847 0.195428 0.927694 0.160223
H53   H     H_    0.708966 0.126179 0.014490 0.093399
H54   H     H_    0.599340 0.073248 0.904863 0.168853
H55   H     H_    0.295717 0.252821 0.750435 -0.020911
H56   H     H_    0.279886 0.128449 0.859505 0.223210
H57   H     H_    0.330678 0.033630 0.604841 0.185088
H58   H     H_    0.603258 0.117348 0.383331 0.163779
H59   H     H_    0.670907 0.697869 0.479450 0.183715
H60   H     H_    0.212846 0.444084 0.100495 0.156946
O31   O     O_3   0.760183 0.794969 0.209943 -0.671993
C51   C     C_3   0.729600 0.883649 0.239318 -0.376412
H61   H     H_    0.739804 0.926888 0.186052 0.182596
H62   H     H_    0.813778 0.917338 0.303204 0.168688
H63   H     H_    0.602130 0.880096 0.250668 0.224531
O32   O     O_3   0.605402 0.600830 0.924266 -0.603047
C52   C     C_3   0.581270 0.689277 0.958631 -0.163946
H64   H     H_    0.639733 0.706409 0.030991 0.184745
H65   H     H_    0.449839 0.698964 0.951077 0.106630
H66   H     H_    0.645636 0.739406 0.923619 0.195780
O33   O     O_3   0.182890 0.450191 0.680116 -0.650209
C53   C     C_3   0.095886 0.520845 0.659305 0.189018
H67   H     H_    0.177651 0.585645 0.661385 0.123689
H68   H     H_    0.007750 0.536980 0.704211 0.108626
H69   H     H_    0.025055 0.495488 0.591356 0.216775
H70   H     H_    0.970758 0.875994 0.123147 0.245414

loop_
_geom_bond_atom_site_label_1
_geom_bond_atom_site_label_2
_geom_bond_distance
_ccdc_geom_bond_type
C33   O33   1.360795 S    
C15   O24   1.403898 S    
C11   H41   1.111725 S    
C35   H27   1.072864 S    
C52   H64   1.108396 S    
C17   C18   1.412279 A    
C42   H60   1.075011 S    
C26   C30   1.432444 A    
C36   C37   1.441595 A    
C1    C10   1.521820 S    
C20   H23   1.068913 S    
C18   C26   1.416038 A    
C12   H16   1.109891 S    
C48   H48   1.108983 S    
O33   C53   1.403208 S    
O2    Ba2   2.823228 S    
O29   C49   1.409687 S    
P4    O13   1.578940 S    
C28   C29   1.407755 A    
O26   C46   1.409204 S    
O17   Ba2   2.776907 S    
O16   P7    1.762626 S    
C34   C35   1.402026 A    
C9    H13   1.108169 S    
C2    H3    1.114429 S    
C6    C7    1.517811 S    
C46   H37   1.108141 S    
C29   C31   1.415466 A    
P7    O22   1.751354 S    
C15   H20   1.109245 S    
O12   Ba2   2.854754 S    
Ba1   O13   2.822556 S    
C8    C9    1.532775 S    
P8    C17   1.853633 S    
C45   H29   1.107795 S    
P1    O1    1.525011 D    
C14   O30   1.419673 S    
C13   C14   1.568107 S    
C41   C42   1.409607 A    
P3    C40   1.820470 S    
P5    C34   1.882417 S    
C11   C12   1.537578 S    
C27   C28   1.395532 A    
C4    O15   1.396981 S    
C45   H30   1.107243 S    
P8    O23   1.539342 D    
C4    C5    1.528516 S    
P3    O11   1.764245 S    
C47   H44   1.111028 S    
O25   C45   1.408870 S    
P3    O9    1.541426 D    
O7    Ba1   2.868569 S    
H21   C16   1.106407 S    
C7    H33   1.110754 S    
C32   H25   1.081810 S    
C1    H2    1.108846 S    
C21   H57   1.079910 S    
C2    C3    1.551947 S    
P2    O20   1.578262 S    
C36   C43   1.523640 S    
P6    C31   1.860918 S    
C24   C32   1.397875 A    
C11   H40   1.106682 S    
C52   H65   1.109251 S    
P1    C22   1.898071 S    
C35   C36   1.424590 A    
C1    H15   1.101690 S    
C49   H51   1.108858 S    
O13   Ba2   2.935609 S    
O3    Ba1   2.807927 S    
P5    O17   1.783725 S    
C33   C38   1.392204 A    
C24   C25   1.430234 A    
C53   H68   1.113277 S    
C11   O22   1.403929 S    
C27   H58   1.078482 S    
C23   H59   1.081650 S    
Ba1   O16   2.806991 S    
P1    O5    1.759168 S    
C1    H35   1.106450 S    
C42   C43   1.426602 A    
O30   C50   1.407415 S    
P4    C24   1.880250 S    
C49   H50   1.111437 S    
C40   C44   1.390243 A    
C46   H38   1.112055 S    
P4    O12   1.525371 D    
C29   C30   1.417182 A    
P4    O15   1.750021 S    
C12   H45   1.112052 S    
C5    H7    1.106231 S    
C39   C43   1.410048 A    
C18   C21   1.400117 A    
C41   C44   1.391536 A    
Ba2   O21   2.868680 S    
O3    P6    1.725858 S    
P2    C41   1.849814 S    
P1    O2    1.578913 S    
C14   O29   1.422053 S    
C19   C20   1.403905 A    
C6    H9    1.110204 S    
O10   C8    1.401511 S    
O14   P8    1.738494 S    
C53   H69   1.091428 S    
Ba1   Ba2   4.606332 S    
C15   C16   1.521590 S    
C51   H63   1.095769 S    
O16   Ba2   2.926518 S    
O31   C51   1.417281 S    
P8    O24   1.744344 S    
P7    C38   1.862207 S    
C37   C38   1.400383 A    
C16   H56   1.106413 S    
O11   C2    1.410256 S    
P1    Ba1   3.410793 S    
C20   C21   1.387470 A    
Ba1   O20   2.927422 S    
H1    C10   1.110528 S    
C13   O28   1.418595 S    
C19   C30   1.428569 A    
P4    Ba2   3.411431 S    
P3    O8    1.749112 S    
C39   C40   1.386247 A    
C52   H66   1.106376 S    
C25   C27   1.404898 A    
C47   H42   1.109705 S    
C10   H39   1.108878 S    
C4    H6    1.107340 S    
O4    P6    1.544513 D    
C50   H54   1.109196 S    
C3    H17   1.109802 S    
C48   H46   1.106906 S    
C9    O26   1.414795 S    
C5    O25   1.414500 S    
C47   H43   1.109113 S    
C53   H67   1.096950 S    
C12   O27   1.415536 S    
O32   C52   1.414164 S    
C7    H32   1.107421 S    
O6    P6    1.749491 S    
C51   H62   1.110421 S    
C49   H49   1.110800 S    
C48   H47   1.111373 S    
C28   H24   1.080553 S    
P5    O18   1.544924 D    
C5    H8    1.116441 S    
C2    O31   1.421089 S    
C3    H70   1.111184 S    
C45   H31   1.113183 S    
C7    H34   1.107842 S    
C50   H53   1.106085 S    
O28   C48   1.413767 S    
C17   C32   1.399238 A    
C16   H22   1.109904 S    
C6    H10   1.106577 S    
C50   H52   1.111564 S    
P2    O7    1.513183 D    
O19   C13   1.412063 S    
C37   O32   1.384493 S    
P2    Ba1   3.423856 S    
Ba2   O20   2.806511 S    
C9    H14   1.113965 S    
C33   C34   1.397880 A    
C8    H12   1.108945 S    
C8    H11   1.106847 S    
C44   H28   1.082156 S    
C22   C23   1.402003 A    
C13   H18   1.112636 S    
C19   C22   1.431402 A    
P2    O10   1.753025 S    
O14   Ba2   2.807231 S    
O6    C10   1.408780 S    
C14   H19   1.108251 S    
O5    C6    1.402348 S    
C3    H4    1.094221 S    
O2    Ba1   2.934612 S    
C23   C31   1.406969 A    
C25   C26   1.426051 A    
C15   H55   1.113432 S    
C4    H5    1.107496 S    
O1    Ba1   2.854301 S    
C51   H61   1.110611 S    
O8    Ba1   2.776400 S    
P7    O21   1.574773 D    
C46   H36   1.111035 S    
C39   H26   1.071767 S    
P5    O19   1.763859 S    
O27   C47   1.409494 S    
