data_mof_unit_65113.cif
_audit_creation_date              2012-12-10T17:00:47-0500
_audit_creation_method            fapswitch 2.2
_symmetry_space_group_name_H-M    P1
_symmetry_Int_Tables_number       1
_space_group_crystal_system       triclinic
_cell_length_a                    10.789741
_cell_length_b                    10.738524
_cell_length_c                    10.051304
_cell_angle_alpha                 89.51705
_cell_angle_beta                  104.099587
_cell_angle_gamma                 90.097608
_cell_volume                      1129.47800599

loop_
_atom_site_label
_atom_site_type_symbol
_atom_type_description
_atom_site_fract_x
_atom_site_fract_y
_atom_site_fract_z
_atom_type_partial_charge
C1    C     C_R   0.505079 0.262804 0.501832 0.957571
C2    C     C_2   0.496024 0.869467 0.495605 -0.454992
C3    C     C_2   0.530641 0.068190 0.397525 -0.203299
C4    C     C_2   0.524632 0.131829 0.509148 -0.424807
C5    C     C_2   0.602490 0.496523 0.952256 -0.066132
C6    C     C_2   0.599773 0.521154 0.098402 0.030552
C7    C     C_R   0.259028 0.495897 0.442572 0.798289
C8    C     C_R   0.500480 0.737357 0.499322 0.977278
C9    C     C_R   0.740973 0.495896 0.557479 0.794034
C10   C     C_2   0.122227 0.480146 0.409966 0.474657
C11   C     C_2   0.068109 0.449096 0.511568 -0.229489
C12   C     C_2   0.877749 0.480031 0.590269 0.475809
C13   C     C_2   0.931823 0.449206 0.489097 -0.235488
C14   C     C_2   0.540407 0.934205 0.402471 0.679162
H1    H     H_    0.875296 0.433965 0.385082 0.199850
H2    H     H_    0.420551 0.538236 0.874003 0.238061
H3    H     H_    0.686541 0.556300 0.166221 0.146246
H4    H     H_    0.124623 0.433528 0.615803 0.218978
H5    H     H_    0.451380 0.912686 0.569208 0.131839
H6    H     H_    0.527523 0.114233 0.300065 0.223788
H7    H     H_    0.538493 0.088741 0.609702 0.176051
H8    H     H_    0.694330 0.481008 0.929299 0.188423
N1    N     N_2   0.501330 0.501330 0.852460 -0.169325
N2    N     N_2   0.501370 0.501360 0.148130 0.054215
O1    O     O_R   0.499980 0.319060 0.613030 -0.601922
O2    O     O_R   0.500020 0.319100 0.386910 -0.582117
O3    O     O_R   0.317800 0.500000 0.570840 -0.653859
O4    O     O_R   0.317840 0.500040 0.344720 -0.520344
O5    O     O_R   0.499980 0.680900 0.613090 -0.614596
O6    O     O_R   0.500020 0.680940 0.386970 -0.541616
O7    O     O_R   0.682160 0.499960 0.655280 -0.578772
O8    O     O_R   0.682200 0.500000 0.429160 -0.666887
Zn1   Zn    Zn3+2 0.499970 0.499970 0.650990 1.011628
Zn2   Zn    Zn3+2 0.500030 0.500030 0.349010 1.097158
Cl1   Cl    Cl    0.386540 0.395303 0.066305 -0.462154
F1    F     F_    0.948090 0.499172 0.720660 -0.618858
F2    F     F_    0.051904 0.499671 0.279281 -0.620062
F3    F     F_    0.591384 0.877496 0.307333 -0.628871

loop_
_geom_bond_atom_site_label_1
_geom_bond_atom_site_label_2
_ccdc_geom_bond_type
C7    C10   S    
O7    Zn1   S    
C11   H4    S    
C12   F1    S    
C5    N1    D    
C1    C4    S    
C8    O6    A    
C7    O4    A    
C6    N2    D    
C3    H6    S    
O3    Zn1   S    
C1    O1    A    
C4    H7    S    
C11   C13   S    
C5    C6    S    
C3    C14   S    
C10   F2    S    
C8    O5    A    
H2    N1    S    
C13   H1    S    
C1    O2    A    
C2    C14   D    
C9    C12   S    
C2    C8    S    
N2    Cl1   S    
C14   F3    S    
C10   C11   D    
O6    Zn2   S    
O4    Zn2   S    
C3    C4    D    
O5    Zn1   S    
C7    O3    A    
C12   C13   D    
C6    H3    S    
C9    O7    A    
C9    O8    A    
C2    H5    S    
O2    Zn2   S    
N2    Zn2   S    
C5    H8    S    
O1    Zn1   S    
N1    Zn1   S    
O8    Zn2   S    
