data_mof_unit_21771.cif
_audit_creation_date              2012-10-26T21:05:23-0400
_audit_creation_method            fapswitch 2.2
_symmetry_space_group_name_H-M    P1
_symmetry_Int_Tables_number       1
_space_group_crystal_system       triclinic
_cell_length_a                    9.615718
_cell_length_b                    10.863928
_cell_length_c                    13.866868
_cell_angle_alpha                 92.984538
_cell_angle_beta                  84.089218
_cell_angle_gamma                 88.719909
_cell_volume                      1438.37941882

loop_
_atom_site_label
_atom_site_type_symbol
_atom_type_description
_atom_site_fract_x
_atom_site_fract_y
_atom_site_fract_z
_atom_type_partial_charge
C1    C     C_R   0.497755 0.737921 0.496948 0.546495
C2    C     C_R   0.618149 0.933869 0.484422 -0.162014
C3    C     C_R   0.620868 0.061048 0.491515 -0.167804
C4    C     C_R   0.476572 0.500521 0.682962 0.543079
C5    C     C_R   0.497566 0.130400 0.518054 -0.007320
C6    C     C_R   0.878644 0.335637 0.370961 -0.089450
C7    C     C_R   0.961530 0.254370 0.307855 -0.173587
C8    C     C_R   0.104984 0.254360 0.307167 -0.163480
C9    C     C_R   0.166538 0.335640 0.369535 -0.074475
C10   C     C_R   0.086203 0.419983 0.435506 0.146993
C11   C     C_R   0.936653 0.419565 0.436168 0.147189
C12   C     C_1   0.461713 0.500557 0.786453 -0.038413
C13   C     C_R   0.912952 0.575414 0.561134 0.012375
C14   C     C_R   0.059601 0.572728 0.565104 0.101500
C15   C     C_R   0.499676 0.263513 0.507729 0.534602
C16   C     C_R   0.523435 0.499598 0.317030 0.540897
C17   C     C_1   0.538334 0.499464 0.213501 -0.022825
C18   C     C_2   0.558160 0.499616 0.022431 -0.121517
C19   C     C_2   0.441948 0.500482 0.977477 -0.122552
C20   C     C_1   0.451351 0.500560 0.873553 -0.062583
C21   C     C_1   0.548717 0.499474 0.126380 -0.053527
C22   C     C_3   0.109665 0.650354 0.647930 -0.225507
C23   C     C_R   0.227300 0.895274 0.509650 -0.115683
C24   C     C_3   0.092827 0.585758 0.744788 -0.288641
C25   C     C_3   0.943282 0.592802 0.794790 -0.453750
C26   C     C_R   0.107113 0.963017 0.547005 -0.138251
C27   C     C_R   0.118460 0.079655 0.590553 -0.120374
C28   C     C_R   0.248679 0.133290 0.588105 -0.088930
C29   C     C_R   0.369979 0.070375 0.541344 0.029521
C30   C     C_R   0.362610 0.943671 0.515202 0.024537
C31   C     C_R   0.490792 0.873108 0.495534 -0.008480
Cu1   Cu    Cu3+1 0.359340 0.500010 0.500010 0.892165
Cu2   Cu    Cu3+1 0.640660 0.499990 0.499990 0.914560
H1    H     H_    0.339285 0.501066 0.018436 0.133196
H2    H     H_    0.025864 0.130225 0.623558 0.114532
H3    H     H_    0.253163 0.223773 0.623831 0.142018
H4    H     H_    0.719937 0.105070 0.475276 0.136696
H5    H     H_    0.846090 0.637226 0.610280 0.125378
H6    H     H_    0.900813 0.689092 0.799711 0.150793
H7    H     H_    0.874512 0.531994 0.755269 0.164243
H8    H     H_    0.942941 0.560610 0.869518 0.139698
H9    H     H_    0.127300 0.487282 0.733526 0.185976
H10   H     H_    0.161543 0.631216 0.794873 0.152682
H11   H     H_    0.218869 0.675650 0.632659 0.199107
H12   H     H_    0.769739 0.328504 0.365795 0.183118
H13   H     H_    0.051422 0.740477 0.656592 0.097731
H14   H     H_    0.913808 0.190872 0.259109 0.118922
H15   H     H_    0.169431 0.190686 0.257947 0.121126
H16   H     H_    0.277294 0.327052 0.363120 0.185260
H17   H     H_    0.660826 0.499066 0.981452 0.130454
H18   H     H_    0.716648 0.883034 0.467644 0.137053
H19   H     H_    0.209319 0.808576 0.472595 0.154557
H20   H     H_    0.005020 0.923944 0.543403 0.104322
N1    N     N_R   0.852210 0.498790 0.499090 -0.256768
N2    N     N_R   0.148080 0.498710 0.499060 -0.245966
O1    O     O_R   0.381190 0.680360 0.500010 -0.529679
O2    O     O_R   0.618760 0.680340 0.500000 -0.500373
O3    O     O_R   0.364420 0.499990 0.637850 -0.519261
O4    O     O_R   0.601990 0.499960 0.637840 -0.492488
O5    O     O_R   0.381240 0.319660 0.500000 -0.527891
O6    O     O_R   0.618810 0.319640 0.499990 -0.521335
O7    O     O_R   0.398010 0.500040 0.362160 -0.509994
O8    O     O_R   0.635580 0.500010 0.362150 -0.507860

loop_
_geom_bond_atom_site_label_1
_geom_bond_atom_site_label_2
_ccdc_geom_bond_type
C1    C31   S    
C24   C25   S    
C8    H15   S    
C6    C7    A    
C16   O8    A    
C1    O2    A    
C4    C12   S    
C18   C21   S    
C24   H9    S    
C9    C10   A    
Cu1   N2    S    
C19   C20   S    
Cu1   O3    S    
Cu2   O8    S    
C27   H2    S    
Cu1   Cu2   S    
C14   C22   S    
C14   N2    A    
C15   O6    A    
Cu1   O7    S    
C7    C8    A    
Cu2   O4    S    
C13   C14   A    
C25   H6    S    
C10   N2    A    
C12   C20   T    
C23   H19   S    
C29   C30   A    
C11   N1    A    
C16   O7    A    
C4    O4    A    
C28   C29   A    
C6    H12   S    
C1    O1    A    
C13   H5    S    
C2    C3    A    
C5    C29   A    
C25   H7    S    
C26   C27   A    
C30   C31   A    
C22   C24   S    
C5    C15   S    
C16   C17   S    
C10   C11   A    
Cu1   O5    S    
C25   H8    S    
C26   H20   S    
C3    C5    A    
C6    C11   A    
C28   H3    S    
C9    H16   S    
C23   C30   A    
C18   H17   S    
C8    C9    A    
Cu2   O6    S    
C13   N1    A    
C15   O5    A    
C23   C26   A    
C4    O3    A    
Cu2   N1    S    
C24   H10   S    
C18   C19   D    
Cu2   O2    S    
C2    H18   S    
C22   H13   S    
Cu1   O1    S    
C22   H11   S    
C3    H4    S    
C7    H14   S    
C2    C31   A    
C27   C28   A    
C19   H1    S    
C17   C21   T    
