data_mof_unit_49587.cif
_audit_creation_date              2012-12-10T17:52:05-0500
_audit_creation_method            fapswitch 2.2
_symmetry_space_group_name_H-M    P1
_symmetry_Int_Tables_number       1
_space_group_crystal_system       triclinic
_cell_length_a                    14.675908
_cell_length_b                    14.71655
_cell_length_c                    19.415464
_cell_angle_alpha                 76.394478
_cell_angle_beta                  102.873645
_cell_angle_gamma                 114.848524
_cell_volume                      3661.63297163

loop_
_atom_site_label
_atom_site_type_symbol
_atom_type_description
_atom_site_fract_x
_atom_site_fract_y
_atom_site_fract_z
_atom_type_partial_charge
C1    C     C_R   0.880284 0.312150 0.512269 0.792277
C2    C     C_R   0.291478 0.821779 0.498417 -0.235111
C3    C     C_R   0.639713 0.076966 0.524575 0.048406
C4    C     C_R   0.360200 0.921381 0.505104 0.048268
C5    C     C_R   0.679330 0.000017 0.544091 0.043911
C6    C     C_R   0.320684 0.997343 0.495340 0.058195
C7    C     C_R   0.533216 0.050516 0.516898 -0.001388
C8    C     C_R   0.466775 0.947091 0.520372 -0.017555
C9    C     C_R   0.508822 0.872391 0.541089 -0.259336
C10   C     C_R   0.491516 0.124110 0.508227 -0.312940
C11   C     C_R   0.613315 0.897868 0.554334 0.467794
C12   C     C_R   0.119644 0.687844 0.488819 0.787514
C13   C     C_R   0.386767 0.098684 0.497654 0.473046
C14   C     C_R   0.730116 0.687730 0.395233 0.403354
C15   C     C_R   0.287709 0.336497 0.624438 0.413220
C16   C     C_R   0.001094 0.502170 0.632481 0.855113
C17   C     C_R   0.000174 0.499918 0.367410 0.856696
C18   C     C_R   0.805651 0.649140 0.408375 -0.012754
C19   C     C_R   0.203008 0.362026 0.601229 -0.006896
C20   C     C_R   0.711388 0.506562 0.486381 0.054247
C21   C     C_R   0.286612 0.491749 0.511483 0.043032
C22   C     C_R   0.635851 0.545592 0.481078 -0.081485
C23   C     C_R   0.812747 0.204363 0.522276 -0.050285
C24   C     C_R   0.377884 0.474393 0.534424 -0.090184
C25   C     C_R   0.645884 0.636734 0.432923 -0.032269
C26   C     C_R   0.375495 0.392916 0.590857 -0.010334
C27   C     C_R   0.551529 0.497766 0.521316 -0.061186
C28   C     C_R   0.469596 0.532635 0.502648 -0.067990
C29   C     C_R   0.484852 0.627237 0.456273 0.483871
C30   C     C_R   0.549783 0.421328 0.582386 0.449460
C31   C     C_R   0.573368 0.677906 0.423872 -0.189906
C32   C     C_R   0.461722 0.370626 0.615587 -0.206852
C33   C     C_R   0.064156 0.465902 0.763237 0.430928
C34   C     C_R   0.186856 0.795323 0.487565 -0.058326
C35   C     C_R   0.945849 0.548237 0.236656 0.434037
C36   C     C_R   0.061279 0.464034 0.834878 -0.247171
C37   C     C_R   0.949588 0.551391 0.164774 -0.250006
C38   C     C_R   0.004660 0.508312 0.853686 -0.070136
C39   C     C_R   0.002147 0.502912 0.145642 -0.080972
C40   C     C_R   0.949898 0.554782 0.799703 -0.280329
C41   C     C_R   0.053386 0.452513 0.199436 -0.252540
C42   C     C_R   0.946705 0.552969 0.726819 0.445224
C43   C     C_R   0.055251 0.452780 0.271851 0.435801
C44   C     C_R   0.003515 0.506610 0.708488 -0.238055
C45   C     C_R   0.784836 0.026630 0.553828 -0.145718
C46   C     C_R   0.000544 0.500309 0.291133 -0.249127
C47   C     C_R   0.002981 0.504537 0.069641 0.466950
C48   C     C_R   0.004310 0.507417 0.929693 0.466377
C49   C     C_3   0.225553 0.495488 0.753334 -0.305422
C50   C     C_3   0.789477 0.541670 0.240349 -0.299603
C51   C     C_3   0.736620 0.770574 0.280250 -0.349790
C52   C     C_3   0.283896 0.271437 0.742928 -0.350432
C53   C     C_3   0.397146 0.722938 0.383428 -0.420535
C54   C     C_3   0.629260 0.313105 0.650097 -0.380118
C55   C     C_3   0.806801 0.598531 0.687966 -0.216113
C56   C     C_R   0.214981 0.970586 0.482954 -0.143378
C57   C     C_3   0.208689 0.448778 0.325105 -0.293502
C58   C     C_3   0.640088 0.776101 0.643042 -0.334119
C59   C     C_3   0.377250 0.249690 0.437821 -0.327618
C60   C     C_R   0.851020 0.128057 0.543843 -0.197213
C61   C     C_R   0.148646 0.870244 0.479682 -0.193926
C62   C     C_R   0.708039 0.178266 0.511360 -0.227031
Cu1   Cu    Cu3+1 0.081740 0.475680 0.518680 0.972172
Cu2   Cu    Cu3+1 0.918260 0.524320 0.481320 0.979620
H1    H     H_    0.586310 0.751854 0.391688 0.199195
H2    H     H_    0.091963 0.412158 0.185539 0.176442
H3    H     H_    0.317443 0.762948 0.500264 0.192055
H4    H     H_    0.681328 0.238565 0.490594 0.147246
H5    H     H_    0.816680 0.969187 0.569645 0.187822
H6    H     H_    0.183087 0.027071 0.475824 0.190621
H7    H     H_    0.271904 0.468932 0.731446 0.169420
H8    H     H_    0.257605 0.502255 0.810334 0.155421
H9    H     H_    0.232659 0.571334 0.721656 0.165444
H10   H     H_    0.749178 0.575870 0.261535 0.166723
H11   H     H_    0.768747 0.461841 0.268413 0.163700
H12   H     H_    0.461455 0.315063 0.663278 0.187533
H13   H     H_    0.762350 0.543400 0.182014 0.154102
H14   H     H_    0.666165 0.706285 0.263568 0.144281
H15   H     H_    0.804716 0.762021 0.271480 0.185123
H16   H     H_    0.733593 0.840923 0.245220 0.204374
H17   H     H_    0.212588 0.278276 0.746574 0.197868
H18   H     H_    0.351154 0.340532 0.756199 0.145783
H19   H     H_    0.289846 0.206670 0.783854 0.203182
H20   H     H_    0.392017 0.679371 0.341915 0.147038
H21   H     H_    0.452084 0.802505 0.372313 0.202746
H22   H     H_    0.321432 0.725112 0.379219 0.193361
H23   H     H_    0.276751 0.543639 0.464231 0.192733
H24   H     H_    0.567395 0.253918 0.621277 0.175934
H25   H     H_    0.616648 0.301320 0.706394 0.180280
H26   H     H_    0.700869 0.303883 0.651270 0.198561
H27   H     H_    0.763016 0.522451 0.716802 0.176100
H28   H     H_    0.759035 0.611875 0.636796 0.216453
H29   H     H_    0.821380 0.659023 0.718891 0.131188
H30   H     H_    0.246256 0.413764 0.373341 0.176121
H31   H     H_    0.235136 0.530535 0.328778 0.142759
H32   H     H_    0.233008 0.439946 0.277661 0.149705
H33   H     H_    0.558985 0.733195 0.650265 0.162125
H34   H     H_    0.705211 0.433368 0.516375 0.187480
H35   H     H_    0.678310 0.832913 0.680114 0.155389
H36   H     H_    0.676971 0.720874 0.657856 0.182283
H37   H     H_    0.365370 0.220301 0.387250 0.155679
H38   H     H_    0.457150 0.302790 0.449707 0.153556
H39   H     H_    0.329367 0.293994 0.429248 0.192025
H40   H     H_    0.067680 0.851339 0.471353 0.170839
H41   H     H_    0.931938 0.146610 0.552558 0.167808
H42   H     H_    0.462746 0.792628 0.550223 0.194614
H43   H     H_    0.538684 0.201804 0.513184 0.143702
H44   H     H_    0.134962 0.319263 0.626091 0.162905
H45   H     H_    0.874259 0.691288 0.384129 0.165008
H46   H     H_    0.105258 0.428861 0.875730 0.178149
H47   H     H_    0.910684 0.591971 0.123968 0.177218
H48   H     H_    0.910637 0.593525 0.814576 0.166418
N1    N     N_R   0.950247 0.550731 0.948791 -0.248598
N2    N     N_R   0.057028 0.461218 0.050550 -0.247684
N3    N     N_R   0.949642 0.549357 0.017399 -0.248928
N4    N     N_R   0.057658 0.462626 0.981951 -0.248901
N5    N     N_R   0.795420 0.560800 0.453240 -0.221376
N6    N     N_R   0.204580 0.439200 0.546760 -0.220785
O1    O     O_R   0.977910 0.338110 0.524620 -0.579319
O2    O     O_3   0.894747 0.598861 0.253414 -0.567478
O3    O     O_3   0.743435 0.780540 0.351903 -0.576798
O4    O     O_3   0.281908 0.251126 0.675081 -0.570437
O5    O     O_3   0.423137 0.678510 0.453921 -0.606080
O6    O     O_3   0.640721 0.412793 0.616552 -0.608185
O7    O     O_3   0.898839 0.604993 0.672092 -0.550124
O8    O     O_3   0.102735 0.398551 0.323888 -0.545804
O9    O     O_3   0.650790 0.822052 0.571275 -0.565979
O10   O     O_3   0.347990 0.170656 0.496020 -0.571083
O11   O     O_R   0.022090 0.661890 0.475380 -0.582986
O12   O     O_R   0.839850 0.379180 0.493080 -0.608340
O13   O     O_R   0.160150 0.620820 0.506920 -0.594603
O14   O     O_R   0.069040 0.479450 0.615630 -0.548911
O15   O     O_R   0.930960 0.520550 0.384370 -0.546786
O16   O     O_R   0.930990 0.520520 0.584090 -0.518178
O17   O     O_R   0.069010 0.479480 0.415910 -0.546494
O18   O     O_3   0.124189 0.424285 0.747262 -0.572516

loop_
_geom_bond_atom_site_label_1
_geom_bond_atom_site_label_2
_ccdc_geom_bond_type
C25   C31   A    
C47   N2    A    
C54   H24   S    
C21   H23   S    
C45   C60   A    
C26   C32   A    
C12   O13   A    
C7    C10   A    
C14   C18   A    
C2    C4    A    
C18   H45   S    
C4    C8    A    
C16   O16   A    
C35   O2    S    
C17   O15   A    
C7    C8    A    
C40   H48   S    
C47   N3    A    
C21   N6    A    
C53   H20   S    
C50   O2    S    
C28   C29   A    
C35   C37   A    
C24   C26   A    
C54   H26   S    
C3    C7    A    
C50   H10   S    
C15   O4    S    
C33   C36   A    
C1    O1    A    
C51   H16   S    
C55   H27   S    
C42   O7    S    
C15   C19   A    
C13   O10   S    
C52   O4    S    
C23   C62   A    
C55   O7    S    
C19   N6    A    
C8    C9    A    
C33   C44   A    
C22   C25   A    
C17   O17   A    
C53   H22   S    
Cu1   O13   S    
C30   C32   A    
C16   C44   S    
C38   C48   S    
C55   H29   S    
C48   N4    A    
C19   H44   S    
C2    C34   A    
C40   C42   A    
C58   O9    S    
C14   O3    S    
C27   C30   A    
C41   C43   A    
C10   H43   S    
C58   H33   S    
C42   C44   A    
C43   O8    S    
C20   N5    A    
C23   C60   A    
Cu2   O16   S    
C12   O11   A    
C45   H5    S    
C59   H37   S    
C61   H40   S    
C58   H36   S    
C17   C46   S    
C54   H25   S    
C4    C6    A    
C2    H3    S    
C53   O5    S    
C6    C56   A    
C57   O8    S    
Cu1   N6    S    
C15   C26   A    
C59   O10   S    
C5    C45   A    
C49   H8    S    
C34   C61   A    
Cu2   N5    S    
Cu1   O17   S    
C52   H19   S    
C11   O9    S    
C55   H28   S    
Cu1   O1    S    
Cu1   O14   S    
C52   H18   S    
C9    C11   A    
C18   N5    A    
C49   O18   S    
C30   O6    S    
C1    C23   S    
C56   H6    S    
C57   H30   S    
C36   H46   S    
C51   O3    S    
C49   H9    S    
C20   C22   A    
C12   C34   S    
C50   H13   S    
C39   C47   S    
C3    C62   A    
C31   H1    S    
C54   O6    S    
Cu2   O15   S    
C59   H38   S    
C58   H35   S    
C24   C28   A    
Cu2   O12   S    
C3    C5    A    
C10   C13   A    
C32   H12   S    
N2    N4    A    
C5    C11   A    
C41   H2    S    
C62   H4    S    
C22   C27   A    
C59   H39   S    
C36   C38   A    
C9    H42   S    
C51   H14   S    
C37   C39   A    
C50   H11   S    
C6    C13   A    
C38   C40   A    
C33   O18   S    
C49   H7    S    
C29   O5    S    
C14   C25   A    
C52   H17   S    
C16   O14   A    
C43   C46   A    
C51   H15   S    
C37   H47   S    
Cu1   Cu2   S    
C20   H34   S    
Cu2   O11   S    
C39   C41   A    
C29   C31   A    
C57   H31   S    
C21   C24   A    
C27   C28   A    
C56   C61   A    
C1    O12   A    
C53   H21   S    
C57   H32   S    
C35   C46   A    
C60   H41   S    
C48   N1    A    
N1    N3    A    
