data_mof_unit_6794.cif
_audit_creation_date              2012-12-10T18:47:48-0500
_audit_creation_method            fapswitch 2.2
_symmetry_space_group_name_H-M    P1
_symmetry_Int_Tables_number       1
_space_group_crystal_system       triclinic
_cell_length_a                    10.097187
_cell_length_b                    10.578593
_cell_length_c                    14.968739
_cell_angle_alpha                 91.233159
_cell_angle_beta                  68.904348
_cell_angle_gamma                 90.153461
_cell_volume                      1491.34886724

loop_
_atom_site_label
_atom_site_type_symbol
_atom_type_description
_atom_site_fract_x
_atom_site_fract_y
_atom_site_fract_z
_atom_type_partial_charge
C1    C     C_R   0.499971 0.739064 0.500390 0.847236
C2    C     C_R   0.387576 0.937124 0.568238 -0.211684
C3    C     C_R   0.499935 0.128297 0.499936 0.013105
C4    C     C_R   0.500175 0.871810 0.500490 0.010810
C5    C     C_R   0.955326 0.407941 0.451231 0.017778
C6    C     C_R   0.044400 0.591662 0.549325 0.025704
C7    C     C_R   0.096062 0.405096 0.455221 0.557538
C8    C     C_R   0.903095 0.594050 0.546092 0.539684
C9    C     C_R   0.411215 0.496146 0.676711 0.841814
C10   C     C_R   0.588909 0.494008 0.323057 0.836885
C11   C     C_R   0.361321 0.467230 0.778999 -0.110637
C12   C     C_R   0.499999 0.260962 0.499745 0.846049
C13   C     C_R   0.638717 0.456664 0.220777 -0.129375
C14   C     C_R   0.177918 0.452080 0.935374 -0.110401
C15   C     C_R   0.819591 0.372466 0.076851 -0.145596
C16   C     C_R   0.220700 0.486555 0.839687 -0.168295
C17   C     C_R   0.780935 0.427553 0.168683 -0.197288
C18   C     C_R   0.458411 0.415244 0.815364 -0.164987
C19   C     C_R   0.537684 0.429834 0.179304 -0.134568
C20   C     C_R   0.415797 0.373250 0.909492 0.043003
C21   C     C_R   0.575804 0.369118 0.089267 0.055643
C22   C     C_R   0.271651 0.389081 0.970027 -0.048652
C23   C     C_R   0.329570 0.322383 0.105475 0.442714
C24   C     C_R   0.719582 0.347706 0.034787 -0.068773
C25   C     C_R   0.515971 0.332171 0.949058 -0.204959
C26   C     C_R   0.473783 0.339204 0.049301 -0.218534
C27   C     C_3   0.055156 0.198735 0.121321 -0.385550
C28   C     C_3   0.933752 0.152551 0.892863 -0.324656
C29   C     C_3   0.346645 0.166865 0.205911 -0.267891
C30   C     C_3   0.637412 0.139846 0.793821 -0.332209
C31   C     C_3   0.916805 0.308565 0.391525 -0.737851
C32   C     C_3   0.082450 0.689631 0.610278 -0.782864
C33   C     C_3   0.146942 0.199844 0.472719 -0.279243
C34   C     C_R   0.659071 0.296583 0.895056 0.463184
C35   C     C_3   0.845308 0.800475 0.537508 -0.283295
C36   C     C_R   0.227855 0.345330 0.064773 0.423121
C37   C     C_R   0.760356 0.302188 0.939301 0.417494
C38   C     C_R   0.612887 0.933292 0.432668 -0.228032
C39   C     C_R   0.387570 0.066870 0.568067 -0.227339
C40   C     C_R   0.612664 0.063016 0.432300 -0.211859
H1    H     H_    0.428436 0.457335 0.217403 0.207430
H2    H     H_    0.302057 0.887948 0.621609 0.133230
H3    H     H_    0.107477 0.144971 0.162214 0.199821
H4    H     H_    0.083907 0.157283 0.047704 0.152676
H5    H     H_    0.939337 0.186231 0.158745 0.187147
H6    H     H_    0.882736 0.089832 0.854350 0.182527
H7    H     H_    0.902201 0.124104 0.968901 0.130324
H8    H     H_    0.050260 0.138849 0.858784 0.188367
H9    H     H_    0.362021 0.103095 0.142591 0.109998
H10   H     H_    0.274544 0.117252 0.269299 0.190502
H11   H     H_    0.449121 0.180675 0.216345 0.184284
H12   H     H_    0.568807 0.412351 0.770150 0.224290
H13   H     H_    0.647405 0.069973 0.845681 0.140986
H14   H     H_    0.690428 0.098602 0.720806 0.197095
H15   H     H_    0.523825 0.154130 0.804335 0.173280
H16   H     H_    0.012216 0.264507 0.337142 0.269516
H17   H     H_    0.855028 0.232965 0.438224 0.219012
H18   H     H_    0.856909 0.349299 0.350559 0.260109
H19   H     H_    0.986850 0.732030 0.665688 0.231516
H20   H     H_    0.142652 0.647991 0.650673 0.258663
H21   H     H_    0.143462 0.766439 0.564586 0.228392
H22   H     H_    0.051192 0.153542 0.467844 0.135356
H23   H     H_    0.860714 0.444967 0.199852 0.211302
H24   H     H_    0.129072 0.224189 0.549018 0.171526
H25   H     H_    0.233636 0.128688 0.447654 0.186981
H26   H     H_    0.865275 0.781324 0.460224 0.153438
H27   H     H_    0.938518 0.848456 0.544962 0.139115
H28   H     H_    0.755384 0.868265 0.564996 0.197272
H29   H     H_    0.145565 0.532159 0.814141 0.157952
H30   H     H_    0.075487 0.483992 0.983063 0.156245
H31   H     H_    0.926323 0.344211 0.038274 0.225021
H32   H     H_    0.699009 0.880971 0.379950 0.130865
H33   H     H_    0.301641 0.119232 0.620935 0.140816
H34   H     H_    0.698111 0.112196 0.378846 0.131870
N1    N     N_R   0.142780 0.500030 0.500020 -0.154128
N2    N     N_R   0.857220 0.499970 0.499980 -0.149879
O1    O     O_R   0.385370 0.683250 0.500010 -0.619718
O2    O     O_3   0.901877 0.280489 0.884831 -0.580652
O3    O     O_3   0.284683 0.284883 0.200063 -0.572486
O4    O     O_3   0.703795 0.255630 0.800192 -0.593062
O5    O     O_3   0.187518 0.305964 0.413060 -0.548567
O6    O     O_3   0.808970 0.689887 0.592524 -0.575548
O7    O     O_R   0.614630 0.316750 0.499990 -0.617800
O8    O     O_R   0.614700 0.683220 0.500000 -0.575376
O9    O     O_R   0.385300 0.316780 0.500000 -0.573813
O10   O     O_R   0.319830 0.500020 0.632250 -0.616413
O11   O     O_R   0.680170 0.499980 0.367750 -0.625215
O12   O     O_R   0.549160 0.499990 0.632240 -0.567893
O13   O     O_R   0.450840 0.500010 0.367760 -0.572824
O14   O     O_3   0.086677 0.329382 0.119481 -0.622726
Zn1   Zn    Zn3+2 0.346870 0.500020 0.500000 0.976235
Zn2   Zn    Zn3+2 0.653130 0.499980 0.500000 0.975714

loop_
_geom_bond_atom_site_label_1
_geom_bond_atom_site_label_2
_ccdc_geom_bond_type
C6    C32   S    
C21   C26   A    
C11   C18   A    
C34   C37   A    
C1    O1    A    
O9    Zn1   S    
C18   H12   S    
C6    N1    A    
C28   H7    S    
C29   H9    S    
C1    O8    A    
O7    Zn2   S    
C30   H14   S    
C28   H6    S    
C12   O9    A    
C8    O6    S    
C31   H18   S    
C19   C21   A    
C32   H21   S    
O10   Zn1   S    
C9    O12   A    
C20   C25   A    
C8    N2    A    
C27   O14   S    
C23   C26   A    
C3    C12   S    
C34   O4    S    
C27   H4    S    
C28   H8    S    
O12   Zn2   S    
C10   O13   A    
C33   H22   S    
C31   H16   S    
O13   Zn1   S    
C28   O2    S    
N1    Zn1   S    
C25   C34   A    
C30   O4    S    
C27   H5    S    
C3    C39   A    
O11   Zn2   S    
C14   H30   S    
C2    C39   A    
C35   O6    S    
C29   H10   S    
C30   H13   S    
C38   H32   S    
C10   O11   A    
C13   C19   A    
C33   H25   S    
C5    C7    A    
C6    C8    A    
C35   H26   S    
C25   C26   A    
C12   O7    A    
C2    C4    A    
C9    O10   A    
C11   C16   A    
C29   O3    S    
C35   H27   S    
C24   C37   A    
C9    C11   S    
N2    Zn2   S    
C15   C24   A    
C7    O5    S    
C20   C22   A    
C3    C40   A    
C14   C16   A    
C32   H20   S    
C15   H31   S    
C29   H11   S    
C36   O14   S    
C15   C17   A    
O1    Zn1   S    
C16   H29   S    
C4    C38   A    
C10   C13   S    
C7    N1    A    
C22   C36   A    
C30   H15   S    
C13   C17   A    
C1    C4    S    
C31   H17   S    
C5    N2    A    
C17   H23   S    
C38   C40   A    
C14   C22   A    
C35   H28   S    
C2    H2    S    
C33   H24   S    
C40   H34   S    
C18   C20   A    
C39   H33   S    
C27   H3    S    
C23   C36   A    
C21   C24   A    
O8    Zn2   S    
C32   H19   S    
C23   O3    S    
C37   O2    S    
C33   O5    S    
C19   H1    S    
C5    C31   S    
