data_mof_unit_53201.cif
_audit_creation_date              2012-10-26T19:03:32-0400
_audit_creation_method            fapswitch 2.2
_symmetry_space_group_name_H-M    P1
_symmetry_Int_Tables_number       1
_space_group_crystal_system       triclinic
_cell_length_a                    10.819808
_cell_length_b                    12.991538
_cell_length_c                    11.645936
_cell_angle_alpha                 100.379103
_cell_angle_beta                  94.505514
_cell_angle_gamma                 89.928708
_cell_volume                      1605.12075688

loop_
_atom_site_label
_atom_site_type_symbol
_atom_type_description
_atom_site_fract_x
_atom_site_fract_y
_atom_site_fract_z
_atom_type_partial_charge
C1    C     C_R   0.493854 0.298799 0.477903 0.575894
C2    C     C_R   0.428889 0.123701 0.359211 0.129760
C3    C     C_R   0.530518 0.137408 0.555725 -0.161346
C4    C     C_R   0.261985 0.507473 0.500768 0.588302
C5    C     C_R   0.521796 0.029992 0.547258 -0.003291
C6    C     C_R   0.471266 0.966932 0.441852 0.016491
C7    C     C_R   0.463260 0.858960 0.437836 -0.058688
C8    C     C_R   0.555313 0.877442 0.637225 -0.080197
C9    C     C_R   0.563154 0.985007 0.643933 -0.093355
C10   C     C_R   0.389802 0.396937 0.018753 -0.145859
C11   C     C_R   0.399594 0.407447 0.141539 0.063187
C12   C     C_R   0.067750 0.540081 0.606082 -0.002854
C13   C     C_R   0.543784 0.547283 0.158891 0.121963
C14   C     C_R   0.537175 0.539483 0.035512 0.038513
C15   C     C_R   0.459642 0.462788 0.964565 0.008047
C16   C     C_R   0.503223 0.700996 0.521736 0.588311
C17   C     C_R   0.453761 0.454444 0.841177 0.066502
C18   C     C_R   0.598474 0.594123 0.858493 0.111620
C19   C     C_R   0.606150 0.605997 0.981395 -0.062976
C20   C     C_R   0.737536 0.487314 0.499239 0.581570
C21   C     C_R   0.124110 0.599903 0.711547 0.225183
C22   C     C_R   0.082685 0.586389 0.818600 -0.095815
C23   C     C_R   0.126961 0.512982 0.500802 -0.018901
C24   C     C_R   0.979954 0.522793 0.821439 0.172027
C25   C     C_R   0.909264 0.483379 0.717071 -0.103886
C26   C     C_R   0.947722 0.499529 0.608260 -0.090707
C27   C     C_3   0.231643 0.181801 0.276503 -0.223037
C28   C     C_R   0.057966 0.467937 0.397142 -0.121706
C29   C     C_R   0.931759 0.448215 0.395444 0.231153
C30   C     C_R   0.873018 0.473046 0.500951 -0.006795
C31   C     C_R   0.506550 0.814306 0.533606 0.020605
C32   C     C_R   0.484574 0.184708 0.463251 -0.005562
C33   C     C_R   0.428442 0.013319 0.344738 0.280181
Cu1   Cu    Cu3+1 0.509250 0.507730 0.615930 1.018827
Cu2   Cu    Cu3+1 0.490750 0.492270 0.384070 1.033192
H1    H     H_    0.103489 0.444615 0.317116 0.186571
H2    H     H_    0.128677 0.627496 0.899917 0.163193
H3    H     H_    0.828724 0.435482 0.721150 0.183322
H4    H     H_    0.421507 0.807915 0.361329 0.209870
H5    H     H_    0.589032 0.843583 0.712047 0.150772
H6    H     H_    0.402912 0.172441 0.195718 0.289156
H7    H     H_    0.203720 0.264424 0.280632 0.146094
H8    H     H_    0.198455 0.154069 0.353822 0.165398
H9    H     H_    0.186030 0.134096 0.195667 0.215408
H10   H     H_    0.165633 0.816190 0.869788 0.358395
H11   H     H_    0.075822 0.380831 0.971849 0.337749
H12   H     H_    0.601796 0.033077 0.724612 0.137878
H13   H     H_    0.692985 0.280092 0.217684 0.371087
H14   H     H_    0.227405 0.818816 0.154000 0.377841
H15   H     H_    0.572127 0.184743 0.635749 0.145579
H16   H     H_    0.393304 0.396356 0.785906 0.117089
H17   H     H_    0.652419 0.645519 0.817767 0.132684
H18   H     H_    0.328156 0.337718 0.966767 0.104573
H19   H     H_    0.665759 0.666592 0.033591 0.158524
H20   H     H_    0.344694 0.357064 0.182188 0.137510
H21   H     H_    0.603599 0.605889 0.214134 0.153476
N1    N     N_R   0.523180 0.519350 0.790130 -0.225134
N2    N     N_R   0.476820 0.480650 0.209890 -0.238124
N3    N     N_2   0.365181 0.175085 0.274666 -0.501447
O1    O     O_R   0.506570 0.354460 0.582000 -0.534135
O2    O     O_2   0.235429 0.730312 0.592713 -0.251784
O3    O     O_3   0.146019 0.817204 0.785466 -0.475692
O4    O     O_2   0.905273 0.600388 0.031389 -0.242043
O5    O     O_2   0.827452 0.425000 0.940296 -0.256647
O6    O     O_3   0.057820 0.446476 0.025398 -0.470996
O7    O     O_2   0.798626 0.457463 0.195111 -0.209964
O8    O     O_2   0.948189 0.315811 0.190845 -0.259166
O9    O     O_3   0.746014 0.298661 0.291910 -0.515677
O10   O     O_2   0.351335 0.994308 0.110267 -0.270924
O11   O     O_2   0.471126 0.852565 0.172451 -0.308572
O12   O     O_R   0.490940 0.341410 0.386200 -0.474220
O13   O     O_3   0.242700 0.872659 0.225693 -0.511484
O14   O     O_R   0.327470 0.506530 0.597920 -0.478434
O15   O     O_R   0.311840 0.493480 0.402120 -0.515056
O16   O     O_R   0.509060 0.658590 0.613800 -0.455562
O17   O     O_R   0.493430 0.645540 0.418000 -0.523137
O18   O     O_R   0.688160 0.506520 0.597880 -0.539747
O19   O     O_R   0.672530 0.493470 0.402080 -0.441546
O20   O     O_2   0.340644 0.701039 0.778911 -0.279329
S1    S     S_3+6 0.217206 0.712295 0.714121 0.042793
S2    S     S_3+6 0.937199 0.498533 0.956838 0.035405
S3    S     S_3+6 0.856290 0.379481 0.263123 0.063517
S4    S     S_3+6 0.375060 0.933479 0.207681 -0.001423

loop_
_geom_bond_atom_site_label_1
_geom_bond_atom_site_label_2
_ccdc_geom_bond_type
Cu2   O15   S    
C16   O16   A    
C17   H16   S    
C18   H17   S    
C20   C30   S    
C16   C31   S    
C12   C23   A    
C1    O12   A    
C20   O18   A    
O4    S2    D    
Cu2   N2    S    
O3    S1    S    
C28   C29   A    
C18   C19   A    
C10   C15   A    
Cu1   O18   S    
C5    C6    A    
O2    S1    D    
H10   O3    S    
C2    C32   A    
Cu1   Cu2   S    
C10   H18   S    
C27   H9    S    
C8    C9    A    
H14   O13   S    
Cu1   N1    S    
C11   N2    A    
C4    O15   A    
Cu1   O16   S    
C13   H21   S    
Cu2   O12   S    
C13   C14   A    
Cu1   O1    S    
C3    H15   S    
Cu2   O17   S    
C7    C31   A    
C24   C25   A    
H6    N3    S    
H11   O6    S    
C1    O1    A    
C4    C23   S    
C2    N3    S    
C13   N2    A    
C25   C26   A    
C22   H2    S    
C12   C21   A    
C1    C32   S    
C12   C26   A    
C24   S2    S    
C5    C9    A    
C29   C30   A    
O10   S4    D    
C25   H3    S    
O7    S3    D    
C18   N1    A    
O6    S2    S    
C23   C28   A    
H13   O9    S    
O11   S4    D    
C33   S4    S    
C4    O14   A    
C2    C33   A    
C26   C30   A    
C22   C24   A    
C11   H20   S    
C19   H19   S    
C15   C17   A    
C16   O17   A    
C8    C31   A    
C14   C19   A    
C3    C5    A    
C9    H12   S    
C6    C7    A    
Cu2   O19   S    
C6    C33   A    
C20   O19   A    
O9    S3    S    
C29   S3    S    
C27   N3    S    
C27   H7    S    
C21   S1    S    
C3    C32   A    
O5    S2    D    
O13   S4    S    
C10   C11   A    
Cu1   O14   S    
O20   S1    D    
C27   H8    S    
C28   H1    S    
O8    S3    D    
C7    H4    S    
C14   C15   A    
C8    H5    S    
C21   C22   A    
C17   N1    A    
