data_mof_unit_55788.cif
_audit_creation_date              2012-12-10T16:37:28-0500
_audit_creation_method            fapswitch 2.2
_symmetry_space_group_name_H-M    P1
_symmetry_Int_Tables_number       1
_space_group_crystal_system       triclinic
_cell_length_a                    16.768204
_cell_length_b                    16.78178
_cell_length_c                    16.829642
_cell_angle_alpha                 66.131526
_cell_angle_beta                  66.679026
_cell_angle_gamma                 66.881247
_cell_volume                      3821.62204129

loop_
_atom_site_label
_atom_site_type_symbol
_atom_type_description
_atom_site_fract_x
_atom_site_fract_y
_atom_site_fract_z
_atom_type_partial_charge
C1    C     C_R   0.426905 0.067241 0.631599 0.542211
C2    C     C_R   0.388710 0.649281 0.098054 0.493342
C3    C     C_3   0.550471 0.252128 0.279090 -0.899085
C4    C     C_3   0.228141 0.500704 0.280377 0.142931
C5    C     C_3   0.277316 0.516756 0.329217 -0.843049
C6    C     C_3   0.320514 0.916558 0.745768 0.101934
C7    C     C_3   0.283333 0.954113 0.826081 -0.772883
C8    C     C_3   0.747429 0.738553 0.494947 0.126586
C9    C     C_3   0.703386 0.693036 0.468212 -0.825757
C10   C     C_3   0.719572 0.313719 0.930048 0.123029
C11   C     C_3   0.817461 0.272302 0.932755 -0.714305
C12   C     C_3   0.303074 0.720740 0.999822 0.105708
C13   C     C_R   0.937783 0.608120 0.331782 0.570631
C14   C     C_3   0.207210 0.767874 0.992024 -0.838781
C15   C     C_3   0.882999 0.750180 0.228073 0.168335
C16   C     C_3   0.956143 0.747997 0.137946 -0.883154
C17   C     C_3   0.758134 0.506787 0.721788 0.073736
C18   C     C_3   0.710946 0.471008 0.687964 -0.841326
C19   C     C_1   0.761401 0.969326 0.764476 0.310190
C20   C     C_1   0.253427 0.048226 0.253619 0.254452
C21   C     C_1   0.120830 0.702559 0.708668 0.248447
C22   C     C_1   0.884558 0.286137 0.287710 0.244177
C23   C     C_1   0.743342 0.740616 0.947096 0.233205
C24   C     C_R   0.910696 0.478687 0.690864 0.545698
C25   C     C_1   0.240541 0.238334 0.026457 0.306162
C26   C     C_R   0.962262 0.179815 0.437663 0.931952
C27   C     C_R   0.040419 0.820867 0.560670 0.863032
C28   C     C_R   0.162552 0.424829 0.006310 0.917646
C29   C     C_R   0.820770 0.562180 0.035919 0.878232
C30   C     C_R   0.436558 0.966210 0.179087 0.891477
C31   C     C_R   0.567132 0.028592 0.821083 0.891380
C32   C     C_R   0.563165 0.820744 0.033883 0.895076
C33   C     C_R   0.606689 0.921568 0.343091 0.500258
C34   C     C_R   0.432594 0.178167 0.975079 0.893168
C35   C     C_R   0.023181 0.568730 0.822511 0.936505
C36   C     C_R   0.960126 0.438544 0.179291 0.858494
C37   C     C_R   0.839293 0.992045 0.575646 0.915906
C38   C     C_R   0.178547 0.968924 0.436126 0.897852
C39   C     C_R   0.472816 0.071742 0.682791 -0.342560
C40   C     C_R   0.556009 0.914867 0.298299 -0.317709
C41   C     C_R   0.070590 0.703635 0.446060 -0.343746
C42   C     C_R   0.934291 0.296602 0.552341 -0.312743
C43   C     C_R   0.698236 0.439639 0.107210 -0.347013
C44   C     C_R   0.046096 0.666725 0.399240 0.565222
C45   C     C_R   0.242213 0.485503 0.098835 -0.334458
C46   C     C_R   0.292392 0.946084 0.551427 -0.282705
C47   C     C_R   0.754002 0.908459 0.513945 -0.324135
C48   C     C_R   0.531837 0.288926 0.985278 -0.304107
C49   C     C_R   0.440108 0.699830 0.094825 -0.318927
C50   C     C_R   0.921319 0.558456 0.291578 -0.351935
C51   C     C_R   0.934008 0.517830 0.734737 -0.325234
C52   C     C_R   0.565813 0.977352 0.552762 -0.131052
C53   C     C_R   0.470577 0.950104 0.465576 -0.114554
C54   C     C_R   0.988150 0.563633 0.545562 -0.151168
C55   C     C_R   0.944055 0.345105 0.596963 0.497121
C56   C     C_R   0.952270 0.472599 0.460021 -0.136689
C57   C     C_R   0.521641 0.519966 0.092924 -0.126981
C58   C     C_R   0.430716 0.426554 0.066724 -0.121578
C59   C     C_R   0.613973 0.934759 0.483051 -0.042301
C60   C     C_R   0.424444 0.977376 0.545310 -0.034486
C61   C     C_R   0.950548 0.490198 0.597181 -0.030462
C62   C     C_R   0.965832 0.560215 0.411893 -0.030697
C63   C     C_R   0.428242 0.557080 0.099229 -0.036377
C64   C     C_R   0.524014 0.388903 0.062136 -0.008928
C65   C     C_R   0.565400 0.934333 0.430351 -0.039496
C66   C     C_R   0.646783 0.386807 0.114582 0.557773
C67   C     C_R   0.470746 0.007813 0.577008 -0.037063
C68   C     C_R   0.380426 0.502715 0.099073 -0.050205
C69   C     C_R   0.564712 0.429723 0.090323 -0.035479
C70   C     C_R   0.948070 0.435773 0.552658 -0.027105
C71   C     C_R   0.999330 0.598478 0.450855 -0.027186
C72   C     C_R   0.565049 0.026207 0.672485 0.008354
C73   C     C_R   0.460969 0.935297 0.330406 0.004276
C74   C     C_R   0.048120 0.677002 0.540924 0.029959
C75   C     C_R   0.938197 0.331508 0.459550 0.007755
C76   C     C_R   0.666582 0.535028 0.081099 -0.001590
C77   C     C_R   0.284925 0.521430 0.127782 0.534030
C78   C     C_R   0.292615 0.420385 0.052118 0.012153
C79   C     C_R   0.327761 0.948590 0.459140 0.003726
C80   C     C_R   0.707017 0.957639 0.577029 0.010791
C81   C     C_R   0.436840 0.314211 0.003733 0.018950
C82   C     C_R   0.535020 0.666734 0.077995 0.003002
C83   C     C_R   0.934676 0.463769 0.326866 0.020332
C84   C     C_R   0.992288 0.574221 0.685323 -0.004750
C85   C     C_R   0.612690 0.018462 0.730367 -0.142026
C86   C     C_R   0.403765 0.956099 0.275698 -0.142135
C87   C     C_R   0.061719 0.721792 0.588779 -0.147163
C88   C     C_R   0.336225 0.966955 0.592335 0.490321
C89   C     C_R   0.936167 0.280323 0.409484 -0.161893
C90   C     C_R   0.722757 0.593582 0.050685 -0.138211
C91   C     C_R   0.250566 0.380183 0.025218 -0.153986
C92   C     C_R   0.274649 0.961318 0.403645 -0.144041
C93   C     C_R   0.751889 0.974034 0.621448 -0.156763
C94   C     C_R   0.389109 0.266354 0.992065 -0.142797
C95   C     C_R   0.593934 0.722900 0.048495 -0.147550
C96   C     C_R   0.933314 0.410979 0.278890 -0.142141
C97   C     C_R   0.028802 0.606331 0.726745 -0.146691
C98   C     C_R   0.707319 0.986704 0.705990 -0.123494
C99   C     C_R   0.707647 0.891511 0.472058 0.533191
C100  C     C_R   0.311158 0.983038 0.311068 -0.127492
C101  C     C_R   0.070542 0.675831 0.674935 -0.114905
C102  C     C_R   0.919410 0.325621 0.325333 -0.113144
C103  C     C_R   0.686404 0.686148 0.020716 -0.115686
C104  C     C_R   0.294767 0.295317 0.013600 -0.136543
C105  C     C_R   0.612534 0.986989 0.600709 0.064239
C106  C     C_R   0.420045 0.944236 0.418523 0.063559
C107  C     C_R   0.011004 0.603900 0.590196 0.056765
C108  C     C_R   0.941571 0.422532 0.415610 0.057314
C109  C     C_R   0.574054 0.573871 0.084572 0.065579
C110  C     C_R   0.574388 0.319731 0.019236 0.465287
C111  C     C_R   0.386745 0.386721 0.041322 0.063682
C112  C     C_3   0.340866 0.207838 0.569986 0.088344
C113  C     C_3   0.324365 0.212593 0.485113 -0.860084
C114  C     C_3   0.694065 0.017318 0.252642 0.105980
C115  C     C_3   0.790373 0.023177 0.201884 -0.809506
C116  C     C_3   0.106910 0.764046 0.254881 0.205300
C117  C     C_3   0.032929 0.853254 0.260248 -0.889758
C118  C     C_3   0.047518 0.257907 0.675191 0.095290
C119  C     C_3   0.061545 0.214121 0.769102 -0.794727
C120  C     C_3   0.642931 0.269283 0.245971 0.109307
H1    H     H_    0.436330 0.113609 0.727904 0.176688
H2    H     H_    0.403138 0.766930 0.100801 0.201404
H3    H     H_    0.893546 0.593355 0.235058 0.182368
H4    H     H_    0.901351 0.507786 0.806396 0.188937
H5    H     H_    0.404133 0.227014 0.551110 0.117486
H6    H     H_    0.284761 0.259803 0.599815 0.159909
H7    H     H_    0.261713 0.193205 0.503556 0.268132
H8    H     H_    0.316750 0.282791 0.438440 0.209035
H9    H     H_    0.382301 0.166268 0.449444 0.251364
H10   H     H_    0.666214 0.055098 0.303413 0.139795
H11   H     H_    0.653585 0.050416 0.203079 0.161385
H12   H     H_    0.593550 0.897374 0.236086 0.197084
H13   H     H_    0.819996 0.987916 0.149047 0.236556
H14   H     H_    0.790584 0.095354 0.168687 0.248586
H15   H     H_    0.832202 0.991348 0.249834 0.256599
H16   H     H_    0.132236 0.765556 0.182870 0.220121
H17   H     H_    0.167187 0.758590 0.271157 0.114087
H18   H     H_    0.002102 0.857718 0.330449 0.264890
H19   H     H_    0.062474 0.911065 0.218061 0.207191
H20   H     H_    0.978853 0.859980 0.234054 0.270557
H21   H     H_    0.088011 0.307870 0.635971 0.130933
H22   H     H_    0.073029 0.203951 0.641568 0.161339
H23   H     H_    0.109998 0.751647 0.409854 0.168818
H24   H     H_    0.022198 0.163692 0.810287 0.250039
H25   H     H_    0.134333 0.179155 0.763495 0.240017
H26   H     H_    0.039082 0.266754 0.803385 0.246864
H27   H     H_    0.640200 0.319700 0.275119 0.124643
H28   H     H_    0.691186 0.205173 0.273105 0.173509
H29   H     H_    0.551436 0.206530 0.245688 0.267282
H30   H     H_    0.533022 0.219727 0.353508 0.217247
H31   H     H_    0.497645 0.317008 0.263948 0.250069
H32   H     H_    0.255437 0.428147 0.280667 0.096893
H33   H     H_    0.156030 0.509907 0.319905 0.178163
H34   H     H_    0.920756 0.232550 0.594429 0.207967
H35   H     H_    0.251664 0.588413 0.329828 0.269160
H36   H     H_    0.266114 0.471965 0.400174 0.201434
H37   H     H_    0.350959 0.501198 0.294717 0.241900
H38   H     H_    0.395603 0.895506 0.728291 0.118419
H39   H     H_    0.297427 0.855772 0.765397 0.130844
H40   H     H_    0.210165 0.958909 0.856714 0.237813
H41   H     H_    0.319993 0.910565 0.877602 0.192928
H42   H     H_    0.292106 0.022734 0.804162 0.280123
H43   H     H_    0.709647 0.740662 0.566060 0.090430
H44   H     H_    0.817099 0.695566 0.495561 0.170928
H45   H     H_    0.761974 0.404526 0.123143 0.196823
H46   H     H_    0.738443 0.690455 0.397579 0.265824
H47   H     H_    0.707290 0.622771 0.513808 0.207181
H48   H     H_    0.631284 0.731354 0.473829 0.240623
H49   H     H_    0.702974 0.388533 0.914371 0.136693
H50   H     H_    0.712398 0.296992 0.876140 0.138678
H51   H     H_    0.834981 0.197234 0.951552 0.237595
H52   H     H_    0.863386 0.296887 0.865554 0.272050
H53   H     H_    0.827618 0.291355 0.983340 0.245616
H54   H     H_    0.329567 0.661130 0.973950 0.134766
H55   H     H_    0.346283 0.767143 0.956265 0.127495
H56   H     H_    0.169081 0.503125 0.120349 0.183710
H57   H     H_    0.179408 0.830358 0.013301 0.239198
H58   H     H_    0.206931 0.786330 0.920924 0.215169
H59   H     H_    0.163749 0.721588 0.035730 0.271279
H60   H     H_    0.853673 0.822119 0.227310 0.223311
H61   H     H_    0.824709 0.729277 0.235392 0.107548
H62   H     H_    0.924145 0.780992 0.081789 0.213797
H63   H     H_    0.003193 0.785632 0.126343 0.250094
H64   H     H_    0.995925 0.677720 0.136578 0.266389
H65   H     H_    0.766778 0.573656 0.672169 0.109820
H66   H     H_    0.713043 0.520309 0.786821 0.142956
H67   H     H_    0.229338 0.931724 0.594432 0.206554
H68   H     H_    0.699197 0.405452 0.736114 0.250208
H69   H     H_    0.644807 0.520490 0.681173 0.206033
H70   H     H_    0.752984 0.461057 0.620809 0.253810
H71   H     H_    0.825988 0.876181 0.502768 0.176502
H72   H     H_    0.576475 0.244497 0.944486 0.189126
N1    N     N_1   0.804767 0.957843 0.809328 -0.184847
N2    N     N_1   0.205537 0.100028 0.210384 -0.190796
N3    N     N_1   0.161028 0.723918 0.735217 -0.213915
N4    N     N_1   0.856588 0.254864 0.257882 -0.220464
N5    N     N_1   0.790673 0.781106 0.888030 -0.201599
N6    N     N_1   0.197151 0.194803 0.034356 -0.182151
O1    O     O_R   0.982940 0.138950 0.510160 -0.639534
O2    O     O_R   0.982940 0.510160 0.138950 -0.665821
O3    O     O_R   0.861050 0.017060 0.489840 -0.619157
O4    O     O_R   0.138950 0.982940 0.510160 -0.642688
O5    O     O_R   0.867700 0.025880 0.612340 -0.627483
O6    O     O_R   0.132300 0.974120 0.387660 -0.620215
O7    O     O_R   0.025880 0.612340 0.867700 -0.601339
O8    O     O_R   0.974120 0.387660 0.132300 -0.629361
O9    O     O_R   0.612340 0.867700 0.025880 -0.618052
O10   O     O_R   0.387660 0.132300 0.974120 -0.620525
O11   O     O_R   0.387660 0.974120 0.132300 -0.621615
O12   O     O_R   0.017060 0.861050 0.489840 -0.663273
O13   O     O_R   0.612340 0.025880 0.867700 -0.621593
O14   O     O_R   0.132300 0.387660 0.974120 -0.614410
O15   O     O_R   0.867700 0.612340 0.025880 -0.620507
O16   O     O_R   0.974120 0.132300 0.387660 -0.598213
O17   O     O_R   0.025880 0.867700 0.612340 -0.628613
O18   O     O_3   0.339489 0.121966 0.635019 -0.582569
O19   O     O_3   0.694424 0.925338 0.295244 -0.594102
O20   O     O_3   0.073956 0.686701 0.304743 -0.580087
O21   O     O_3   0.954517 0.300516 0.683095 -0.588298
O22   O     O_3   0.675181 0.293652 0.150249 -0.573805
O23   O     O_R   0.138950 0.510160 0.982940 -0.614490
O24   O     O_3   0.233002 0.565168 0.193373 -0.558000
O25   O     O_3   0.286704 0.984625 0.674407 -0.570378
O26   O     O_3   0.752499 0.823975 0.430002 -0.557509
O27   O     O_3   0.664371 0.276234 0.015003 -0.577628
O28   O     O_3   0.301852 0.695140 0.091216 -0.591598
O29   O     O_3   0.919412 0.702866 0.302805 -0.574971
O30   O     O_3   0.839332 0.440520 0.737258 -0.597038
O31   O     O_R   0.861050 0.489840 0.017060 -0.645246
O32   O     O_R   0.510160 0.982940 0.138950 -0.641042
O33   O     O_R   0.489840 0.017060 0.861050 -0.623602
O34   O     O_R   0.489840 0.861050 0.017060 -0.646086
O35   O     O_R   0.510160 0.138950 0.982940 -0.632291
O36   O     O_R   0.017060 0.489840 0.861050 -0.628362
Zn1   Zn    Zn3+2 0.004880 0.004880 0.583590 0.964423
Zn2   Zn    Zn3+2 0.995120 0.995120 0.416410 0.952996
Zn3   Zn    Zn3+2 0.004880 0.583590 0.004880 0.949736
Zn4   Zn    Zn3+2 0.995120 0.416410 0.995120 0.960700
Zn5   Zn    Zn3+2 0.583590 0.004880 0.004880 0.971922
Zn6   Zn    Zn3+2 0.416410 0.995120 0.995120 0.957857

loop_
_geom_bond_atom_site_label_1
_geom_bond_atom_site_label_2
_ccdc_geom_bond_type
C61   C70   A    
C48   C110  A    
C32   O34   A    
C18   H69   S    
C11   H51   S    
C24   C61   A    
C31   C85   S    
C96   C102  A    
C89   C102  A    
C59   C99   A    
C114  H11   S    
C117  H18   S    
O11   Zn6   S    
C93   C98   A    
C91   C104  A    
C118  H21   S    
O10   Zn6   S    
C30   O11   A    
C6    H39   S    
C60   C88   A    
C16   H63   S    
C33   C65   A    
C113  H8    S    
C48   C81   A    
C119  H26   S    
C7    H41   S    
C2    O28   S    
C42   C75   A    
C113  H9    S    
C54   C107  A    
C84   C97   A    
C12   H54   S    
C9    H46   S    
C42   H34   S    
C41   H23   S    
O15   Zn3   S    
C46   C79   A    
C42   C55   A    
C17   O30   S    
C16   H62   S    
C66   C69   A    
C49   H2    S    
C15   C16   S    
C45   C78   A    
C38   C92   S    
C43   C76   A    
C84   C107  A    
C47   C99   A    
C40   C73   A    
C44   C71   A    
O36   Zn4   S    
C118  C119  S    
C56   C108  A    
C10   H49   S    
C66   O22   S    
C25   N6    T    
O4    Zn1   S    
C87   C101  A    
C64   C110  A    
C53   C106  A    
C35   O7    A    
C23   C103  S    
C13   C62   A    
C81   C111  A    
C60   C67   A    
C17   H65   S    
C28   O23   A    
C31   O33   A    
C10   O27   S    
C39   C72   A    
C57   C63   A    
C78   C111  A    
C85   C98   A    
O12   Zn2   S    
C46   H67   S    
C30   C86   S    
C3    H31   S    
C86   C100  A    
C112  H6    S    
C14   H59   S    
C8    O26   S    
O9    Zn5   S    
C21   C101  S    
O31   Zn4   S    
C24   C51   A    
C4    H33   S    
C40   H12   S    
C76   C109  A    
C94   C104  A    
C75   C108  A    
C38   O6    A    
C15   H60   S    
C41   C74   A    
C27   O17   A    
C51   H4    S    
C114  H10   S    
C22   N4    T    
O32   Zn5   S    
C117  H19   S    
C47   C80   A    
C28   O14   A    
C20   N2    T    
C112  C113  S    
C6    H38   S    
C19   C98   S    
C95   C103  A    
C50   C83   A    
C72   C85   A    
C46   C88   A    
C43   H45   S    
C58   C64   A    
C4    H32   S    
C7    H42   S    
C57   C109  A    
C3    H29   S    
C33   C40   A    
C11   H53   S    
C54   C71   A    
C58   C111  A    
C55   C70   A    
C82   C109  A    
C36   O2    A    
C9    H47   S    
C44   O20   S    
C8    H44   S    
C45   H56   S    
C75   C89   A    
C8    C9    S    
O3    Zn2   S    
C55   O21   S    
C7    H40   S    
C115  H13   S    
C34   O10   A    
C5    H35   S    
C80   C105  A    
C110  O27   S    
C27   O12   A    
O2    Zn3   S    
C79   C106  A    
O23   Zn3   S    
O33   Zn6   S    
C26   C89   S    
C49   C82   A    
O7    Zn3   S    
O5    Zn1   S    
C2    C49   A    
O1    Zn1   S    
C52   C59   A    
C36   C96   S    
C29   O15   A    
C83   C108  A    
C20   C100  S    
C17   H66   S    
C120  O22   S    
C1    O18   S    
C53   C60   A    
C17   C18   S    
C37   O5    A    
C88   O25   S    
C37   C93   S    
O8    Zn4   S    
C35   O36   A    
C36   O8    A    
C64   C69   A    
C21   N3    T    
C32   O9    A    
C27   C87   S    
C26   O1    A    
C112  H5    S    
C14   H58   S    
C52   C67   A    
C12   H55   S    
C116  H16   S    
C74   C107  A    
C58   C68   A    
C54   C61   A    
C12   C14   S    
C52   C105  A    
C120  H28   S    
C56   C70   A    
C10   C11   S    
C74   C87   A    
C41   C44   A    
O13   Zn5   S    
C117  H20   S    
C119  H25   S    
C114  O19   S    
C119  H24   S    
C12   O28   S    
C53   C65   A    
C2    C63   A    
C92   C100  A    
C79   C92   A    
C116  H17   S    
C68   C77   A    
O17   Zn1   S    
C23   N5    T    
C99   O26   S    
C18   H70   S    
C3    H30   S    
C82   C95   A    
C116  C117  S    
C29   C90   S    
C9    H48   S    
O16   Zn2   S    
C50   H3    S    
C34   C94   S    
C4    C5    S    
C118  H22   S    
C8    H43   S    
C39   H1    S    
C13   O29   S    
C16   H64   S    
C25   C104  S    
C19   N1    T    
C6    C7    S    
C113  H7    S    
C115  H14   S    
C33   O19   S    
C78   C91   A    
C10   H50   S    
C5    H36   S    
C63   C68   A    
C5    H37   S    
C22   C102  S    
C26   O16   A    
C30   O32   A    
O35   Zn5   S    
C29   O31   A    
O6    Zn2   S    
C24   O30   S    
C59   C65   A    
C81   C94   A    
C73   C106  A    
C6    O25   S    
C115  H15   S    
C43   C66   A    
C4    O24   S    
C83   C96   A    
C15   H61   S    
C18   H68   S    
C1    C67   A    
C62   C71   A    
C28   C91   S    
C56   C62   A    
C114  C115  S    
C112  O18   S    
C47   H71   S    
C97   C101  A    
C90   C103  A    
C48   H72   S    
C14   H57   S    
C3    C120  S    
C1    C39   A    
C13   C50   A    
C77   O24   S    
C11   H52   S    
C32   C95   S    
C31   O13   A    
C72   C105  A    
C120  H27   S    
C38   O4    A    
C15   O29   S    
C118  O21   S    
O34   Zn6   S    
C37   O3    A    
C45   C77   A    
C73   C86   A    
C57   C69   A    
C80   C93   A    
C35   C97   S    
C34   O35   A    
C116  O20   S    
C51   C84   A    
O14   Zn4   S    
C76   C90   A    
