data_mof_unit_25175.cif
_audit_creation_date              2012-12-11T15:39:07-0500
_audit_creation_method            fapswitch 2.2
_symmetry_space_group_name_H-M    P1
_symmetry_Int_Tables_number       1
_space_group_crystal_system       triclinic
_cell_length_a                    14.286158
_cell_length_b                    14.801162
_cell_length_c                    33.250462
_cell_angle_alpha                 97.27019
_cell_angle_beta                  90.568143
_cell_angle_gamma                 118.699619
_cell_volume                      6097.31920655

loop_
_atom_site_label
_atom_site_type_symbol
_atom_type_description
_atom_site_fract_x
_atom_site_fract_y
_atom_site_fract_z
_atom_type_partial_charge
C1    C     C_R   0.618186 0.910144 0.437159 0.577203
C2    C     C_R   0.752677 0.428028 0.188651 0.006654
C3    C     C_R   0.685777 0.898078 0.659589 0.395991
C4    C     C_R   0.611548 0.794751 0.663673 0.083771
C5    C     C_R   0.629420 0.863667 0.587772 -0.089962
C6    C     C_R   0.049960 0.779268 0.064590 0.574074
C7    C     C_R   0.744563 0.487586 0.066586 0.560671
C8    C     C_R   0.741884 0.788606 0.066335 0.551748
C9    C     C_R   0.023271 0.733117 0.947989 0.608585
C10   C     C_R   0.711614 0.436567 0.949417 0.570053
C11   C     C_R   0.711517 0.738997 0.949418 0.593186
C12   C     C_R   0.837742 0.442153 0.164855 0.333508
C13   C     C_R   0.831901 0.454948 0.124211 -0.170658
C14   C     C_R   0.767412 0.337180 0.244174 -0.127198
C15   C     C_R   0.761106 0.321788 0.285222 0.302850
C16   C     C_R   0.744610 0.390876 0.313812 0.031089
C17   C     C_R   0.743079 0.477682 0.301892 -0.095790
C18   C     C_R   0.751524 0.493206 0.261367 0.458074
C19   C     C_R   0.760383 0.421131 0.232158 0.067279
C20   C     C_R   0.615831 0.347757 0.366990 -0.161262
C21   C     C_R   0.594459 0.206458 0.456714 0.560578
C22   C     C_R   0.577978 0.304914 0.402540 0.267332
C23   C     C_R   0.745089 0.303766 0.415265 -0.153461
C24   C     C_R   0.783025 0.348392 0.380352 0.426845
C25   C     C_R   0.716288 0.365632 0.354943 0.029472
C26   C     C_R   0.639891 0.274966 0.425252 -0.031880
C27   C     C_R   0.234314 0.878828 0.395546 -0.024021
C28   C     C_R   0.243304 0.967248 0.379695 0.196093
C29   C     C_R   0.206549 0.957098 0.339535 -0.157791
C30   C     C_R   0.154598 0.859988 0.315546 -0.054502
C31   C     C_R   0.133504 0.769864 0.332138 0.299660
C32   C     C_R   0.294089 0.893086 0.434757 0.579665
C33   C     C_R   0.173401 0.779572 0.372285 0.318120
C34   C     C_R   0.111939 0.754989 0.171120 0.234896
C35   C     C_R   0.098445 0.739717 0.128969 -0.170089
C36   C     C_R   0.116572 0.911577 0.129398 0.276759
C37   C     C_R   0.126090 0.926405 0.172638 0.251539
C38   C     C_R   0.120670 0.845887 0.193112 0.002437
C39   C     C_1   0.128166 0.854728 0.236672 0.076666
C40   C     C_1   0.136423 0.856513 0.272783 0.052070
C41   C     C_R   0.096041 0.814989 0.107569 -0.049915
C42   C     C_R   0.642495 0.880419 0.395581 -0.048725
C43   C     C_R   0.613689 0.904993 0.551701 0.558563
C44   C     C_R   0.561992 0.795107 0.368989 0.215301
C45   C     C_R   0.571400 0.789238 0.326469 0.239265
C46   C     C_R   0.666221 0.862080 0.311608 -0.020420
C47   C     C_R   0.752004 0.935891 0.338386 0.329890
C48   C     C_R   0.740288 0.948176 0.380180 0.239263
C49   C     C_R   0.759151 0.932357 0.170652 -0.199175
C50   C     C_R   0.770321 0.916143 0.129005 -0.215456
C51   C     C_R   0.627103 0.737628 0.124619 0.391194
C52   C     C_R   0.613673 0.754813 0.165912 0.320180
C53   C     C_R   0.684512 0.850197 0.189322 -0.021827
C54   C     C_R   0.589980 0.199092 0.571112 0.590968
C55   C     C_1   0.682904 0.859924 0.232681 0.057749
C56   C     C_1   0.677105 0.861494 0.268739 0.117055
C57   C     C_R   0.709656 0.816662 0.106191 -0.020968
C58   C     C_R   0.624496 0.248713 0.614343 -0.074696
C59   C     C_R   0.564342 0.287666 0.636358 0.359591
C60   C     C_R   0.577783 0.308510 0.678801 0.382978
C61   C     C_R   0.650943 0.290549 0.699964 -0.073389
C62   C     C_R   0.718910 0.261207 0.678473 0.233219
C63   C     C_R   0.707349 0.242410 0.635760 0.214270
C64   C     C_R   0.756303 0.336168 0.845515 0.218458
C65   C     C_R   0.291510 0.888315 0.549457 0.596456
C66   C     C_R   0.768357 0.365156 0.887773 0.367764
C67   C     C_R   0.584861 0.334044 0.886848 0.203925
C68   C     C_R   0.573976 0.306831 0.844455 0.330690
C69   C     C_R   0.660855 0.312815 0.823670 -0.083914
C70   C     C_1   0.654763 0.302572 0.779992 0.098440
C71   C     C_1   0.652154 0.296932 0.743530 0.105880
C72   C     C_R   0.685819 0.372044 0.908554 -0.089304
C73   C     C_R   0.080855 0.760939 0.911496 -0.007062
C74   C     C_R   0.143865 0.866069 0.906378 0.194191
C75   C     C_R   0.189405 0.889484 0.869351 -0.121809
C76   C     C_R   0.740766 0.453112 0.106658 -0.106332
C77   C     C_R   0.165145 0.809765 0.836830 -0.047750
C78   C     C_R   0.103407 0.704871 0.842292 0.287782
C79   C     C_R   0.065213 0.681085 0.880004 0.357008
C80   C     C_R   0.236430 0.789180 0.770918 -0.086544
C81   C     C_R   0.235883 0.791849 0.729345 0.398847
C82   C     C_R   0.184969 0.840018 0.711789 0.013691
C83   C     C_R   0.139572 0.890187 0.736659 0.338638
C84   C     C_R   0.140095 0.887748 0.778486 0.285351
C85   C     C_R   0.186799 0.834762 0.795531 -0.078953
C86   C     C_R   0.232084 0.945482 0.656253 -0.118702
C87   C     C_R   0.652935 0.432424 0.130116 0.421746
C88   C     C_R   0.253345 0.958220 0.616050 0.172315
C89   C     C_R   0.185918 0.771151 0.598917 0.374930
C90   C     C_R   0.160543 0.759108 0.638981 0.463947
C91   C     C_R   0.189172 0.847177 0.668201 -0.003430
C92   C     C_R   0.238101 0.871359 0.587617 -0.037632
C93   C     C_R   0.664676 0.742437 0.909869 -0.044486
C94   C     C_R   0.563636 0.661960 0.892669 0.305179
C95   C     C_R   0.530201 0.655263 0.851745 0.266540
C96   C     C_R   0.595114 0.733900 0.829165 0.013248
C97   C     C_R   0.692292 0.818399 0.846951 0.225699
C98   C     C_R   0.659263 0.420440 0.170807 0.419372
C99   C     C_R   0.727869 0.820951 0.886656 0.295880
C100  C     C_R   0.539068 0.797651 0.772895 0.296505
C101  C     C_R   0.547100 0.814376 0.731801 0.453546
C102  C     C_R   0.589264 0.765283 0.704664 0.035747
C103  C     C_R   0.611195 0.689867 0.716749 -0.119792
C104  C     C_R   0.602202 0.670831 0.757098 0.259543
C105  C     C_R   0.569213 0.727037 0.785403 0.090277
C106  C     C_R   0.554223 0.722542 0.628934 0.246042
C107  C     C_R   0.561915 0.758243 0.591266 -0.122702
C108  C     C_R   0.695378 0.931916 0.621776 -0.080809
Cr1   Cr    Cr6+3 0.424820 0.846020 0.489780 1.093933
Cr2   Cr    Cr6+3 0.657880 0.078580 0.505700 1.043184
Cr3   Cr    Cr6+3 0.417280 0.075360 0.504550 1.088950
Cr4   Cr    Cr6+3 0.903360 0.812540 0.006510 1.071493
Cr5   Cr    Cr6+3 0.914630 0.587050 0.006280 1.109653
Cr6   Cr    Cr6+3 0.673560 0.582680 0.008540 1.190061
H1    H     H_    0.796670 0.287295 0.433496 0.140551
H2    H     H_    0.082985 0.664523 0.113338 0.173181
H3    H     H_    0.900757 0.470688 0.107031 0.179208
H4    H     H_    0.222138 0.026377 0.326699 0.164000
H5    H     H_    0.830474 0.979575 0.115275 0.138583
H6    H     H_    0.811765 0.007360 0.188552 0.130272
H7    H     H_    0.272587 0.748510 0.783853 0.226274
H8    H     H_    0.239307 0.969843 0.865125 0.166462
H9    H     H_    0.255541 0.014115 0.678634 0.213833
H10   H     H_    0.771104 0.280575 0.221151 0.136147
H11   H     H_    0.638701 0.648275 0.695204 0.149283
H12   H     H_    0.509449 0.705096 0.565345 0.154060
H13   H     H_    0.748009 0.013343 0.619883 0.214279
H14   H     H_    0.731302 0.531277 0.323835 0.154550
H15   H     H_    0.564038 0.361664 0.347631 0.149734
O1    O     O_R   0.318160 0.824460 0.443680 -0.481203
O2    O     O_R   0.645130 0.163230 0.552140 -0.475947
O3    O     O_R   0.498360 0.178430 0.555780 -0.429451
O4    O     O_R   0.328690 0.978040 0.538950 -0.472601
O5    O     O_3   0.499990 0.999990 0.500010 -0.285047
O6    O     O_R   0.828710 0.851830 0.052170 -0.548195
O7    O     O_R   0.005980 0.823990 0.047210 -0.468035
O8    O     O_R   0.031900 0.688850 0.050170 -0.530568
O9    O     O_R   0.830940 0.518420 0.048680 -0.530348
O10   O     O_R   0.668160 0.499860 0.053480 -0.399821
O11   O     O_R   0.689170 0.693840 0.050110 -0.419326
O12   O     O_R   0.525040 0.857250 0.449830 -0.478927
O13   O     O_R   0.803860 0.812940 0.962540 -0.449434
O14   O     O_R   0.982950 0.787950 0.964120 -0.476819
O15   O     O_R   0.007050 0.649970 0.960540 -0.418771
O16   O     O_R   0.807910 0.482370 0.965590 -0.429488
O17   O     O_R   0.643310 0.460980 0.963840 -0.454640
O18   O     O_R   0.666140 0.657800 0.967020 -0.440304
O19   O     O_3   0.830520 0.660760 0.007110 -0.313437
O20   O     O_R   0.684760 0.998800 0.456360 -0.479139
O21   O     O_R   0.647540 0.166310 0.470260 -0.533388
O22   O     O_R   0.500960 0.181750 0.467450 -0.438518
O23   O     O_R   0.331100 0.981120 0.457080 -0.469469
O24   O     O_R   0.315560 0.821140 0.532010 -0.437966
O25   O     O_R   0.522630 0.854180 0.531710 -0.493802
O26   O     O_R   0.682160 0.995480 0.544690 -0.486739
F1    F     F_    0.562350 0.427690 0.114376 -0.502777
O27   O     O_3   0.476073 0.282375 0.412342 -0.505038
C109  C     C_3   0.479350 0.375503 0.430318 -0.094549
H16   H     H_    0.500343 0.431895 0.408351 0.132078
H17   H     H_    0.536171 0.411610 0.458091 0.116808
H18   H     H_    0.398633 0.357098 0.439762 0.136724
F2    F     F_    0.928162 0.448211 0.181446 -0.610052
O28   O     O_3   0.104276 0.675377 0.191086 -0.492557
C110  C     C_3   0.200069 0.670356 0.188126 -0.096840
H19   H     H_    0.269649 0.744173 0.203117 0.082205
H20   H     H_    0.213905 0.651896 0.155990 0.118011
H21   H     H_    0.193813 0.606605 0.204155 0.145192
O29   O     O_3   0.069310 0.672581 0.309813 -0.489688
C111  C     C_3   0.134969 0.633018 0.293258 -0.044426
H22   H     H_    0.172423 0.612327 0.317349 0.147088
H23   H     H_    0.197378 0.688936 0.275876 0.075617
H24   H     H_    0.084403 0.560737 0.271772 0.188464
F3    F     F_    0.152866 0.692530 0.388302 -0.607230
O30   O     O_3   0.297486 0.066022 0.401859 -0.490852
C112  C     C_3   0.221367 0.093427 0.417226 -0.039323
H25   H     H_    0.177527 0.105050 0.392307 0.128777
H26   H     H_    0.163960 0.034398 0.435098 0.108809
H27   H     H_    0.263925 0.168140 0.438170 0.152584
O31   O     O_3   0.146866 0.021552 0.194056 -0.530672
C113  C     C_3   0.054083 0.011320 0.212469 -0.106888
H28   H     H_    0.978250 0.956416 0.193480 0.098169
H29   H     H_    0.058069 0.088673 0.217184 0.150190
H30   H     H_    0.051379 0.987180 0.242869 0.156278
O32   O     O_3   0.134154 0.992299 0.108139 -0.510213
C114  C     C_3   0.049186 0.015050 0.111683 -0.038815
H31   H     H_    0.972035 0.946459 0.116288 0.098988
H32   H     H_    0.037358 0.040907 0.083082 0.152691
H33   H     H_    0.070000 0.080357 0.136688 0.158524
F4    F     F_    0.847216 0.996657 0.323706 -0.655091
O33   O     O_3   0.826362 0.022027 0.406637 -0.524470
C115  C     C_3   0.853104 0.123396 0.399372 -0.017490
H34   H     H_    0.782066 0.130364 0.389836 0.118974
H35   H     H_    0.912881 0.148707 0.376407 0.193357
H36   H     H_    0.890950 0.178059 0.428041 0.134257
O34   O     O_3   0.483204 0.712445 0.385545 -0.539713
C116  C     C_3   0.380741 0.698860 0.375498 -0.012026
H37   H     H_    0.381074 0.773241 0.372712 0.101347
H38   H     H_    0.329242 0.664573 0.400145 0.201127
H39   H     H_    0.343614 0.641731 0.347425 0.153987
O35   O     O_3   0.540103 0.673875 0.184545 -0.462259
C117  C     C_3   0.437185 0.660162 0.175218 -0.049239
H40   H     H_    0.434414 0.734200 0.183055 0.040341
H41   H     H_    0.380005 0.603039 0.193528 0.152884
H42   H     H_    0.409662 0.627997 0.142659 0.185523
F5    F     F_    0.563894 0.640708 0.103735 -0.557837
O36   O     O_3   0.492724 0.706428 0.300165 -0.499916
C118  C     C_3   0.428741 0.740179 0.280990 -0.119488
H43   H     H_    0.470732 0.787896 0.257242 0.124232
H44   H     H_    0.402052 0.784865 0.302866 0.067182
H45   H     H_    0.356140 0.670446 0.265697 0.121588
F6    F     F_    0.863644 0.392662 0.907816 -0.522985
F7    F     F_    0.882785 0.370000 0.370327 -0.605508
O37   O     O_3   0.843287 0.343740 0.825373 -0.505182
C119  C     C_3   0.837556 0.245283 0.820111 -0.072507
H46   H     H_    0.764270 0.186056 0.800809 0.099571
H47   H     H_    0.840832 0.219702 0.849931 0.138529
H48   H     H_    0.907708 0.251008 0.804238 0.173739
O38   O     O_3   0.788027 0.237370 0.698388 -0.489217
C120  C     C_3   0.878557 0.330188 0.716471 -0.080801
H49   H     H_    0.862081 0.356944 0.746821 0.143751
H50   H     H_    0.906125 0.394008 0.697541 0.104220
H51   H     H_    0.945489 0.313561 0.721005 0.185939
O39   O     O_3   0.769260 0.205280 0.615776 -0.513121
C121  C     C_3   0.857695 0.289415 0.602283 -0.050083
H52   H     H_    0.912750 0.345250 0.628322 0.147627
H53   H     H_    0.832495 0.330699 0.582578 0.112726
H54   H     H_    0.903128 0.258435 0.583834 0.149228
F8    F     F_    0.488326 0.300488 0.617047 -0.599933
F9    F     F_    0.480029 0.279930 0.823439 -0.602838
O40   O     O_3   0.499581 0.334382 0.905948 -0.487582
C122  C     C_3   0.438746 0.236657 0.918798 -0.047310
H55   H     H_    0.486918 0.221782 0.940931 0.110631
H56   H     H_    0.405014 0.172614 0.892466 0.138437
H57   H     H_    0.370497 0.236573 0.934447 0.161613
F10   F     F_    0.514726 0.340528 0.699400 -0.547231
O41   O     O_3   0.164984 0.944341 0.938561 -0.551905
C123  C     C_3   0.125181 0.009422 0.927642 -0.068067
H58   H     H_    0.042012 0.963914 0.912901 0.187561
H59   H     H_    0.178955 0.063841 0.907625 0.116932
H60   H     H_    0.122874 0.057314 0.955712 0.156875
F11   F     F_    0.005404 0.579421 0.884540 -0.526809
F12   F     F_    0.112857 0.662195 0.649698 -0.557101
O42   O     O_3   0.754946 0.232500 0.297135 -0.550301
C124  C     C_3   0.838992 0.216034 0.282722 -0.066602
H61   H     H_    0.916717 0.289767 0.285072 0.156275
H62   H     H_    0.817789 0.174500 0.250995 0.102452
H63   H     H_    0.850197 0.165194 0.301788 0.193480
F13   F     F_    0.285947 0.748202 0.706351 -0.523907
F14   F     F_    0.092913 0.939910 0.720312 -0.610410
O43   O     O_3   0.100311 0.942199 0.802868 -0.528219
C125  C     C_3   0.989209 0.878537 0.804054 -0.058852
H64   H     H_    0.958121 0.924539 0.822487 0.207751
H65   H     H_    0.971295 0.809958 0.819266 0.069422
H66   H     H_    0.946484 0.853380 0.773162 0.170305
O44   O     O_3   0.304484 0.058326 0.606575 -0.496011
C126  C     C_3   0.227236 0.090110 0.601211 -0.028790
H67   H     H_    0.163685 0.036163 0.576903 0.090475
H68   H     H_    0.267234 0.168215 0.591519 0.190214
H69   H     H_    0.191168 0.097010 0.630164 0.151659
O45   O     O_3   0.079209 0.625022 0.810560 -0.497535
C127  C     C_3   0.978132 0.595540 0.791336 -0.062439
H70   H     H_    0.975154 0.662479 0.780739 0.056992
H71   H     H_    0.913132 0.557956 0.811600 0.170334
H72   H     H_    0.963404 0.538321 0.763902 0.143715
F15   F     F_    0.164363 0.685538 0.571803 -0.560681
F16   F     F_    0.498606 0.589094 0.915194 -0.583356
F17   F     F_    0.828040 0.896501 0.901133 -0.645426
F18   F     F_    0.744697 0.967637 0.692720 -0.583674
F19   F     F_    0.514477 0.877859 0.717765 -0.583337
O46   O     O_3   0.497932 0.843524 0.801570 -0.566741
C128  C     C_3   0.532966 0.949288 0.798731 -0.057910
H73   H     H_    0.474053 0.956035 0.779068 0.201232
H74   H     H_    0.614485 0.990057 0.787867 0.143134
H75   H     H_    0.536317 0.990242 0.829497 0.106510
O47   O     O_3   0.432707 0.575185 0.833745 -0.519388
C129  C     C_3   0.431668 0.478711 0.831480 0.054856
H76   H     H_    0.403294 0.444118 0.859619 0.222169
H77   H     H_    0.510812 0.484235 0.825574 0.173416
H78   H     H_    0.373953 0.424197 0.805848 0.190044
O48   O     O_3   0.621595 0.594466 0.768804 -0.531403
C130  C     C_3   0.732800 0.630931 0.772195 -0.120404
H79   H     H_    0.774264 0.701429 0.795530 0.116493
H80   H     H_    0.767915 0.646671 0.742499 0.119710
H81   H     H_    0.746892 0.569563 0.782312 0.132003
O49   O     O_3   0.479096 0.621726 0.633283 -0.519466
C131  C     C_3   0.506024 0.550870 0.611070 -0.064504
H82   H     H_    0.591099 0.572025 0.618233 0.108497
H83   H     H_    0.489180 0.544426 0.577833 0.110063
H84   H     H_    0.455338 0.472737 0.619772 0.228565
O50   O     O_3   0.758872 0.888948 0.822591 -0.580058
C132  C     C_3   0.783870 0.991455 0.838873 -0.069089
H85   H     H_    0.857889 0.028978 0.859701 0.194586
H86   H     H_    0.717270 0.995940 0.854539 0.113445
H87   H     H_    0.800767 0.037074 0.813351 0.128490
F20   F     F_    0.574486 0.402688 0.193066 -0.529056
F21   F     F_    0.746696 0.576197 0.250312 -0.562372

loop_
_geom_bond_atom_site_label_1
_geom_bond_atom_site_label_2
_ccdc_geom_bond_type
C65   C92   S    
C7    O10   A    
C21   C26   S    
C45   O36   S    
C22   O27   S    
C128  H75   S    
C106  O49   S    
C117  H41   S    
C111  H22   S    
C95   C96   A    
C87   F1    S    
Cr3   O5    S    
C20   H15   S    
C55   C56   T    
Cr2   O20   S    
C2    C12   A    
C121  H52   S    
C104  O48   S    
C80   C85   A    
C32   O1    A    
C81   C82   A    
C24   F7    S    
O38   C120  S    
C125  H64   S    
C112  H26   S    
C100  O46   S    
C77   C78   A    
O32   C114  S    
C130  H81   S    
C54   O2    A    
C54   O3    A    
C99   F17   S    
C100  C105  A    
O49   C131  S    
C9    C73   S    
C28   O30   S    
C62   O38   S    
Cr5   O19   S    
C28   C29   A    
C132  H86   S    
C37   C38   A    
Cr6   O18   S    
C34   C35   A    
C86   C91   A    
C86   H9    S    
C54   C58   S    
C131  H82   S    
C80   C81   A    
C86   C88   A    
C114  H32   S    
C49   H6    S    
C20   C25   A    
Cr4   O13   S    
O42   C124  S    
C75   H8    S    
C126  H69   S    
O44   C126  S    
C16   C25   S    
C95   O47   S    
C124  H61   S    
O50   C132  S    
C73   C74   A    
C23   C26   A    
Cr5   O16   S    
C35   H2    S    
O30   C112  S    
Cr5   O9    S    
C6    O7    A    
Cr2   O26   S    
C109  H18   S    
C84   C85   A    
O27   C109  S    
C66   C72   A    
C88   C92   A    
C67   O40   S    
C16   C17   A    
O36   C118  S    
C6    C41   S    
C126  H68   S    
O35   C117  S    
C118  H45   S    
C65   O24   A    
C23   C24   A    
C129  H78   S    
C1    O20   A    
C70   C71   T    
C51   C57   A    
Cr6   O11   S    
C88   O44   S    
C43   O25   A    
C33   F3    S    
C93   C99   A    
C48   O33   S    
C61   C62   A    
C113  H30   S    
C47   C48   A    
C87   C98   A    
C11   C93   S    
C132  H85   S    
C21   O22   A    
C128  H73   S    
C2    C19   S    
C77   C85   S    
C59   C60   A    
C123  H58   S    
C83   F14   S    
C8    O6    A    
C109  H17   S    
C111  H23   S    
C81   F13   S    
C110  H19   S    
C36   C41   A    
O40   C122  S    
C60   F10   S    
C42   C44   A    
Cr4   O7    S    
C116  H39   S    
C43   O26   A    
C104  C105  A    
C97   C99   A    
C9    O15   A    
C113  H29   S    
C112  H27   S    
C80   H7    S    
C53   C55   S    
C126  H67   S    
C9    O14   A    
C37   O31   S    
C15   O42   S    
C14   H10   S    
C74   C75   A    
C84   O43   S    
C118  H43   S    
C101  C102  A    
C63   O39   S    
C64   O37   S    
C67   C72   A    
C132  H87   S    
C1    O12   A    
C24   C25   A    
Cr6   O17   S    
O39   C121  S    
C116  H38   S    
C34   O28   S    
C121  H53   S    
C120  H49   S    
C127  H71   S    
C119  H46   S    
C68   C69   A    
C125  H66   S    
Cr2   O21   S    
C130  H79   S    
O37   C119  S    
C12   C13   A    
C101  F19   S    
C27   C33   A    
C82   C91   S    
C67   C68   A    
C4    C102  S    
C60   C61   A    
C64   C66   A    
C47   F4    S    
C115  H35   S    
O33   C115  S    
C62   C63   A    
Cr1   O25   S    
C119  H47   S    
C8    C57   S    
C120  H50   S    
O41   C123  S    
C83   C84   A    
C32   O23   A    
C13   C76   A    
C30   C31   A    
C96   C97   A    
C127  H72   S    
C31   C33   A    
C17   C18   A    
C73   C79   A    
C30   C40   S    
Cr2   O2    S    
C122  H56   S    
C93   C94   A    
C42   C48   A    
Cr6   O10   S    
O48   C130  S    
C89   C92   A    
C59   F8    S    
C75   C77   A    
C76   C87   A    
C35   C41   A    
C10   O17   A    
C36   O32   S    
O29   C111  S    
C122  H55   S    
O47   C129  S    
C20   C22   A    
Cr3   O3    S    
C82   C83   A    
C94   C95   A    
C123  H59   S    
C22   C26   A    
C109  H16   S    
C111  H24   S    
Cr5   O8    S    
C58   C59   A    
Cr4   O6    S    
C74   O41   S    
C3    C4    A    
C89   C90   A    
C121  H54   S    
Cr1   O1    S    
Cr1   O24   S    
C68   F9    S    
Cr4   O14   S    
C96   C105  S    
C118  H44   S    
C5    C107  A    
C58   C63   A    
C128  H74   S    
Cr2   O5    S    
C18   F21   S    
C46   C47   A    
C98   F20   S    
C44   O34   S    
C3    F18   S    
C131  H84   S    
Cr1   O5    S    
C34   C38   A    
C50   C57   A    
C21   O21   A    
C14   C19   A    
C110  H21   S    
Cr3   O4    S    
C44   C45   A    
C107  H12   S    
C129  H77   S    
C116  H37   S    
C114  H33   S    
C119  H48   S    
Cr3   O22   S    
C7    O9    A    
C13   H3    S    
C51   F5    S    
C17   H14   S    
C7    C76   S    
C94   F16   S    
C12   F2    S    
C3    C108  A    
C130  H80   S    
C64   C69   A    
C29   H4    S    
C114  H31   S    
C18   C19   A    
Cr5   O15   S    
C50   H5    S    
C117  H40   S    
C8    O11   A    
C6    O8    A    
C90   F12   S    
O43   C125  S    
C115  H36   S    
Cr6   O19   S    
C51   C52   A    
C112  H25   S    
C52   O35   S    
O45   C127  S    
C120  H51   S    
C131  H83   S    
C129  H76   S    
C78   C79   A    
Cr3   O23   S    
C11   O18   A    
C90   C91   A    
C38   C39   S    
C4    C106  A    
C49   C53   A    
C15   C16   A    
C61   C71   S    
C110  H20   S    
C100  C101  A    
C117  H42   S    
C23   H1    S    
C124  H62   S    
O46   C128  S    
C122  H57   S    
C89   F15   S    
C79   F11   S    
C108  H13   S    
C5    C43   S    
C102  C103  A    
C115  H34   S    
C11   O13   A    
C69   C70   S    
O28   C110  S    
C125  H65   S    
C27   C32   S    
C10   O16   A    
C29   C30   A    
O34   C116  S    
C39   C40   T    
Cr4   O19   S    
C1    C42   S    
C31   O29   S    
C2    C98   A    
C36   C37   A    
C49   C50   A    
C106  C107  A    
C123  H60   S    
C46   C56   S    
C103  C104  A    
C127  H70   S    
O31   C113  S    
C78   O45   S    
C14   C15   A    
Cr1   O12   S    
C124  H63   S    
C66   F6    S    
C103  H11   S    
C65   O4    A    
C113  H28   S    
C97   O50   S    
C52   C53   A    
C45   C46   A    
C27   C28   A    
C5    C108  A    
C10   C72   S    
