data_mof_unit_10714.cif
_audit_creation_date              2012-10-26T18:47:36-0400
_audit_creation_method            fapswitch 2.2
_symmetry_space_group_name_H-M    P1
_symmetry_Int_Tables_number       1
_space_group_crystal_system       triclinic
_cell_length_a                    11.239175
_cell_length_b                    13.008243
_cell_length_c                    11.995939
_cell_angle_alpha                 97.925507
_cell_angle_beta                  93.104434
_cell_angle_gamma                 100.094378
_cell_volume                      1704.66208409

loop_
_atom_site_label
_atom_site_type_symbol
_atom_type_description
_atom_site_fract_x
_atom_site_fract_y
_atom_site_fract_z
_atom_type_partial_charge
C1    C     C_R   0.505255 0.300127 0.479396 0.585214
C2    C     C_R   0.449072 0.969782 0.644925 -0.021323
C3    C     C_R   0.529534 0.126943 0.362263 -0.035989
C4    C     C_R   0.424763 0.858425 0.629369 -0.028876
C5    C     C_R   0.495176 0.132466 0.559731 -0.123255
C6    C     C_R   0.450246 0.853099 0.431621 -0.116464
C7    C     C_R   0.474933 0.022475 0.549890 0.015858
C8    C     C_R   0.468638 0.963361 0.440867 0.019643
C9    C     C_R   0.381620 0.396290 0.026807 -0.130389
C10   C     C_R   0.602538 0.620650 0.973531 -0.137364
C11   C     C_R   0.398676 0.397702 0.143697 0.153505
C12   C     C_R   0.484862 0.696491 0.519655 0.572786
C13   C     C_R   0.594141 0.607919 0.854308 0.159842
C14   C     C_R   0.544899 0.557363 0.155477 0.195961
C15   C     C_R   0.460457 0.444482 0.849275 0.163644
C16   C     C_R   0.261723 0.494711 0.499760 0.573464
C17   C     C_R   0.737946 0.503350 0.500209 0.576978
C18   C     C_R   0.533832 0.549526 0.033754 0.034202
C19   C     C_R   0.455919 0.465123 0.969555 0.016906
C20   C     C_R   0.167995 0.529967 0.111557 -0.033747
C21   C     C_R   0.820987 0.450254 0.883448 -0.035298
C22   C     C_R   0.158208 0.551628 0.229283 0.054190
C23   C     C_R   0.872309 0.503055 0.500785 0.004773
C24   C     C_R   0.835488 0.431955 0.766088 0.050602
C25   C     C_R   0.098456 0.469572 0.284314 0.002586
C26   C     C_R   0.897395 0.516342 0.715240 -0.003744
C27   C     C_R   0.047908 0.368701 0.222397 0.032392
C28   C     C_R   0.947389 0.615517 0.780882 0.020777
C29   C     C_R   0.044213 0.353114 0.102862 0.007096
C30   C     C_R   0.946591 0.627545 0.900143 -0.009385
C31   C     C_R   0.106223 0.434318 0.049894 -0.152585
C32   C     C_R   0.881567 0.544462 0.948641 -0.163438
C33   C     C_R   0.933168 0.506421 0.400983 0.023714
C34   C     C_R   0.126566 0.491166 0.499315 0.007943
C35   C     C_R   0.065360 0.486797 0.599154 0.016463
C36   C     C_3   0.426284 0.329501 0.797508 -0.202525
C37   C     C_3   0.298194 0.301759 0.738526 -0.308735
C38   C     C_3   0.244120 0.184082 0.719159 -0.476906
C39   C     C_3   0.647689 0.640349 0.219476 -0.214624
C40   C     C_3   0.627392 0.755080 0.230346 -0.323116
C41   C     C_3   0.740071 0.836044 0.217898 -0.481518
C42   C     C_3   0.678316 0.690225 0.804049 -0.214420
C43   C     C_3   0.648770 0.801105 0.829319 -0.298450
C44   C     C_3   0.718265 0.875752 0.757641 -0.451707
C45   C     C_R   0.941879 0.495894 0.600817 -0.030338
C46   C     C_3   0.343383 0.299374 0.191305 -0.219827
C47   C     C_3   0.273388 0.204453 0.108708 -0.368864
C48   C     C_3   0.221688 0.113607 0.169975 -0.449589
C49   C     C_2   0.237717 0.606263 0.047211 0.189351
C50   C     C_2   0.743473 0.375060 0.944323 0.173509
C51   C     C_2   0.198929 0.661917 0.290748 0.241546
C52   C     C_2   0.795955 0.323722 0.699759 0.247841
C53   C     C_2   0.995751 0.283046 0.286851 0.249089
C54   C     C_2   0.996627 0.705306 0.720144 0.251611
C55   C     C_3   0.973822 0.250385 0.034276 -0.219969
C56   C     C_R   0.055667 0.494457 0.398674 -0.018530
C57   C     C_3   0.994463 0.231906 0.908210 -0.338113
C58   C     C_3   0.925242 0.124278 0.851482 -0.451265
C59   C     C_3   0.003553 0.732992 0.971632 -0.225175
C60   C     C_3   0.988822 0.740944 0.098117 -0.344681
C61   C     C_3   0.048405 0.849061 0.161307 -0.455016
C62   C     C_2   0.873940 0.528216 0.296455 0.226845
C63   C     C_2   0.122589 0.464593 0.704586 0.225928
C64   C     C_2   0.354948 0.800684 0.710757 0.280432
C65   C     C_2   0.593631 0.179126 0.273786 0.251589
C66   C     C_2   0.479006 0.956880 0.229115 0.155062
C67   C     C_R   0.452661 0.803508 0.527606 0.028562
C68   C     C_2   0.448681 0.028480 0.760201 0.156772
C69   C     C_R   0.513363 0.185721 0.467034 0.026707
C70   C     C_R   0.492153 0.015899 0.345632 -0.023445
Cu1   Cu    Cu3+1 0.509250 0.507730 0.615930 0.982571
Cu2   Cu    Cu3+1 0.490750 0.492270 0.384070 0.974765
H1    H     H_    0.109601 0.423647 0.959299 0.116567
H2    H     H_    0.239924 0.339332 0.796058 0.157848
H3    H     H_    0.295358 0.331891 0.656912 0.196881
H4    H     H_    0.500467 0.310916 0.749928 0.214836
H5    H     H_    0.432553 0.276303 0.861541 0.168625
H6    H     H_    0.819468 0.820343 0.267445 0.158728
H7    H     H_    0.757789 0.836604 0.128079 0.146288
H8    H     H_    0.726299 0.916443 0.252197 0.164285
H9    H     H_    0.551394 0.763419 0.171456 0.237350
H10   H     H_    0.608172 0.776994 0.317947 0.167295
H11   H     H_    0.666976 0.625376 0.304961 0.191738
H12   H     H_    0.873502 0.553021 0.038532 0.125766
H13   H     H_    0.730762 0.632528 0.176654 0.106952
H14   H     H_    0.817467 0.882891 0.776724 0.155236
H15   H     H_    0.694957 0.846346 0.666339 0.150670
H16   H     H_    0.694017 0.954943 0.776700 0.194111
H17   H     H_    0.551146 0.797393 0.813840 0.187163
H18   H     H_    0.673398 0.833846 0.919820 0.148345
H19   H     H_    0.768617 0.697789 0.845366 0.110308
H20   H     H_    0.688754 0.667285 0.714206 0.191452
H21   H     H_    0.295311 0.086996 0.217130 0.184682
H22   H     H_    0.156314 0.138038 0.229765 0.157957
H23   H     H_    0.312177 0.337866 0.978009 0.087465
H24   H     H_    0.173899 0.046964 0.106633 0.160738
H25   H     H_    0.198347 0.226978 0.062261 0.170232
H26   H     H_    0.334497 0.175777 0.046288 0.171354
H27   H     H_    0.420389 0.265945 0.217953 0.186557
H28   H     H_    0.288388 0.320192 0.262154 0.160399
H29   H     H_    0.211581 0.604339 0.959018 0.186120
H30   H     H_    0.744765 0.390650 0.035195 0.187580
H31   H     H_    0.223192 0.727424 0.245011 0.183889
H32   H     H_    0.783907 0.254512 0.741288 0.167920
H33   H     H_    0.033478 0.282910 0.372030 0.089113
H34   H     H_    0.665869 0.687057 0.017674 0.100929
H35   H     H_    0.965836 0.703469 0.632493 0.102958
H36   H     H_    0.959626 0.060146 0.888130 0.157269
H37   H     H_    0.827039 0.117945 0.863158 0.199999
H38   H     H_    0.937420 0.114449 0.759651 0.149179
H39   H     H_    0.963299 0.293626 0.865810 0.152924
H40   H     H_    0.092162 0.235385 0.897124 0.150517
H41   H     H_    0.998499 0.182221 0.070524 0.176426
H42   H     H_    0.875666 0.248037 0.043194 0.219191
H43   H     H_    0.145685 0.866214 0.145456 0.211626
H44   H     H_    0.002153 0.911096 0.133654 0.154555
H45   H     H_    0.437244 0.804803 0.350233 0.189102
H46   H     H_    0.041707 0.850096 0.253438 0.158648
H47   H     H_    0.891676 0.726835 0.111125 0.154608
H48   H     H_    0.029276 0.679902 0.132903 0.153613
H49   H     H_    0.102125 0.749002 0.960299 0.213024
H50   H     H_    0.961926 0.796373 0.940716 0.169054
H51   H     H_    0.897337 0.606052 0.272572 0.051679
H52   H     H_    0.082223 0.394218 0.737319 0.048094
H53   H     H_    0.354380 0.835542 0.798080 0.101273
H54   H     H_    0.572452 0.148249 0.184952 0.090234
H55   H     H_    0.549572 0.971391 0.172115 0.112116
H56   H     H_    0.492633 0.176826 0.639896 0.172427
H57   H     H_    0.371488 0.011865 0.809517 0.105461
H58   H     H_    0.287927 0.140858 0.652395 0.160702
H59   H     H_    0.251340 0.150070 0.798650 0.153297
H60   H     H_    0.146598 0.173190 0.690288 0.147096
N1    N     N_R   0.523180 0.519350 0.790130 -0.212312
N2    N     N_R   0.476820 0.480650 0.209870 -0.217479
O1    O     O_R   0.506570 0.354460 0.582000 -0.530935
O2    O     O_2   0.674360 0.297249 0.895656 -0.527043
O3    O     O_2   0.203313 0.682696 0.393322 -0.506820
O4    O     O_2   0.778055 0.309261 0.597177 -0.489379
O5    O     O_2   0.908934 0.214676 0.248726 -0.484572
O6    O     O_2   0.072292 0.780812 0.764714 -0.520748
O7    O     O_2   0.806756 0.457617 0.233639 -0.480429
O8    O     O_2   0.200798 0.529899 0.762299 -0.466229
O9    O     O_2   0.292239 0.714030 0.679404 -0.377084
O10   O     O_2   0.673776 0.256621 0.299856 -0.364739
O11   O     O_2   0.385992 0.894613 0.194012 -0.524339
O12   O     O_R   0.493430 0.645540 0.418000 -0.532778
O13   O     O_2   0.537129 0.093057 0.802698 -0.500705
O14   O     O_R   0.490940 0.341410 0.386200 -0.510968
O15   O     O_R   0.509060 0.658590 0.613800 -0.502221
O16   O     O_R   0.327460 0.506540 0.597900 -0.431087
O17   O     O_R   0.672540 0.493460 0.402100 -0.460222
O18   O     O_R   0.311830 0.493480 0.402100 -0.510391
O19   O     O_R   0.688170 0.506520 0.597900 -0.517405
O20   O     O_2   0.327707 0.668706 0.089845 -0.514619

loop_
_geom_bond_atom_site_label_1
_geom_bond_atom_site_label_2
_ccdc_geom_bond_type
C59   H49   S    
C30   C32   A    
C46   H27   S    
C34   C56   A    
C23   C45   A    
C27   C29   A    
C58   H37   S    
C14   C18   A    
C2    C7    A    
C25   C56   S    
C37   H2    S    
C17   O19   A    
C41   H8    S    
C63   H52   S    
C7    C8    A    
C3    C65   S    
C15   C19   A    
C20   C49   S    
C47   H26   S    
C48   H22   S    
C54   H35   S    
C38   H58   S    
C10   C18   A    
C36   C37   S    
C3    C69   A    
C24   C26   A    
C18   C19   A    
C2    C68   S    
C24   C52   S    
Cu1   O1    S    
C34   C35   A    
C31   H1    S    
C57   H40   S    
C51   H31   S    
Cu1   O19   S    
C66   H55   S    
C60   H47   S    
C42   H19   S    
C12   O12   A    
C13   C42   S    
C66   O11   D    
C5    C69   A    
C36   H4    S    
C26   C45   S    
C16   C34   S    
C14   C39   S    
Cu1   O15   S    
C9    C19   A    
C54   O6    D    
C33   C62   S    
C23   C33   A    
C22   C25   A    
C61   H43   S    
C52   O4    D    
C44   H15   S    
C9    H23   S    
C6    H45   S    
C58   H36   S    
C33   C56   A    
C37   H3    S    
C59   C60   S    
C53   O5    D    
C17   O17   A    
C44   H14   S    
C40   H9    S    
C62   H51   S    
C21   C32   A    
C55   H41   S    
C32   H12   S    
C12   C67   S    
C43   H18   S    
C48   H21   S    
C40   H10   S    
C49   O20   D    
C3    C70   A    
C11   N2    A    
C41   H6    S    
C5    C7    A    
C65   O10   D    
C28   C54   S    
C6    C8    A    
C14   N2    A    
Cu2   O18   S    
Cu2   O14   S    
C1    C69   S    
C60   C61   S    
C38   H60   S    
C2    C4    A    
C43   C44   S    
Cu1   N1    S    
C37   C38   S    
Cu2   N2    S    
C47   C48   S    
Cu2   O17   S    
C30   C59   S    
C61   H44   S    
C16   O18   A    
C17   C23   S    
C9    C11   A    
C68   O13   D    
C51   O3    D    
C40   C41   S    
C64   O9    D    
C20   C22   A    
C50   H30   S    
C55   C57   S    
C10   H34   S    
C42   C43   S    
C39   H13   S    
C62   O7    D    
C35   C45   A    
C15   C36   S    
C39   C40   S    
C46   H28   S    
C46   C47   S    
C6    C67   A    
C48   H24   S    
C61   H46   S    
C58   H38   S    
C13   N1    A    
C12   O15   A    
C1    O14   A    
C10   C13   A    
C47   H25   S    
C41   H7    S    
C4    C67   A    
C16   O16   A    
C27   C53   S    
C15   N1    A    
C55   H42   S    
C25   C27   A    
C29   C55   S    
C4    C64   S    
C26   C28   A    
C8    C70   A    
C36   H5    S    
C38   H59   S    
C28   C30   A    
C39   H11   S    
Cu1   Cu2   S    
C29   C31   A    
C50   O2    D    
C65   H54   S    
C49   H29   S    
C57   C58   S    
C57   H39   S    
C59   H50   S    
Cu2   O12   S    
C5    H56   S    
C63   O8    D    
C52   H32   S    
C60   H48   S    
C42   H20   S    
C43   H17   S    
C68   H57   S    
Cu1   O16   S    
C53   H33   S    
C66   C70   S    
C64   H53   S    
C21   C24   A    
C1    O1    A    
C11   C46   S    
C35   C63   S    
C21   C50   S    
C44   H16   S    
C22   C51   S    
C20   C31   A    
