data_mof_unit_58913.cif
_audit_creation_date              2013-03-05T16:48:44-0500
_audit_creation_method            fapswitch 2.2
_symmetry_space_group_name_H-M    P1
_symmetry_Int_Tables_number       1
_space_group_crystal_system       triclinic
_cell_length_a                    27.734905
_cell_length_b                    8.923208
_cell_length_c                    8.095472
_cell_angle_alpha                 90.017963
_cell_angle_beta                  89.882004
_cell_angle_gamma                 90.221029
_cell_volume                      2003.48318309

loop_
_atom_site_label
_atom_site_type_symbol
_atom_site_description
_atom_site_fract_x
_atom_site_fract_y
_atom_site_fract_z
_atom_type_partial_charge
O1    O     O_R   0.500000 0.285350 0.636850 -0.611812
O2    O     O_R   0.500000 0.714650 0.363150 -0.611934
O3    O     O_R   0.500000 0.714650 0.636850 -0.620485
O4    O     O_R   0.500000 0.285350 0.363150 -0.620632
C1    C     C_R   0.500526 0.217979 0.499992 0.974236
C2    C     C_R   0.499490 0.782022 0.500008 0.974088
O5    O     O_R   0.428760 0.500000 0.636860 -0.616500
O6    O     O_R   0.571240 0.500000 0.363140 -0.616746
O7    O     O_R   0.571240 0.500000 0.636860 -0.610819
O8    O     O_R   0.428760 0.500000 0.363140 -0.610867
C3    C     C_R   0.406009 0.501387 0.500172 0.952096
C4    C     C_R   0.593991 0.498587 0.499826 0.952144
Zn1   Zn    Zn3+2 0.500000 0.500000 0.682780 1.034043
Zn2   Zn    Zn3+2 0.500000 0.500000 0.317220 1.033875
C5    C     C_R   0.178487 0.476931 0.635569 0.627605
C6    C     C_R   0.821490 0.522874 0.364337 0.627644
C7    C     C_R   0.177345 0.559323 0.355232 0.624890
C8    C     C_R   0.822654 0.438814 0.644146 0.624882
O9    O     O_2   0.204141 0.438741 0.770625 -0.485532
O10   O     O_2   0.795822 0.562059 0.229632 -0.485672
O11   O     O_2   0.201888 0.601026 0.218489 -0.488434
O12   O     O_2   0.798121 0.396311 0.780651 -0.488569
N1    N     N_R   0.201789 0.518972 0.494255 -0.327218
N2    N     N_R   0.798200 0.480133 0.505461 -0.327214
C9    C     C_R   0.279052 0.643069 0.543706 0.435707
C10   C     C_R   0.720881 0.356480 0.455814 0.435575
C11   C     C_R   0.276744 0.385971 0.440347 0.325451
C12   C     C_R   0.723309 0.613306 0.559959 0.325457
C13   C     C_R   0.329774 0.639455 0.547185 -0.189134
C14   C     C_R   0.670163 0.360305 0.452446 -0.189016
C15   C     C_R   0.327151 0.378284 0.445928 -0.133579
C16   C     C_R   0.672905 0.621238 0.554408 -0.133629
C17   C     C_R   0.253205 0.516736 0.490891 0.104635
C18   C     C_R   0.746787 0.482571 0.508969 0.104727
C19   C     C_R   0.101868 0.511810 0.497807 -0.042497
C20   C     C_R   0.898122 0.486841 0.501660 -0.042612
C21   C     C_R   0.128110 0.472601 0.640040 -0.038645
C22   C     C_R   0.871868 0.526897 0.359707 -0.038817
C23   C     C_R   0.126916 0.556482 0.354357 -0.037414
C24   C     C_R   0.873084 0.441496 0.644929 -0.037625
C25   C     C_R   0.103754 0.429071 0.782903 -0.117507
C26   C     C_R   0.896212 0.571074 0.217005 -0.117192
C27   C     C_R   0.101330 0.596411 0.213324 -0.121187
C28   C     C_R   0.898683 0.400662 0.785664 -0.120934
C29   C     C_R   0.353513 0.505320 0.500647 -0.231242
C30   C     C_R   0.646484 0.494443 0.499343 -0.231204
H1    H     H_    0.123211 0.398854 0.893886 0.202620
H2    H     H_    0.876746 0.602066 0.106260 0.202947
H3    H     H_    0.119828 0.631793 0.101854 0.200407
H4    H     H_    0.880195 0.364576 0.896933 0.200709
C31   C     C_R   0.975071 0.452494 0.645349 0.047197
C32   C     C_R   0.024924 0.545640 0.353917 0.047427
C33   C     C_R   0.973813 0.538926 0.354707 0.046670
C34   C     C_R   0.026173 0.459853 0.644749 0.046883
C35   C     C_R   0.949240 0.492669 0.500530 0.085114
C36   C     C_R   0.050750 0.505838 0.498859 0.085240
C37   C     C_R   0.948600 0.405656 0.786208 -0.218694
C38   C     C_R   0.051413 0.591404 0.212736 -0.218846
C39   C     C_R   0.946105 0.576960 0.214076 -0.218645
C40   C     C_R   0.053865 0.422910 0.785709 -0.218786
H5    H     H_    0.965035 0.371313 0.900178 0.148155
H6    H     H_    0.034998 0.624576 0.098368 0.147667
H7    H     H_    0.961509 0.612478 0.098494 0.148027
H8    H     H_    0.038439 0.388426 0.901574 0.147595
C41   C     C_1   0.500218 0.065198 0.499987 -0.114294
C42   C     C_1   0.499804 0.934802 0.500012 -0.114416
N3    N     N_1   0.500000 0.500000 0.073640 -0.023478
N4    N     N_1   0.500000 0.500000 0.926360 -0.023461
C43   C     C_2   0.351217 0.236226 0.395882 0.569976
H9    H     H_    0.334301 0.162081 0.306846 0.136225
O13   O     O_2   0.389380 0.197596 0.456872 -0.575295
C44   C     C_2   0.648903 0.763295 0.604835 0.570113
H10   H     H_    0.665851 0.837168 0.694051 0.136087
O14   O     O_2   0.610756 0.802227 0.543972 -0.574946
C45   C     C_2   0.358412 0.774447 0.596335 0.519758
H11   H     H_    0.394674 0.762919 0.643911 0.038991
O15   O     O_2   0.342620 0.900967 0.579821 -0.467827
C46   C     C_2   0.641473 0.225497 0.403061 0.519431
H12   H     H_    0.605245 0.237243 0.355248 0.039273
O16   O     O_2   0.657186 0.098884 0.419664 -0.467615
Cl1   Cl    Cl    0.241654 0.229379 0.378906 -0.499518
Cl2   Cl    Cl    0.758475 0.769558 0.621935 -0.499988
Cl3   Cl    Cl    0.246141 0.801261 0.611850 -0.431406
Cl4   Cl    Cl    0.753710 0.198341 0.387043 -0.431683

loop_
_geom_bond_atom_site_label_1
_geom_bond_atom_site_label_2
_geom_bond_distance
_ccdc_geom_bond_type
C38   H6    1.074733 S    
C44   O14   1.219796 D    
O3    C2    1.260706 A    
C33   C39   1.416938 A    
C16   C44   1.490539 S    
C34   C40   1.416517 A    
C11   C17   1.399881 A    
C5    O9    1.350223 S    
C7    N1    1.364251 A    
C2    C42   1.363284 S    
O1    C1    1.260437 A    
C19   C21   1.408412 A    
C22   C26   1.393151 A    
C46   O16   1.220057 D    
C7    C23   1.398819 A    
C43   O13   1.219837 D    
C8    C24   1.398814 A    
C5    C21   1.397970 A    
C20   C24   1.409231 A    
O7    Zn1   2.009746 S    
C27   C38   1.385007 A    
C10   C18   1.400744 A    
N1    C17   1.426427 S    
O6    Zn2   2.011251 S    
Zn2   N3    1.971895 S    
C31   C37   1.417212 A    
O3    Zn1   1.951237 S    
C6    O10   1.350417 S    
C44   H10   1.084355 S    
C5    N1    1.364746 A    
C12   C18   1.399911 A    
C6    N2    1.365011 A    
O4    Zn2   1.951238 S    
O2    C2    1.260436 A    
O5    C3    1.275036 A    
C33   C35   1.422408 A    
C9    C13   1.407607 A    
C34   C36   1.422217 A    
C11   C15   1.400791 A    
N3    N4    1.192300 T    
C12   C16   1.400836 A    
C1    C41   1.363289 S    
O8    Zn2   2.009749 S    
C46   H12   1.082984 S    
C27   H3    1.083627 S    
C11   Cl1   1.771463 S    
C23   C27   1.392701 A    
C12   Cl2   1.771450 S    
C7    O11   1.349982 S    
C13   C29   1.418733 A    
C19   C23   1.408887 A    
C45   H11   1.082965 S    
C15   C43   1.490499 S    
C24   C28   1.393004 A    
C28   C37   1.385027 A    
O6    C4    1.275025 A    
C25   H1    1.083700 S    
C26   H2    1.083998 S    
C45   O15   1.220008 D    
C32   C38   1.416777 A    
C4    C30   1.456509 S    
C10   C14   1.407525 A    
C8    N2    1.364467 A    
C3    C29   1.456519 S    
O1    Zn1   1.951009 S    
C32   C33   1.418611 A    
C28   H4    1.083980 S    
C10   Cl4   1.771299 S    
C19   C36   1.418551 A    
C8    O12   1.350246 S    
C16   C30   1.417898 A    
C14   C30   1.418751 A    
C25   C40   1.384698 A    
O4    C1    1.260709 A    
C26   C39   1.384709 A    
C37   H5    1.075145 S    
C13   C45   1.494586 S    
C39   H7    1.075170 S    
C40   H8    1.074726 S    
C31   C34   1.418581 A    
C20   C22   1.408649 A    
C20   C35   1.418528 A    
C31   C35   1.421954 A    
C21   C25   1.392769 A    
C43   H9    1.084464 S    
O2    Zn2   1.951008 S    
O7    C4    1.275203 A    
N2    C18   1.426397 S    
O8    C3    1.275193 A    
C14   C46   1.494532 S    
O5    Zn1   2.011254 S    
C41   C42   1.163566 T    
C15   C29   1.417897 A    
C9    C17   1.400793 A    
C9    Cl3   1.771276 S    
C32   C36   1.421857 A    
C6    C22   1.397977 A    
Zn1   N4    1.971895 S    
