data_mof_unit_63191.cif
_audit_creation_date              2012-12-10T19:43:57-0500
_audit_creation_method            fapswitch 2.2
_symmetry_space_group_name_H-M    P1
_symmetry_Int_Tables_number       1
_space_group_crystal_system       triclinic
_cell_length_a                    30.659074
_cell_length_b                    30.493759
_cell_length_c                    23.258471
_cell_angle_alpha                 89.909774
_cell_angle_beta                  130.31918
_cell_angle_gamma                 90.003864
_cell_volume                      16579.1652159

loop_
_atom_site_label
_atom_site_type_symbol
_atom_type_description
_atom_site_fract_x
_atom_site_fract_y
_atom_site_fract_z
_atom_type_partial_charge
C1    C     C_R   0.809593 0.810181 0.499419 0.866068
C2    C     C_1   0.516763 0.751994 0.033685 -0.047858
C3    C     C_R   0.908291 0.093184 0.501338 -0.099370
C4    C     C_R   0.650502 0.590259 0.544586 0.136509
C5    C     C_R   0.349451 0.590317 0.455406 0.135796
C6    C     C_R   0.150440 0.090064 0.544109 0.135796
C7    C     C_R   0.849623 0.089784 0.456587 0.132939
C8    C     C_3   0.701407 0.563572 0.604205 -0.486814
C9    C     C_3   0.298588 0.563548 0.396317 -0.487809
C10   C     C_3   0.201287 0.063125 0.603128 -0.488223
C11   C     C_3   0.799219 0.061746 0.400504 -0.491600
C12   C     C_3   0.736978 0.598738 0.603092 -0.492008
C13   C     C_1   0.982652 0.251915 0.966294 -0.048211
C14   C     C_3   0.263037 0.598686 0.397511 -0.491642
C15   C     C_3   0.236853 0.098289 0.602003 -0.491689
C16   C     C_3   0.763568 0.096826 0.401577 -0.488821
C17   C     C_R   0.440042 0.560038 0.500340 0.886673
C18   C     C_R   0.559917 0.560036 0.499566 0.887346
C19   C     C_R   0.940044 0.060040 0.500304 0.886907
C20   C     C_R   0.059915 0.060032 0.499566 0.886672
C21   C     C_R   0.940022 0.939892 0.500548 0.876843
C22   C     C_R   0.060025 0.939885 0.499546 0.876715
C23   C     C_R   0.439983 0.439908 0.500544 0.875760
C24   C     C_1   0.016770 0.251931 0.033682 -0.048238
C25   C     C_R   0.559947 0.439836 0.499564 0.878039
C26   C     C_R   0.823425 0.750413 0.646571 0.883567
C27   C     C_R   0.176622 0.750442 0.353423 0.883783
C28   C     C_R   0.323392 0.250341 0.646585 0.883451
C29   C     C_R   0.677146 0.249924 0.353436 0.884714
C30   C     C_R   0.425402 0.789791 0.845199 -0.150691
C31   C     C_R   0.573903 0.789811 0.154533 -0.150686
C32   C     C_R   0.925395 0.289747 0.845218 -0.150497
C33   C     C_R   0.073891 0.289771 0.154510 -0.150731
C34   C     C_R   0.387136 0.788479 0.766908 -0.213515
C35   C     C_R   0.901396 0.844652 0.557879 0.082603
C36   C     C_R   0.612328 0.788503 0.232838 -0.213284
C37   C     C_R   0.887126 0.288452 0.766927 -0.213668
C38   C     C_R   0.112313 0.288478 0.232816 -0.213790
C39   C     C_R   0.365528 0.748235 0.728927 -0.108549
C40   C     C_R   0.634258 0.748270 0.271085 -0.108604
C41   C     C_R   0.865545 0.248214 0.728922 -0.108606
C42   C     C_R   0.134248 0.248252 0.271086 -0.108666
C43   C     C_R   0.383475 0.708524 0.770485 -0.044199
C44   C     C_R   0.616454 0.708565 0.229783 -0.044630
C45   C     C_R   0.883530 0.208490 0.770452 -0.043880
C46   C     C_R   0.098755 0.845078 0.441801 0.082521
C47   C     C_R   0.116452 0.208538 0.229806 -0.043743
C48   C     C_R   0.421336 0.710565 0.849371 -0.198181
C49   C     C_R   0.578434 0.710604 0.150883 -0.198081
C50   C     C_R   0.921395 0.210513 0.849341 -0.198750
C51   C     C_R   0.078435 0.210563 0.150905 -0.198965
C52   C     C_3   0.108625 0.848930 0.283962 0.090212
C53   C     C_3   0.135515 0.890939 0.329358 -0.764406
C54   C     C_3   0.891229 0.848851 0.715089 0.090601
C55   C     C_3   0.864300 0.890969 0.669720 -0.764248
C56   C     C_3   0.737929 0.213299 0.283697 0.091076
C57   C     C_R   0.401073 0.345505 0.559104 0.081643
C58   C     C_3   0.801976 0.215931 0.327394 -0.778770
C59   C     C_3   0.391011 0.348832 0.716102 0.090694
C60   C     C_3   0.363529 0.390867 0.670680 -0.762713
C61   C     C_2   0.366775 0.664685 0.734165 0.913572
C62   C     C_2   0.633472 0.664724 0.266396 0.914624
C63   C     C_2   0.866862 0.164662 0.734095 0.913253
C64   C     C_2   0.133476 0.164703 0.266442 0.913287
C65   C     C_R   0.598361 0.343684 0.444001 0.111295
C66   C     C_R   0.842291 0.844009 0.500933 -0.074982
C67   C     C_R   0.157784 0.843990 0.499211 -0.074319
C68   C     C_R   0.342198 0.343995 0.500818 -0.073047
C69   C     C_R   0.190420 0.810174 0.500599 0.866213
C70   C     C_R   0.657676 0.343949 0.499243 -0.081630
C71   C     C_R   0.814286 0.879485 0.450840 -0.215970
C72   C     C_R   0.185840 0.879050 0.549968 -0.216028
C73   C     C_R   0.314102 0.378757 0.449171 -0.216033
C74   C     C_R   0.685516 0.380000 0.547746 -0.210856
C75   C     C_R   0.846428 0.911731 0.450907 -0.219486
C76   C     C_R   0.153710 0.911286 0.549948 -0.218923
C77   C     C_R   0.346233 0.411049 0.449305 -0.218477
C78   C     C_R   0.653349 0.412164 0.547772 -0.218118
C79   C     C_R   0.906273 0.908869 0.502737 -0.091786
C80   C     C_R   0.309593 0.310173 0.499440 0.866367
C81   C     C_R   0.093847 0.908835 0.497532 -0.092641
C82   C     C_R   0.406109 0.408956 0.502683 -0.093277
C83   C     C_R   0.593592 0.408623 0.497619 -0.093455
C84   C     C_R   0.933114 0.877120 0.559319 0.140892
C85   C     C_R   0.067071 0.877530 0.440447 0.141665
C86   C     C_R   0.432741 0.378008 0.560525 0.142434
C87   C     C_R   0.566575 0.376074 0.442628 0.149112
C88   C     C_3   0.980190 0.846114 0.584074 -0.490178
C89   C     C_3   0.019615 0.846705 0.414613 -0.488999
C90   C     C_3   0.480866 0.347395 0.588219 -0.487590
C91   C     C_R   0.690462 0.310176 0.500736 0.870485
C92   C     C_3   0.520953 0.344654 0.421690 -0.501379
C93   C     C_3   0.944982 0.810222 0.582302 -0.470840
C94   C     C_3   0.054790 0.810827 0.416288 -0.472263
C95   C     C_3   0.445707 0.311464 0.586470 -0.474614
C96   C     C_3   0.556222 0.308842 0.423463 -0.471422
C97   C     C_R   0.676146 0.749167 0.353462 0.917259
C98   C     C_R   0.323805 0.749141 0.646544 0.917817
C99   C     C_R   0.176144 0.249164 0.353462 0.917384
C100  C     C_R   0.823809 0.249135 0.646542 0.918103
C101  C     C_R   0.069519 0.713392 0.152553 -0.157776
C102  C     C_R   0.442259 0.750891 0.886125 0.131366
C103  C     C_R   0.931014 0.713367 0.847659 -0.157693
C104  C     C_R   0.539915 0.245288 0.153401 -0.155330
C105  C     C_R   0.431877 0.212502 0.847018 -0.159779
C106  C     C_R   0.108608 0.712838 0.230985 -0.274439
C107  C     C_R   0.891771 0.712806 0.769230 -0.274452
C108  C     C_R   0.578660 0.244696 0.231835 -0.269745
C109  C     C_R   0.391939 0.212284 0.768641 -0.274047
C110  C     C_R   0.134787 0.751858 0.271177 -0.146547
C111  C     C_R   0.865425 0.751827 0.728798 -0.146565
C112  C     C_R   0.637359 0.249333 0.271177 -0.147800
C113  C     C_R   0.557206 0.750918 0.113862 0.131368
C114  C     C_R   0.365414 0.251447 0.728845 -0.145739
C115  C     C_R   0.120001 0.792002 0.232167 0.471860
C116  C     C_R   0.880214 0.791980 0.767549 0.471829
C117  C     C_R   0.657460 0.252983 0.231284 0.472128
C118  C     C_R   0.380539 0.291392 0.768212 0.470755
C119  C     C_R   0.081359 0.792133 0.153385 -0.254666
C120  C     C_R   0.919008 0.792119 0.846325 -0.254626
C121  C     C_R   0.618154 0.254226 0.152550 -0.252618
C122  C     C_R   0.420074 0.291186 0.847015 -0.253700
C123  C     C_R   0.056291 0.752941 0.113985 0.085320
C124  C     C_R   0.942284 0.250835 0.886120 0.131364
C125  C     C_R   0.944230 0.752926 0.885975 0.085229
C126  C     C_R   0.559683 0.250366 0.113997 0.082192
C127  C     C_R   0.445640 0.251857 0.885997 0.083806
C128  C     C_1   0.016856 0.753247 0.033708 -0.035463
C129  C     C_1   0.983729 0.753239 0.966250 -0.035462
C130  C     C_1   0.519792 0.251251 0.033722 -0.035071
C131  C     C_1   0.486030 0.251739 0.966270 -0.035385
C132  C     C_R   0.681348 0.620584 0.543117 0.118037
C133  C     C_R   0.318628 0.620616 0.456963 0.118176
C134  C     C_R   0.181273 0.120392 0.542621 0.118195
C135  C     C_R   0.057204 0.250869 0.113861 0.131473
C136  C     C_R   0.818757 0.120097 0.458036 0.112616
C137  C     C_R   0.656150 0.657190 0.497376 -0.093566
C138  C     C_R   0.343816 0.657198 0.502505 -0.094045
C139  C     C_R   0.156126 0.157186 0.497353 -0.093432
C140  C     C_R   0.843713 0.157296 0.501989 -0.097886
C141  C     C_R   0.596267 0.661596 0.449165 -0.176353
C142  C     C_R   0.403666 0.661629 0.550343 -0.177089
C143  C     C_R   0.096285 0.161779 0.449626 -0.177093
C144  C     C_R   0.903353 0.162513 0.547830 -0.181772
C145  C     C_R   0.690011 0.689957 0.499832 0.925473
C146  C     C_1   0.482636 0.751982 0.966297 -0.047870
C147  C     C_R   0.309988 0.689956 0.500159 0.925588
C148  C     C_R   0.190000 0.189954 0.499816 0.925518
C149  C     C_R   0.809925 0.189961 0.499983 0.922956
C150  C     C_R   0.563801 0.629036 0.448671 -0.220220
C151  C     C_R   0.436114 0.629095 0.550762 -0.220655
C152  C     C_R   0.063817 0.129223 0.449137 -0.222301
C153  C     C_R   0.935877 0.129993 0.548394 -0.222035
C154  C     C_R   0.591637 0.593031 0.498078 -0.100089
C155  C     C_R   0.408292 0.593087 0.501642 -0.100086
C156  C     C_R   0.091622 0.093027 0.498076 -0.099423
H1    H     H_    0.441820 0.821079 0.873780 0.135433
H2    H     H_    0.950704 0.682971 0.878412 0.145389
H3    H     H_    0.494580 0.242082 0.123502 0.149164
H4    H     H_    0.451771 0.181996 0.877225 0.146232
H5    H     H_    0.119161 0.681867 0.260300 0.168619
H6    H     H_    0.881223 0.681829 0.740113 0.168625
H7    H     H_    0.562782 0.241409 0.261854 0.168787
H8    H     H_    0.381145 0.181454 0.739058 0.168812
H9    H     H_    0.070640 0.822808 0.123209 0.156649
H10   H     H_    0.929710 0.822798 0.876305 0.156686
H11   H     H_    0.633351 0.257733 0.121716 0.156585
H12   H     H_    0.557256 0.821091 0.125743 0.135476
H13   H     H_    0.431141 0.321707 0.877509 0.159240
H14   H     H_    0.574913 0.689665 0.411996 0.167909
H15   H     H_    0.425019 0.689686 0.587322 0.167989
H16   H     H_    0.074957 0.189992 0.412822 0.167391
H17   H     H_    0.924547 0.191126 0.583365 0.168717
H18   H     H_    0.517689 0.632336 0.411314 0.162616
H19   H     H_    0.482206 0.632395 0.587895 0.162523
H20   H     H_    0.017738 0.132666 0.412158 0.160964
H21   H     H_    0.981820 0.133844 0.584139 0.161409
H22   H     H_    0.708523 0.562900 0.657519 0.211717
H23   H     H_    0.941788 0.321032 0.873818 0.135543
H24   H     H_    0.291156 0.562833 0.342787 0.211891
H25   H     H_    0.208731 0.062233 0.656664 0.211913
H26   H     H_    0.790320 0.059932 0.346033 0.208415
H27   H     H_    0.701788 0.531079 0.582920 0.198020
H28   H     H_    0.298540 0.531069 0.418059 0.197938
H29   H     H_    0.201309 0.030719 0.581309 0.197746
H30   H     H_    0.800945 0.029735 0.424859 0.199201
H31   H     H_    0.764328 0.618557 0.655571 0.197720
H32   H     H_    0.235379 0.618454 0.344859 0.197882
H33   H     H_    0.264533 0.117888 0.654707 0.197847
H34   H     H_    0.057241 0.321045 0.125703 0.135486
H35   H     H_    0.734234 0.115310 0.347754 0.186768
H36   H     H_    0.373777 0.819045 0.735799 0.150863
H37   H     H_    0.625565 0.819065 0.263744 0.151004
H38   H     H_    0.873741 0.319027 0.735836 0.151031
H39   H     H_    0.125545 0.319045 0.263705 0.150973
H40   H     H_    0.758270 0.586524 0.581650 0.214808
H41   H     H_    0.242083 0.586463 0.419445 0.214310
H42   H     H_    0.257787 0.086160 0.580021 0.214218
H43   H     H_    0.744376 0.085011 0.426109 0.217279
H44   H     H_    0.436073 0.680630 0.882430 0.169168
H45   H     H_    0.964886 0.796954 0.639086 0.195680
H46   H     H_    0.563828 0.680671 0.118028 0.169166
H47   H     H_    0.936158 0.180569 0.882381 0.168860
H48   H     H_    0.063836 0.180623 0.118067 0.168754
H49   H     H_    0.768004 0.880902 0.409405 0.151803
H50   H     H_    0.232113 0.880137 0.591814 0.151237
H51   H     H_    0.267857 0.379554 0.406615 0.150611
H52   H     H_    0.731793 0.381990 0.587919 0.152706
H53   H     H_    0.824853 0.937917 0.409574 0.156669
H54   H     H_    0.175294 0.937146 0.591723 0.157098
H55   H     H_    0.324662 0.436641 0.406845 0.157871
H56   H     H_    0.035138 0.798035 0.359401 0.195400
H57   H     H_    0.674875 0.438893 0.587817 0.155378
H58   H     H_    0.985054 0.841877 0.540992 0.192088
H59   H     H_    0.014296 0.842095 0.457215 0.192070
H60   H     H_    0.487055 0.342530 0.546536 0.191713
H61   H     H_    0.517809 0.341115 0.466495 0.191884
H62   H     H_    0.020427 0.853545 0.641888 0.208875
H63   H     H_    0.979649 0.854603 0.356751 0.208746
H64   H     H_    0.520304 0.355692 0.646200 0.208433
H65   H     H_    0.479737 0.351115 0.364226 0.212540
H66   H     H_    0.929318 0.785134 0.538088 0.220851
H67   H     H_    0.464831 0.299045 0.643434 0.194812
H68   H     H_    0.069979 0.785370 0.459964 0.221026
H69   H     H_    0.431399 0.285724 0.543670 0.221195
H70   H     H_    0.573651 0.284519 0.469430 0.218206
H71   H     H_    0.104050 0.825768 0.316902 0.118287
H72   H     H_    0.065435 0.857005 0.229782 0.136662
H73   H     H_    0.139509 0.915243 0.297388 0.255207
H74   H     H_    0.108322 0.905046 0.340666 0.202012
H75   H     H_    0.178623 0.883932 0.383979 0.268037
H76   H     H_    0.895532 0.825706 0.681956 0.118479
H77   H     H_    0.934540 0.856774 0.769087 0.136518
H78   H     H_    0.535335 0.294586 0.367033 0.200229
H79   H     H_    0.860640 0.915270 0.701925 0.255000
H80   H     H_    0.891284 0.904996 0.657988 0.202210
H81   H     H_    0.821042 0.884134 0.615311 0.268150
H82   H     H_    0.717830 0.195242 0.230178 0.133079
H83   H     H_    0.731292 0.194529 0.318607 0.110372
H84   H     H_    0.823211 0.234044 0.380937 0.269055
H85   H     H_    0.820301 0.182348 0.340770 0.202442
H86   H     H_    0.810294 0.233142 0.293220 0.251761
H87   H     H_    0.395491 0.325906 0.682901 0.117922
H88   H     H_    0.434268 0.356961 0.770016 0.136950
H89   H     H_    0.049940 0.682998 0.121993 0.145359
H90   H     H_    0.359602 0.414950 0.702884 0.255500
H91   H     H_    0.390295 0.405277 0.658863 0.201771
H92   H     H_    0.320342 0.383797 0.616312 0.267777
H93   H     H_    0.349228 0.626576 0.650539 0.346149
H94   H     H_    0.651295 0.626519 0.350281 0.347000
H95   H     H_    0.849295 0.126611 0.650400 0.346209
H96   H     H_    0.151302 0.126515 0.350345 0.346045
O1    O     O_R   0.821670 0.769930 0.500010 -0.624143
O2    O     O_R   0.077130 0.954190 0.562600 -0.625236
O3    O     O_R   0.422870 0.454190 0.437400 -0.625336
O4    O     O_R   0.577130 0.454190 0.562600 -0.625878
O5    O     O_R   0.985440 0.954220 0.562600 -0.618817
O6    O     O_R   0.014560 0.954220 0.437400 -0.618863
O7    O     O_R   0.485440 0.454220 0.562600 -0.619190
O8    O     O_R   0.514560 0.454220 0.437400 -0.616322
O9    O     O_R   0.769920 0.821660 0.500020 -0.628452
O10   O     O_R   0.230080 0.821660 0.499980 -0.628557
O11   O     O_R   0.269920 0.321660 0.500020 -0.628506
O12   O     O_R   0.178330 0.769930 0.499990 -0.624139
O13   O     O_R   0.730080 0.321660 0.499980 -0.623513
O14   O     O_R   0.720420 0.724130 0.389120 -0.597499
O15   O     O_R   0.279580 0.724130 0.610880 -0.597464
O16   O     O_R   0.220420 0.224130 0.389120 -0.597437
O17   O     O_R   0.779580 0.224130 0.610880 -0.597973
O18   O     O_R   0.668670 0.775850 0.389130 -0.627121
O19   O     O_R   0.331330 0.775850 0.610870 -0.627129
O20   O     O_R   0.168670 0.275850 0.389130 -0.627207
O21   O     O_R   0.831330 0.275850 0.610870 -0.627006
O22   O     O_R   0.730060 0.678320 0.499990 -0.604992
O23   O     O_R   0.321670 0.269930 0.500010 -0.623995
O24   O     O_R   0.269940 0.678320 0.500010 -0.605421
O25   O     O_R   0.230060 0.178320 0.499990 -0.605338
O26   O     O_R   0.769940 0.178320 0.500010 -0.604157
O27   O     O_R   0.678300 0.730040 0.500010 -0.629582
O28   O     O_R   0.321700 0.730040 0.499990 -0.629406
O29   O     O_R   0.178300 0.230040 0.500010 -0.629691
O30   O     O_R   0.821700 0.230040 0.499990 -0.633048
O31   O     O_R   0.831300 0.724120 0.610880 -0.637041
O32   O     O_R   0.168700 0.724120 0.389120 -0.637091
O33   O     O_R   0.331300 0.224120 0.610880 -0.637336
O34   O     O_R   0.678330 0.269930 0.499990 -0.626546
O35   O     O_R   0.668700 0.224120 0.389120 -0.637776
O36   O     O_R   0.779550 0.775850 0.610900 -0.569948
O37   O     O_R   0.220450 0.775850 0.389100 -0.569968
O38   O     O_R   0.279550 0.275850 0.610900 -0.570024
O39   O     O_R   0.720450 0.275850 0.389100 -0.569640
O40   O     O_R   0.422810 0.545810 0.437360 -0.625843
O41   O     O_R   0.577190 0.545810 0.562640 -0.626065
O42   O     O_R   0.922810 0.045810 0.437360 -0.627544
O43   O     O_R   0.077190 0.045810 0.562640 -0.625656
O44   O     O_3   0.143851 0.831086 0.270570 -0.593990
O45   O     O_R   0.485380 0.545840 0.562560 -0.620482
O46   O     O_3   0.856216 0.831071 0.728908 -0.594037
O47   O     O_3   0.715266 0.256141 0.268686 -0.593386
O48   O     O_3   0.356329 0.330605 0.730156 -0.593710
O49   O     O_2   0.360974 0.633969 0.762591 -0.623548
O50   O     O_R   0.359961 0.657923 0.669310 -0.810135
O51   O     O_2   0.639480 0.634087 0.238165 -0.622358
O52   O     O_R   0.640343 0.657861 0.331302 -0.809750
O53   O     O_2   0.861117 0.133909 0.762521 -0.624683
O54   O     O_R   0.860010 0.157954 0.669200 -0.808614
O55   O     O_2   0.139489 0.134059 0.238228 -0.624381
O56   O     O_R   0.514620 0.545840 0.437440 -0.619423
O57   O     O_R   0.140347 0.157855 0.331351 -0.810075
O58   O     O_R   0.985380 0.045840 0.562560 -0.619210
O59   O     O_R   0.014620 0.045840 0.437440 -0.620854
O60   O     O_R   0.922870 0.954190 0.437400 -0.625130
Zn1   Zn    Zn3+2 0.784540 0.715450 0.500000 0.973028
Zn2   Zn    Zn3+2 0.541810 0.500000 0.583590 0.955802
Zn3   Zn    Zn3+2 0.958190 1.000000 0.416410 0.953641
Zn4   Zn    Zn3+2 0.041810 0.000000 0.583590 0.956336
Zn5   Zn    Zn3+2 0.215460 0.715450 0.500000 0.972734
Zn6   Zn    Zn3+2 0.284540 0.215450 0.500000 0.972199
Zn7   Zn    Zn3+2 0.715460 0.215450 0.500000 0.971543
Zn8   Zn    Zn3+2 0.715430 0.784520 0.500020 0.983903
Zn9   Zn    Zn3+2 0.284570 0.784520 0.499980 0.984073
Zn10  Zn    Zn3+2 0.215430 0.284520 0.500020 0.983328
Zn11  Zn    Zn3+2 0.784570 0.284520 0.499980 0.985870
Zn12  Zn    Zn3+2 0.458190 0.500000 0.416410 0.959719

loop_
_geom_bond_atom_site_label_1
_geom_bond_atom_site_label_2
_ccdc_geom_bond_type
C49   C113  A    
C19   O42   A    
C4    C154  A    
C136  C140  A    
C90   H60   S    
C120  H10   S    
C90   C95   S    
O58   Zn4   S    
C62   O51   D    
C56   H82   S    
C97   O18   A    
C99   O20   A    
C10   H29   S    
C61   O49   D    
C38   H39   S    
C89   C94   S    
O42   Zn3   S    
C25   O8    A    
C65   C96   S    
C152  C156  A    
C27   C110  S    
C70   C74   A    
C3    C19   S    
C151  C155  A    
C93   H45   S    
O41   Zn2   S    
C59   C60   S    
C12   H40   S    
C80   O11   A    
C25   O4    A    
C65   C87   A    
C17   O45   A    
C100  O17   A    
C139  C148  S    
C86   C90   S    
C47   C64   S    
C13   C124  S    
C105  C127  A    
C120  C125  A    
C39   C98   S    
C72   H50   S    
C35   C66   A    
C132  C137  A    
C5    C155  A    
C96   H70   S    
C142  C151  A    
C89   H63   S    
C138  C147  S    
C33   C135  A    
O22   Zn1   S    
C107  H6    S    
C30   C102  A    
C41   C100  S    
C55   H81   S    
O4    Zn2   S    
C18   O41   A    
O20   Zn10  S    
C104  H3    S    
C17   C155  S    
C27   O32   A    
C51   H48   S    
C43   C61   S    
C76   H54   S    
O33   Zn6   S    
C12   C132  S    
C84   C88   S    
C35   C84   A    
C119  C123  A    
C98   O19   A    
C117  O47   S    
C33   C38   A    
C118  O48   S    
C34   H36   S    
C130  C131  T    
C9    H28   S    
C21   O5    A    
C77   C82   A    
H96   O57   S    
H94   O52   S    
C92   H61   S    
C127  C131  S    
C59   O48   S    
O7    Zn2   S    
C125  C129  S    
C71   H49   S    
C25   C83   S    
C20   O43   A    
C73   C77   A    
C31   C36   A    
C103  C107  A    
C91   O13   A    
C75   C79   A    
C26   C111  S    
C94   H56   S    
C23   C82   S    
O59   Zn3   S    
C70   C91   S    
C55   H80   S    
C128  C129  T    
O37   Zn9   S    
C4    C132  A    
C148  O25   A    
C5    C133  A    
O30   Zn11  S    
C45   C50   A    
C143  H16   S    
C79   C84   A    
C105  H4    S    
O23   Zn6   S    
C65   C70   A    
C92   C96   S    
C67   C72   A    
C118  C122  A    
C106  H5    S    
C122  C127  A    
C58   H86   S    
C139  C143  A    
O17   Zn7   S    
C21   O60   A    
C119  H9    S    
C90   H64   S    
O56   Zn12  S    
C53   H74   S    
C15   H33   S    
O34   Zn7   S    
C94   H68   S    
C145  O27   A    
C63   O54   S    
C64   O57   S    
C54   H76   S    
C141  C150  A    
C14   H41   S    
C153  H21   S    
C99   O16   A    
C148  O29   A    
C30   C34   A    
C34   C39   A    
O14   Zn1   S    
C50   C124  A    
C134  C139  A    
C12   H31   S    
C95   H67   S    
C116  C120  A    
O9    Zn8   S    
C59   H88   S    
C95   H69   S    
C5    C9    S    
C16   H35   S    
O16   Zn6   S    
C46   C94   S    
C8    C12   S    
O18   Zn8   S    
C32   C37   A    
C16   H43   S    
O25   Zn6   S    
C93   H66   S    
C109  C114  A    
C8    H27   S    
O27   Zn8   S    
C115  C119  A    
C57   C68   A    
C16   C136  S    
C52   C53   S    
C101  C106  A    
C105  C109  A    
C54   C55   S    
C41   C45   A    
C107  C111  A    
C14   C133  S    
O60   Zn3   S    
C62   O52   S    
C145  O22   A    
C7    C136  A    
O11   Zn10  S    
C20   O59   A    
O43   Zn4   S    
C56   C58   S    
C37   C41   A    
C103  C125  A    
C40   C44   A    
C60   H91   S    
C140  C149  S    
C31   C113  A    
C81   C85   A    
C142  H15   S    
C30   H1    S    
C83   C87   A    
C11   H30   S    
C101  H89   S    
C147  O28   A    
C15   C134  S    
C50   H47   S    
C22   O6    A    
C48   H44   S    
C137  C145  S    
C92   H65   S    
O45   Zn2   S    
C3    C7    A    
C112  C117  A    
C126  C130  S    
O1    Zn1   S    
O24   Zn5   S    
C56   H83   S    
O26   Zn7   S    
C49   H46   S    
C78   C83   A    
C52   H72   S    
C111  C116  A    
C72   C76   A    
C46   C85   A    
O32   Zn5   S    
C73   H51   S    
C133  C138  A    
C29   O35   A    
C87   C92   S    
C11   H26   S    
C78   H57   S    
C1    O1    A    
C56   O47   S    
C121  H11   S    
C108  H7    S    
O21   Zn11  S    
C151  H19   S    
C22   C81   S    
O35   Zn7   S    
O36   Zn8   S    
O31   Zn1   S    
O5    Zn4   S    
C40   C97   S    
O8    Zn12  S    
C15   H42   S    
C85   C89   S    
O6    Zn3   S    
C47   C51   A    
C82   C86   A    
C80   O23   A    
C61   O50   S    
C108  C112  A    
C33   H34   S    
C9    C14   S    
C26   O36   A    
C14   H32   S    
C11   C16   S    
H93   O50   S    
C122  H13   S    
C48   C102  A    
C27   O37   A    
O28   Zn9   S    
C143  C152  A    
C138  C142  A    
C104  C108  A    
C137  C141  A    
C75   H53   S    
C140  C144  A    
C55   H79   S    
C109  H8    S    
C6    C10   S    
O40   Zn12  S    
C103  H2    S    
C69   O10   A    
C17   O40   A    
C37   H38   S    
O2    Zn4   S    
C141  H14   S    
C97   O14   A    
C121  C126  A    
C31   H12   S    
C74   C78   A    
C10   H25   S    
C96   H78   S    
C91   O34   A    
C110  C115  A    
C53   H73   S    
C44   C49   A    
C68   C80   S    
C60   H90   S    
C32   C124  A    
C29   C112  S    
C63   O53   D    
C4    C8    S    
O38   Zn10  S    
C74   H52   S    
C7    C11   S    
C101  C123  A    
C88   H58   S    
C19   O58   A    
C38   C42   A    
C10   C15   S    
C2    C113  S    
O19   Zn9   S    
C3    C153  A    
C57   C86   A    
C59   H87   S    
C144  C153  A    
C64   O55   D    
C117  C121  A    
C36   H37   S    
C52   H71   S    
C51   C135  A    
O10   Zn9   S    
C66   C71   A    
C88   H62   S    
C144  H17   S    
C149  O30   A    
C32   H23   S    
C43   C48   A    
C29   O39   A    
C147  O24   A    
C89   H59   S    
C23   O7    A    
C21   C79   S    
C58   H84   S    
C69   O12   A    
C35   C93   S    
C36   C40   A    
C23   O3    A    
C39   C43   A    
C44   C62   S    
C68   C73   A    
C45   C63   S    
C52   O44   S    
C13   C24   T    
C67   C69   S    
C58   H85   S    
O13   Zn11  S    
O39   Zn11  S    
C98   O15   A    
C1    C66   S    
C18   O56   A    
C149  O26   A    
C26   O31   A    
C114  C118  A    
C9    H24   S    
C28   C114  S    
C53   H75   S    
C1    O9    A    
C24   C135  S    
C28   O33   A    
C150  H18   S    
C60   H92   S    
C57   C95   S    
C106  C110  A    
C54   O46   S    
C88   C93   S    
C20   C156  S    
C115  O44   S    
O29   Zn10  S    
O15   Zn5   S    
C18   C154  S    
C76   C81   A    
C2    C146  T    
O12   Zn5   S    
C100  O21   A    
C28   O38   A    
C46   C67   A    
C6    C134  A    
C42   C99   S    
C102  C146  S    
C71   C75   A    
C123  C128  S    
H95   O54   S    
C42   C47   A    
C6    C156  A    
C22   O2    A    
C77   H55   S    
C116  O46   S    
C152  H20   S    
C8    H22   S    
C104  C126  A    
C150  C154  A    
C54   H77   S    
O3    Zn12  S    
